#	Name: ASD04560066
#	Creating user name:	WinNT
#	Creation time:	15. 06. 2019 20:49

#	Modifying user name:	WinNT
#	Modification time:	15. 06. 2019 20:49

#	Program:	/corina/corina34_cracker 3.40 0067  02.08.2006

@<TRIPOS>MOLECULE
ASD04560066
  41   44    0    0    0
SMALL
NO_CHARGES


@<TRIPOS>ATOM
   1 C1            -0.0173     1.3666     0.0244 C.ar    
   2 C2             0.0010    -0.0041     0.0241 C.ar    
   3 C3             1.2157    -0.6859     0.0136 C.ar    
   4 C4             2.4151     0.0225     0.0039 C.ar    
   5 C5             2.4031     1.3933     0.0042 C.ar    
   6 C6             1.1852     2.0805     0.0143 C.ar    
   7 C7             1.1690     3.5549     0.0141 C.2     
   8 O8             2.2154     4.1746     0.0053 O.2     
   9 N9            -0.0055     4.2159     0.0238 N.am    
  10 C10           -0.0226     5.6108     0.1367 C.ar    
  11 C11           -0.9921     6.3504    -0.5279 C.ar    
  12 C12            0.9079     7.6335     1.0278 C.ar    
  13 C13            0.9265     6.2569     0.9179 C.ar    
  14 F14           -0.0727     9.7160     0.4686 F       
  15 S15            1.2351    -2.4478     0.0132 S.3     
  16 C16           -1.0071     7.7268    -0.4152 C.ar    
  17 C17           -0.0563     8.3694     0.3597 C.ar    
  18 C18            3.0069    -2.8364    -0.0020 C.3     
  19 C19            3.1932    -4.3318    -0.0038 C.ar    
  20 C20            3.2705    -5.0361    -1.2317 C.ar    
  21 C21            3.4513    -6.4851    -1.1944 C.ar    
  22 C22            3.5420    -7.1235     0.0680 C.ar    
  23 C23            3.4605    -6.3890     1.2039 C.ar    
  24 C24            3.2927    -5.0047     1.1682 C.ar    
  25 N25            3.2068    -4.6096    -2.4828 N.2     
  26 S26            3.3493    -5.8196    -3.4496 S.3     
  27 N27            3.5022    -6.9770    -2.4218 N.2     
  28 H28           -0.9594     1.8947     0.0280 H       
  29 H29           -0.9274    -0.5560     0.0322 H       
  30 H30            3.3553    -0.5088    -0.0035 H       
  31 H31            3.3333     1.9420    -0.0029 H       
  32 H32           -0.8390     3.7249    -0.0474 H       
  33 H33           -1.7336     5.8496    -1.1326 H       
  34 H34            1.6459     8.1363     1.6353 H       
  35 H35            1.6784     5.6833     1.4393 H       
  36 H36           -1.7607     8.3024    -0.9321 H       
  37 H37            3.4643    -2.4122    -0.8959 H       
  38 H38            3.4794    -2.4125     0.8840 H       
  39 H39            3.6754    -8.1937     0.1245 H       
  40 H40            3.5306    -6.8870     2.1597 H       
  41 H41            3.2328    -4.4569     2.0970 H       
@<TRIPOS>BOND
   1    1    2 ar
   2    1    6 ar
   3    1   28 1
   4    2    3 ar
   5    2   29 1
   6    3    4 ar
   7    3   15 1
   8    4    5 ar
   9    4   30 1
  10    5    6 ar
  11    5   31 1
  12    6    7 1
  13    7    8 2
  14    7    9 am
  15    9   10 1
  16    9   32 1
  17   10   11 ar
  18   10   13 ar
  19   11   16 ar
  20   11   33 1
  21   12   13 ar
  22   12   17 ar
  23   12   34 1
  24   13   35 1
  25   14   17 1
  26   15   18 1
  27   16   17 ar
  28   16   36 1
  29   18   19 1
  30   18   37 1
  31   18   38 1
  32   19   20 ar
  33   19   24 ar
  34   20   21 ar
  35   20   25 2
  36   21   22 ar
  37   21   27 2
  38   22   23 ar
  39   22   39 1
  40   23   24 ar
  41   23   40 1
  42   24   41 1
  43   25   26 1
  44   26   27 1

#	End of record

