#	Name: ASD01918193
#	Creating user name:	WinNT
#	Creation time:	15. 06. 2019 20:11

#	Modifying user name:	WinNT
#	Modification time:	15. 06. 2019 20:11

#	Program:	/corina/corina34_cracker 3.40 0067  02.08.2006

@<TRIPOS>MOLECULE
ASD01918193
  42   44    0    0    0
SMALL
NO_CHARGES


@<TRIPOS>ATOM
   1 C1            -0.0748     1.3932    -0.1632 C.ar    
   2 C2            -0.0658     0.0144    -0.1913 C.ar    
   3 C3             1.1351    -0.6733    -0.1907 C.ar    
   4 C4             2.3350     0.0158    -0.1621 C.ar    
   5 C5             2.3417     1.3946    -0.1338 C.ar    
   6 C6             1.1329     2.0959    -0.1346 C.ar    
   7 N7             1.1318     3.4626    -0.1072 N.2     
   8 N8             2.2483     4.1082    -0.0808 N.2     
   9 C9             2.2472     5.4727    -0.0534 C.ar    
  10 C10            3.4507     7.5549    -0.0029 C.ar    
  11 C11            3.4571     6.1742    -0.0306 C.ar    
  12 C12            1.0361     6.1727    -0.0539 C.ar    
  13 C13            1.0366     7.5499    -0.0261 C.ar    
  14 C14            2.2387     8.2471     0.0023 C.ar    
  15 O15            4.6251     8.2400     0.0198 O.3     
  16 C16            5.8271     7.4672     0.0134 C.3     
  17 N17            2.2339     9.6435     0.0309 N.am    
  18 C18            1.1738    10.3035     0.5379 C.2     
  19 O19            0.1925     9.6867     0.9048 O.2     
  20 C20            1.2042    11.7765     0.6476 C.ar    
  21 C21            2.3296    12.4882     0.2271 C.ar    
  22 C22            0.1048    12.4644     1.1674 C.ar    
  23 C23            0.1409    13.8418     1.2669 C.ar    
  24 C24            2.3515    13.8629     0.3324 C.ar    
  25 C25            1.2615    14.5385     0.8535 C.ar    
  26 Cl26          -1.3028    11.5908     1.6862 Cl      
  27 H27           -1.0127     1.9286    -0.1678 H       
  28 H28           -0.9983    -0.5300    -0.2134 H       
  29 H29            1.1360    -1.7531    -0.2124 H       
  30 H30            3.2683    -0.5276    -0.1614 H       
  31 H31            3.2788     1.9310    -0.1107 H       
  32 H32            4.3941     5.6372    -0.0344 H       
  33 H33            0.1007     5.6334    -0.0763 H       
  34 H34            0.1008     8.0891    -0.0268 H       
  35 H35            6.6884     8.1350     0.0333 H       
  36 H36            5.8482     6.8208     0.8907 H       
  37 H37            5.8616     6.8566    -0.8889 H       
  38 H38            2.9935    10.1383    -0.3142 H       
  39 H39            3.1813    11.9630    -0.1794 H       
  40 H40           -0.7080    14.3756     1.6680 H       
  41 H41            3.2216    14.4141     0.0074 H       
  42 H42            1.2844    15.6153     0.9331 H       
@<TRIPOS>BOND
   1    1    2 ar
   2    1    6 ar
   3    1   27 1
   4    2    3 ar
   5    2   28 1
   6    3    4 ar
   7    3   29 1
   8    4    5 ar
   9    4   30 1
  10    5    6 ar
  11    5   31 1
  12    6    7 1
  13    7    8 2
  14    8    9 1
  15    9   12 ar
  16    9   11 ar
  17   10   11 ar
  18   10   14 ar
  19   10   15 1
  20   11   32 1
  21   12   13 ar
  22   12   33 1
  23   13   14 ar
  24   13   34 1
  25   14   17 1
  26   15   16 1
  27   16   35 1
  28   16   36 1
  29   16   37 1
  30   17   18 am
  31   17   38 1
  32   18   19 2
  33   18   20 1
  34   20   21 ar
  35   20   22 ar
  36   21   24 ar
  37   21   39 1
  38   22   26 1
  39   22   23 ar
  40   23   25 ar
  41   23   40 1
  42   24   25 ar
  43   24   41 1
  44   25   42 1

#	End of record

