#	Name: ASD00731016
#	Creating user name:	WinNT
#	Creation time:	15. 06. 2019 18:37

#	Modifying user name:	WinNT
#	Modification time:	15. 06. 2019 18:37

#	Program:	/corina/corina34_cracker 3.40 0067  02.08.2006

@<TRIPOS>MOLECULE
ASD00731016
 237  237    0    0    0
SMALL
NO_CHARGES


@<TRIPOS>ATOM
   1 C1            -0.2017    -0.0484    -0.9348 C.2     
   2 O2            -0.3429    -1.2143    -1.2375 O.2     
   3 N3             2.1758    -0.4891    -1.1411 N.am    
   4 C4             1.1814     0.5411    -0.8313 C.3     
   5 C5            -3.6162     1.2464    -1.1025 C.2     
   6 O6            -3.2356     2.3923    -1.2160 O.2     
   7 N7            -1.2819     0.7215    -0.6963 N.am    
   8 C8            -2.6267     0.1500    -0.8028 C.3     
   9 C9            -2.9994    -0.5264     0.5180 C.3     
  10 O10           -3.0879     0.4588     1.5493 O.3     
  11 C11           -7.2536     1.6066    -1.0560 C.2     
  12 O12           -7.5202     0.4310    -0.9225 O.2     
  13 N13           -4.9240     0.9534    -1.2445 N.am    
  14 C14           -5.8860     2.0193    -1.5358 C.3     
  15 C15           -5.9287     2.2692    -3.0447 C.3     
  16 C16           -4.5404     2.6891    -3.5316 C.3     
  17 O17           -6.3264     1.0713    -3.7148 O.3     
  18 C18          -10.5240     2.9290    -1.2741 C.2     
  19 O19          -10.1168     3.7437    -2.0750 O.2     
  20 N20           -8.1805     2.5439    -0.7752 N.am    
  21 C21           -9.5483     2.1431    -0.4366 C.3     
  22 C22           -9.8090     2.4207     1.0453 C.3     
  23 C23           -8.8785     1.5835     1.8845 C.2     
  24 O24           -8.0552     0.8774     1.3520 O.2     
  25 O25           -8.9642     1.6224     3.2234 O.3     
  26 C26          -14.1231     3.5673    -1.2348 C.2     
  27 O27          -14.2620     3.0361    -0.1534 O.2     
  28 N28          -11.8490     2.7266    -1.1331 N.am    
  29 C29          -12.7974     3.4906    -1.9473 C.3     
  30 C30          -12.9839     2.7973    -3.2984 C.3     
  31 C31          -11.6659     2.8301    -4.0747 C.3     
  32 C32          -11.8523     2.1367    -5.4257 C.3     
  33 N33          -10.5903     2.1682    -6.1691 N.pl3   
  34 C34          -10.5147     1.6016    -7.4194 C.2     
  35 N35           -9.3918     1.6295    -8.0808 N.2     
  36 N36          -11.6234     1.0055    -7.9722 N.pl3   
  37 C37          -17.5439     4.5092    -2.1148 C.2     
  38 O38          -17.2780     4.5877    -3.2955 O.2     
  39 N39          -15.1544     4.2263    -1.7994 N.am    
  40 C40          -16.4432     4.3008    -1.1068 C.3     
  41 C41          -16.4257     5.4712    -0.1215 C.3     
  42 C42          -15.3926     5.2003     0.9740 C.3     
  43 C43          -15.2856     6.4227     1.8878 C.3     
  44 C44          -15.8277     3.9855     1.7962 C.3     
  45 C45          -21.0664     5.4816    -2.0161 C.2     
  46 O46          -21.0135     5.7627    -0.8375 O.2     
  47 N47          -18.8238     4.6083    -1.7042 N.am    
  48 C48          -19.8938     4.8109    -2.6841 C.3     
  49 C49          -20.3330     3.4576    -3.2468 C.3     
  50 C50          -19.1781     2.8326    -4.0319 C.3     
  51 C51          -19.6172     1.4793    -4.5946 C.3     
  52 N52          -18.5114     0.8809    -5.3464 N.pl3   
  53 C53          -18.6727    -0.3449    -5.9475 C.2     
  54 N54          -17.6889    -0.8773    -6.6164 N.2     
  55 N55          -19.8719    -1.0092    -5.8431 N.pl3   
  56 C56          -24.5766     6.0932    -2.8332 C.2     
  57 O57          -24.5291     5.3846    -3.8164 O.2     
  58 N58          -22.1739     5.7690    -2.7284 N.am    
  59 C59          -23.3137     6.4211    -2.0790 C.3     
  60 C60          -23.1006     7.9361    -2.0755 C.3     
  61 C61          -21.8891     8.2787    -1.2061 C.3     
  62 C62          -21.6760     9.7938    -1.2026 C.3     
  63 C63          -20.4645    10.1364    -0.3332 C.3     
  64 N64          -20.2598    11.5910    -0.3298 N.3     
  65 C65          -28.0081     7.3508    -2.9118 C.2     
  66 O66          -27.7374     8.2953    -2.2008 O.2     
  67 N67          -25.7587     6.5873    -2.4151 N.am    
  68 C68          -26.9864     6.2686    -3.1483 C.3     
  69 C69          -27.5397     4.9289    -2.6584 C.3     
  70 C70          -26.5560     3.8113    -3.0108 C.3     
  71 S71          -27.2121     2.2229    -2.4300 S.3     
  72 C72          -25.9284     1.0434    -2.9313 C.3     
  73 C73          -31.5994     7.7579    -3.4593 C.2     
  74 O74          -31.7418     6.5924    -3.7633 O.2     
  75 N75          -29.2226     7.2690    -3.4903 N.am    
  76 C76          -30.2158     8.3211    -3.2604 C.3     
  77 C77          -29.9843     9.4659    -4.2487 C.3     
  78 C78          -28.6504    10.1089    -3.9689 C.ar    
  79 C79          -27.5122     9.6422    -4.5996 C.ar    
  80 C80          -26.2887    10.2320    -4.3429 C.ar    
  81 C81          -26.2033    11.2888    -3.4560 C.ar    
  82 C82          -27.3415    11.7562    -2.8260 C.ar    
  83 C83          -28.5658    11.1692    -3.0859 C.ar    
  84 C84          -34.3816     8.0540    -4.9558 C.2     
  85 O85          -33.5941     8.5026    -5.7549 O.2     
  86 N86          -32.6786     8.5493    -3.2995 N.am    
  87 C87          -34.0236     8.0017    -3.4929 C.3     
  88 C88          -35.0309     8.8286    -2.6914 C.3     
  89 C89          -36.4149     8.1843    -2.7926 C.3     
  90 C90          -37.3956     8.9382    -1.8921 C.3     
  91 C91          -35.0875    10.2498    -3.2552 C.3     
  92 O92          -35.5754     7.6022    -5.3711 O.3     
  93 C93            3.4892    -0.1886    -1.1113 C.2     
  94 O94            3.8480     0.9348    -0.8280 O.2     
  95 C95           21.6109    -4.5906    -2.9596 C.3     
  96 C96           20.5724    -3.5147    -2.6360 C.3     
  97 C97           19.1682    -4.1132    -2.7411 C.3     
  98 C98           18.1297    -3.0372    -2.4175 C.3     
  99 C99           16.7255    -3.6357    -2.5226 C.3     
 100 C100          15.6870    -2.5597    -2.1990 C.3     
 101 C101          14.2829    -3.1582    -2.3041 C.3     
 102 C102          13.2443    -2.0823    -1.9805 C.3     
 103 C103          11.8402    -2.6808    -2.0856 C.3     
 104 C104          10.8017    -1.6048    -1.7620 C.3     
 105 C105           9.3975    -2.2033    -1.8671 C.3     
 106 C106           8.3590    -1.1273    -1.5435 C.3     
 107 C107           6.9548    -1.7258    -1.6485 C.3     
 108 C108           5.9163    -0.6499    -1.3250 C.3     
 109 C109           4.5121    -1.2483    -1.4300 C.3     
 110 H110           1.8888    -1.3876    -1.3677 H       
 111 H111           1.2791     1.3648    -1.5385 H       
 112 H112           1.3441     0.9104     0.1813 H       
 113 H113          -1.1690     1.6540    -0.4542 H       
 114 H114          -2.6459    -0.5864    -1.6062 H       
 115 H115          -3.9614    -1.0276     0.4107 H       
 116 H116          -2.2355    -1.2585     0.7796 H       
 117 H117          -3.3213     0.1005     2.4166 H       
 118 H118          -5.2284     0.0369    -1.1537 H       
 119 H119          -5.5820     2.9328    -1.0247 H       
 120 H120          -6.6450     3.0617    -3.2615 H       
 121 H121          -3.8482     1.8546    -3.4194 H       
 122 H122          -4.5953     2.9769    -4.5815 H       
 123 H123          -4.1887     3.5350    -2.9410 H       
 124 H124          -7.1992     0.7463    -3.4546 H       
 125 H125          -7.9419     3.4838    -0.7974 H       
 126 H126          -9.6746     1.0787    -0.6345 H       
 127 H127          -9.6351     3.4765     1.2532 H       
 128 H128         -10.8417     2.1683     1.2860 H       
 129 H129          -8.3461     1.0680     3.7192 H       
 130 H130         -12.1746     2.0750    -0.4926 H       
 131 H131         -12.4114     4.4976    -2.1059 H       
 132 H132         -13.2849     1.7621    -3.1371 H       
 133 H133         -13.7547     3.3151    -3.8692 H       
 134 H134         -11.3649     3.8652    -4.2360 H       
 135 H135         -10.8950     2.3123    -3.5039 H       
 136 H136         -12.1533     1.1016    -5.2644 H       
 137 H137         -12.6232     2.6545    -5.9965 H       
 138 H138          -9.8081     2.5887    -5.7790 H       
 139 H139          -9.3385     1.2298    -8.9630 H       
 140 H140         -12.4590     0.9847    -7.4801 H       
 141 H141         -11.5700     0.6058    -8.8544 H       
 142 H142         -15.0434     4.6511    -2.6643 H       
 143 H143         -16.6184     3.3718    -0.5643 H       
 144 H144         -16.1628     6.3874    -0.6502 H       
 145 H145         -17.4122     5.5819     0.3288 H       
 146 H146         -14.4228     5.0017     0.5177 H       
 147 H147         -16.2554     6.6213     2.3441 H       
 148 H148         -14.5495     6.2297     2.6682 H       
 149 H149         -14.9756     7.2882     1.3020 H       
 150 H150         -15.9039     3.1146     1.1452 H       
 151 H151         -15.0916     3.7925     2.5766 H       
 152 H152         -16.7974     4.1840     2.2524 H       
 153 H153         -19.0364     4.5456    -0.7599 H       
 154 H154         -19.5289     5.4406    -3.4956 H       
 155 H155         -20.6141     2.7970    -2.4266 H       
 156 H156         -21.1875     3.5992    -3.9085 H       
 157 H157         -18.8969     3.4932    -4.8522 H       
 158 H158         -18.3235     2.6910    -3.3703 H       
 159 H159         -19.8984     0.8188    -3.7744 H       
 160 H160         -20.4718     1.6210    -5.2563 H       
 161 H161         -17.6653     1.3496    -5.4200 H       
 162 H162         -17.8027    -1.7422    -7.0406 H       
 163 H163         -20.6041    -0.6130    -5.3454 H       
 164 H164         -19.9857    -1.8741    -6.2673 H       
 165 H165         -22.2162     5.5442    -3.6710 H       
 166 H166         -23.4003     6.0640    -1.0528 H       
 167 H167         -22.9255     8.2808    -3.0947 H       
 168 H168         -23.9869     8.4268    -1.6732 H       
 169 H169         -22.0642     7.9341    -0.1869 H       
 170 H170         -21.0028     7.7880    -1.6083 H       
 171 H171         -21.5009    10.1384    -2.2218 H       
 172 H172         -22.5623    10.2845    -0.8003 H       
 173 H173         -20.6396     9.7917     0.6860 H       
 174 H174         -19.5782     9.6457    -0.7355 H       
 175 H175         -21.0913    12.0725    -0.0217 H       
 176 H176         -19.4647    11.8430     0.2380 H       
 177 H177         -25.7967     7.1540    -1.6288 H       
 178 H178         -26.7665     6.2031    -4.2139 H       
 179 H179         -27.6761     4.9655    -1.5776 H       
 180 H180         -28.4984     4.7341    -3.1392 H       
 181 H181         -26.4197     3.7747    -4.0917 H       
 182 H182         -25.5974     4.0061    -2.5301 H       
 183 H183         -25.8077     1.0760    -4.0141 H       
 184 H184         -24.9854     1.3074    -2.4525 H       
 185 H185         -26.2206     0.0379    -2.6284 H       
 186 H186         -29.4390     6.5136    -4.0590 H       
 187 H187         -30.1191     8.6956    -2.2413 H       
 188 H188         -29.9929     9.0749    -5.2661 H       
 189 H189         -30.7755    10.2074    -4.1376 H       
 190 H190         -27.5789     8.8165    -5.2925 H       
 191 H191         -25.3994     9.8669    -4.8351 H       
 192 H192         -25.2472    11.7492    -3.2549 H       
 193 H193         -27.2748    12.5816    -2.1328 H       
 194 H194         -29.4557    11.5366    -2.5966 H       
 195 H195         -32.5647     9.4814    -3.0564 H       
 196 H196         -34.0476     6.9675    -3.1497 H       
 197 H197         -34.7223     8.8642    -1.6466 H       
 198 H198         -36.7618     8.2288    -3.8250 H       
 199 H199         -36.3554     7.1436    -2.4739 H       
 200 H200         -37.4551     9.9789    -2.2109 H       
 201 H201         -38.3816     8.4792    -1.9642 H       
 202 H202         -37.0487     8.8937    -0.8598 H       
 203 H203         -35.3962    10.2142    -4.3000 H       
 204 H204         -35.8052    10.8389    -2.6842 H       
 205 H205         -34.1015    10.7088    -3.1831 H       
 206 H206         -35.7599     7.6564    -6.3188 H       
 207 H207          21.5131    -5.4143    -2.2524 H       
 208 H208          21.4481    -4.9599    -3.9722 H       
 209 H209          22.6112    -4.1643    -2.8847 H       
 210 H210          20.7351    -3.1454    -1.6235 H       
 211 H211          20.6701    -2.6910    -3.3432 H       
 212 H212          19.0055    -4.4824    -3.7536 H       
 213 H213          19.0705    -4.9368    -2.0339 H       
 214 H214          18.2924    -2.6680    -1.4050 H       
 215 H215          18.2274    -2.2135    -3.1247 H       
 216 H216          16.5628    -4.0049    -3.5351 H       
 217 H217          16.6278    -4.4594    -1.8154 H       
 218 H218          15.8498    -2.1905    -1.1864 H       
 219 H219          15.7848    -1.7361    -2.9062 H       
 220 H220          14.1201    -3.5275    -3.3166 H       
 221 H221          14.1851    -3.9819    -1.5969 H       
 222 H222          13.4071    -1.7130    -0.9679 H       
 223 H223          13.3421    -1.2586    -2.6877 H       
 224 H224          11.6774    -3.0500    -3.0981 H       
 225 H225          11.7424    -3.5044    -1.3784 H       
 226 H226          10.9644    -1.2356    -0.7494 H       
 227 H227          10.8994    -0.7811    -2.4692 H       
 228 H228           9.2347    -2.5725    -2.8796 H       
 229 H229           9.2998    -3.0270    -1.1599 H       
 230 H230           8.5217    -0.7581    -0.5309 H       
 231 H231           8.4567    -0.3037    -2.2507 H       
 232 H232           6.7921    -2.0951    -2.6611 H       
 233 H233           6.8571    -2.5495    -0.9414 H       
 234 H234           6.0791    -0.2806    -0.3124 H       
 235 H235           6.0140     0.1738    -2.0322 H       
 236 H236           4.4144    -2.0720    -0.7228 H       
 237 H237           4.3494    -1.6176    -2.4426 H       
@<TRIPOS>BOND
   1    1    2 2
   2    1    4 1
   3    1    7 am
   4    3    4 1
   5    3   93 am
   6    3  110 1
   7    4  111 1
   8    4  112 1
   9    5    6 2
  10    5    8 1
  11    5   13 am
  12    7    8 1
  13    7  113 1
  14    8    9 1
  15    8  114 1
  16    9   10 1
  17    9  115 1
  18    9  116 1
  19   10  117 1
  20   11   12 2
  21   11   14 1
  22   11   20 am
  23   13   14 1
  24   13  118 1
  25   14   15 1
  26   14  119 1
  27   15   16 1
  28   15   17 1
  29   15  120 1
  30   16  121 1
  31   16  122 1
  32   16  123 1
  33   17  124 1
  34   18   19 2
  35   18   21 1
  36   18   28 am
  37   20   21 1
  38   20  125 1
  39   21   22 1
  40   21  126 1
  41   22   23 1
  42   22  127 1
  43   22  128 1
  44   23   24 2
  45   23   25 1
  46   25  129 1
  47   26   27 2
  48   26   29 1
  49   26   39 am
  50   28   29 1
  51   28  130 1
  52   29   30 1
  53   29  131 1
  54   30   31 1
  55   30  132 1
  56   30  133 1
  57   31   32 1
  58   31  134 1
  59   31  135 1
  60   32   33 1
  61   32  136 1
  62   32  137 1
  63   33   34 1
  64   33  138 1
  65   34   35 2
  66   34   36 1
  67   35  139 1
  68   36  140 1
  69   36  141 1
  70   37   38 2
  71   37   40 1
  72   37   47 am
  73   39   40 1
  74   39  142 1
  75   40   41 1
  76   40  143 1
  77   41   42 1
  78   41  144 1
  79   41  145 1
  80   42   43 1
  81   42   44 1
  82   42  146 1
  83   43  147 1
  84   43  148 1
  85   43  149 1
  86   44  150 1
  87   44  151 1
  88   44  152 1
  89   45   46 2
  90   45   48 1
  91   45   58 am
  92   47   48 1
  93   47  153 1
  94   48   49 1
  95   48  154 1
  96   49   50 1
  97   49  155 1
  98   49  156 1
  99   50   51 1
 100   50  157 1
 101   50  158 1
 102   51   52 1
 103   51  159 1
 104   51  160 1
 105   52   53 1
 106   52  161 1
 107   53   54 2
 108   53   55 1
 109   54  162 1
 110   55  163 1
 111   55  164 1
 112   56   57 2
 113   56   59 1
 114   56   67 am
 115   58   59 1
 116   58  165 1
 117   59   60 1
 118   59  166 1
 119   60   61 1
 120   60  167 1
 121   60  168 1
 122   61   62 1
 123   61  169 1
 124   61  170 1
 125   62   63 1
 126   62  171 1
 127   62  172 1
 128   63   64 1
 129   63  173 1
 130   63  174 1
 131   64  175 1
 132   64  176 1
 133   65   66 2
 134   65   68 1
 135   65   75 am
 136   67   68 1
 137   67  177 1
 138   68   69 1
 139   68  178 1
 140   69   70 1
 141   69  179 1
 142   69  180 1
 143   70   71 1
 144   70  181 1
 145   70  182 1
 146   71   72 1
 147   72  183 1
 148   72  184 1
 149   72  185 1
 150   73   74 2
 151   73   76 1
 152   73   86 am
 153   75   76 1
 154   75  186 1
 155   76   77 1
 156   76  187 1
 157   77   78 1
 158   77  188 1
 159   77  189 1
 160   78   79 ar
 161   78   83 ar
 162   79   80 ar
 163   79  190 1
 164   80   81 ar
 165   80  191 1
 166   81   82 ar
 167   81  192 1
 168   82   83 ar
 169   82  193 1
 170   83  194 1
 171   84   85 2
 172   84   87 1
 173   84   92 1
 174   86   87 1
 175   86  195 1
 176   87   88 1
 177   87  196 1
 178   88   89 1
 179   88   91 1
 180   88  197 1
 181   89   90 1
 182   89  198 1
 183   89  199 1
 184   90  200 1
 185   90  201 1
 186   90  202 1
 187   91  203 1
 188   91  204 1
 189   91  205 1
 190   92  206 1
 191   93   94 2
 192   93  109 1
 193   95   96 1
 194   95  207 1
 195   95  208 1
 196   95  209 1
 197   96   97 1
 198   96  210 1
 199   96  211 1
 200   97   98 1
 201   97  212 1
 202   97  213 1
 203   98   99 1
 204   98  214 1
 205   98  215 1
 206   99  100 1
 207   99  216 1
 208   99  217 1
 209  100  101 1
 210  100  218 1
 211  100  219 1
 212  101  102 1
 213  101  220 1
 214  101  221 1
 215  102  103 1
 216  102  222 1
 217  102  223 1
 218  103  104 1
 219  103  224 1
 220  103  225 1
 221  104  105 1
 222  104  226 1
 223  104  227 1
 224  105  106 1
 225  105  228 1
 226  105  229 1
 227  106  107 1
 228  106  230 1
 229  106  231 1
 230  107  108 1
 231  107  232 1
 232  107  233 1
 233  108  109 1
 234  108  234 1
 235  108  235 1
 236  109  236 1
 237  109  237 1

#	End of record

