#	Name: ASD01810713
#	Creating user name:	WinNT
#	Creation time:	15. 06. 2019 19:25

#	Modifying user name:	WinNT
#	Modification time:	15. 06. 2019 19:25

#	Program:	/corina/corina34_cracker 3.40 0067  02.08.2006

@<TRIPOS>MOLECULE
ASD01810713
  36   36    0    0    0
SMALL
NO_CHARGES


@<TRIPOS>ATOM
   1 N1             0.1470     1.2271     0.3257 N.am    
   2 N2             0.0734    -0.1638     0.1741 N.2     
   3 C3             1.3478     1.8324     0.4168 C.2     
   4 O4             1.4116     3.0387     0.5483 O.2     
   5 O5             2.4768     1.1003     0.3620 O.3     
   6 C6            -2.2303    -0.1513     0.9651 C.3     
   7 C7            -1.0627    -0.7525     0.2122 C.2     
   8 C8            -1.2836    -2.0738    -0.4951 C.3     
   9 C9            -1.9646    -3.0309     0.4921 C.3     
  10 C10           -3.1982    -2.3438     1.0830 C.3     
  11 O11           -2.8048    -1.1683     1.7930 O.3     
  12 C12           -1.7403     1.0069     1.8367 C.3     
  13 C13            3.7341     1.8189     0.4665 C.3     
  14 C14            3.7887     2.5593     1.8043 C.3     
  15 C15            4.8965     0.8275     0.3845 C.3     
  16 C16            3.8420     2.8272    -0.6792 C.3     
  17 H17           -0.6661     1.7548     0.3611 H       
  18 H18           -2.9762     0.2110     0.2576 H       
  19 H19           -1.9239    -1.9240    -1.3644 H       
  20 H20           -0.3257    -2.4884    -0.8092 H       
  21 H21           -2.2677    -3.9384    -0.0301 H       
  22 H22           -1.2697    -3.2842     1.2927 H       
  23 H23           -3.8804    -2.0696     0.2783 H       
  24 H24           -3.7017    -3.0280     1.7659 H       
  25 H25           -1.8016     1.9374     1.2724 H       
  26 H26           -2.3641     1.0804     2.7275 H       
  27 H27           -0.7062     0.8278     2.1310 H       
  28 H28            3.7118     1.8410     2.6206 H       
  29 H29            4.7326     3.0988     1.8828 H       
  30 H30            2.9606     3.2657     1.8627 H       
  31 H31            4.8576     0.3000    -0.5685 H       
  32 H32            5.8404     1.3669     0.4630 H       
  33 H33            4.8197     0.1092     1.2008 H       
  34 H34            3.0139     3.5335    -0.6208 H       
  35 H35            4.7859     3.3667    -0.6007 H       
  36 H36            3.8031     2.2997    -1.6323 H       
@<TRIPOS>BOND
   1    1    2 1
   2    1    3 am
   3    1   17 1
   4    2    7 2
   5    3    4 2
   6    3    5 1
   7    5   13 1
   8    6    7 1
   9    6   11 1
  10    6   12 1
  11    6   18 1
  12    7    8 1
  13    8    9 1
  14    8   19 1
  15    8   20 1
  16    9   10 1
  17    9   21 1
  18    9   22 1
  19   10   11 1
  20   10   23 1
  21   10   24 1
  22   12   25 1
  23   12   26 1
  24   12   27 1
  25   13   14 1
  26   13   16 1
  27   13   15 1
  28   14   28 1
  29   14   29 1
  30   14   30 1
  31   15   31 1
  32   15   32 1
  33   15   33 1
  34   16   34 1
  35   16   35 1
  36   16   36 1

#	End of record

