#	Name: ASD01916145
#	Creating user name:	WinNT
#	Creation time:	15. 06. 2019 20:06

#	Modifying user name:	WinNT
#	Modification time:	15. 06. 2019 20:06

#	Program:	/corina/corina34_cracker 3.40 0067  02.08.2006

@<TRIPOS>MOLECULE
ASD01916145
  45   48    0    0    0
SMALL
NO_CHARGES


@<TRIPOS>ATOM
   1 C1             0.0783     1.3897    -0.0548 C.ar    
   2 C2             0.0834     0.0082    -0.0550 C.ar    
   3 C3             1.2881    -0.6798    -0.0530 C.ar    
   4 C4             2.4849     0.0218    -0.0508 C.ar    
   5 C5             2.4744     1.4032    -0.0506 C.ar    
   6 C6             1.2725     2.0866    -0.0525 C.ar    
   7 O7             1.2957    -2.0388    -0.0528 O.3     
   8 C8             2.5726    -2.6803    -0.0507 C.3     
   9 C9             2.3836    -4.1754    -0.0508 C.2     
  10 C10            1.1546    -4.8474    -0.0526 C.2     
  11 N11            3.3405    -5.0702    -0.0549 N.2     
  12 N12            2.7521    -6.3378    -0.0578 N.pl3   
  13 C13            1.4096    -6.1694    -0.0513 C.2     
  14 C14            3.4349    -7.6344    -0.0754 C.3     
  15 C15            2.4617    -8.7242     0.3871 C.3     
  16 N16            1.1723    -8.5445    -0.2974 N.am    
  17 C17            0.4153    -7.3063    -0.0382 C.3     
  18 C18            0.6971    -9.4825    -1.1404 C.2     
  19 C19           -0.6582    -9.3419    -1.7149 C.ar    
  20 O20            1.3826   -10.4441    -1.4285 O.2     
  21 C21           -0.9145    -9.7767    -3.0168 C.ar    
  22 C22           -3.2012    -9.0837    -2.8099 C.ar    
  23 C23           -2.9579    -8.6511    -1.5038 C.ar    
  24 C24           -1.6830    -8.7806    -0.9560 C.ar    
  25 C25           -2.1816    -9.6455    -3.5559 C.ar    
  26 F26           -2.4237   -10.0675    -4.8162 F       
  27 C27           -4.0146    -8.0694    -0.7321 C.1     
  28 N28           -4.8529    -7.6079    -0.1199 N.1     
  29 H29           -0.8592     1.9258    -0.0608 H       
  30 H30           -0.8496    -0.5357    -0.0563 H       
  31 H31            3.4240    -0.5116    -0.0489 H       
  32 H32            3.4059     1.9498    -0.0485 H       
  33 H33            1.2664     3.1666    -0.0523 H       
  34 H34            3.1293    -2.3845    -0.9399 H       
  35 H35            3.1266    -2.3842     0.8400 H       
  36 H36            0.1774    -4.3874    -0.0546 H       
  37 H37            3.7729    -7.8541    -1.0881 H       
  38 H38            4.2926    -7.6033     0.5966 H       
  39 H39            2.8701    -9.7047     0.1426 H       
  40 H40            2.3155    -8.6483     1.4646 H       
  41 H41           -0.0678    -7.3631     0.9372 H       
  42 H42           -0.3330    -7.1581    -0.8168 H       
  43 H43           -0.1218   -10.2160    -3.6042 H       
  44 H44           -4.1887    -8.9839    -3.2356 H       
  45 H45           -1.4902    -8.4474     0.0530 H       
@<TRIPOS>BOND
   1    1    2 ar
   2    1    6 ar
   3    1   29 1
   4    2    3 ar
   5    2   30 1
   6    3    4 ar
   7    3    7 1
   8    4    5 ar
   9    4   31 1
  10    5    6 ar
  11    5   32 1
  12    6   33 1
  13    7    8 1
  14    8    9 1
  15    8   34 1
  16    8   35 1
  17    9   10 1
  18    9   11 2
  19   10   13 2
  20   10   36 1
  21   11   12 1
  22   12   13 1
  23   12   14 1
  24   13   17 1
  25   14   15 1
  26   14   37 1
  27   14   38 1
  28   15   16 1
  29   15   39 1
  30   15   40 1
  31   16   17 1
  32   16   18 am
  33   17   41 1
  34   17   42 1
  35   18   19 1
  36   18   20 2
  37   19   21 ar
  38   19   24 ar
  39   21   25 ar
  40   21   43 1
  41   22   23 ar
  42   22   25 ar
  43   22   44 1
  44   23   24 ar
  45   23   27 1
  46   24   45 1
  47   25   26 1
  48   27   28 3

#	End of record

