#	Name: ASD02560390
#	Creating user name:	WinNT
#	Creation time:	15. 06. 2019 20:25

#	Modifying user name:	WinNT
#	Modification time:	15. 06. 2019 20:25

#	Program:	/corina/corina34_cracker 3.40 0067  02.08.2006

@<TRIPOS>MOLECULE
ASD02560390
  60   64    0    0    0
SMALL
NO_CHARGES


@<TRIPOS>ATOM
   1 C1             0.1360     1.3884     1.1095 C.2     
   2 C2             0.1568    -0.0178     1.0953 C.2     
   3 C3             1.2853    -0.6795     0.7696 C.2     
   4 N4             2.4256     0.0055     0.4484 N.pl3   
   5 C5             2.4350     1.3814     0.4533 C.2     
   6 C6             1.2604     2.0839     0.7924 C.2     
   7 C7             3.6809    -0.4021     0.0877 C.2     
   8 C8             4.4202     0.7171    -0.1173 C.2     
   9 N9             3.6476     1.7856     0.1093 N.2     
  10 C10            5.8691     0.7509    -0.5304 C.3     
  11 N11            4.1201    -1.7252    -0.0446 N.3     
  12 C12            2.9997    -2.6669     0.0813 C.3     
  13 C13            3.3441    -3.9692    -0.6442 C.3     
  14 C14            5.9623     0.7694    -2.0344 C.ar    
  15 C15            5.9808     1.9757    -2.7100 C.ar    
  16 C16            2.7435    -2.9598     1.5610 C.3     
  17 C17            1.5766    -3.9406     1.6922 C.3     
  18 C18            1.9210    -5.2429     0.9667 C.3     
  19 C19            2.1772    -4.9500    -0.5130 C.3     
  20 C20            6.0349    -0.4197    -2.7361 C.ar    
  21 C21            6.1209    -0.4055    -4.1148 C.ar    
  22 C22            6.1343     0.8034    -4.7953 C.ar    
  23 C23            6.0662     1.9953    -4.0886 C.ar    
  24 O24            6.2192     0.8201    -6.1515 O.3     
  25 C25            6.3262     1.9219    -8.2784 C.ar    
  26 C26            5.1769     1.8107    -9.0383 C.ar    
  27 C27            5.2669     1.6523   -10.4086 C.ar    
  28 C28            6.5063     1.6054   -11.0190 C.ar    
  29 C29            7.6557     1.7174   -10.2591 C.ar    
  30 C30            7.5656     1.8745    -8.8887 C.ar    
  31 C31            6.2279     2.1009    -6.7853 C.3     
  32 H32           -0.7715     1.9141     1.3671 H       
  33 H33           -0.7362    -0.5706     1.3471 H       
  34 H34            1.2895    -1.7594     0.7624 H       
  35 H35            1.2538     3.1638     0.7999 H       
  36 H36            6.3414     1.6462    -0.1261 H       
  37 H37            6.3773    -0.1333    -0.1458 H       
  38 H38            4.6082    -1.8586    -0.9176 H       
  39 H39            2.1056    -2.2292    -0.3626 H       
  40 H40            3.5266    -3.7605    -1.6984 H       
  41 H41            4.2383    -4.4069    -0.2003 H       
  42 H42            5.9281     2.9033    -2.1594 H       
  43 H43            3.6377    -3.3975     2.0048 H       
  44 H44            2.4982    -2.0320     2.0778 H       
  45 H45            1.3941    -4.1493     2.7463 H       
  46 H46            0.6825    -3.5029     1.2483 H       
  47 H47            2.8152    -5.6806     1.4105 H       
  48 H48            1.0897    -5.9417     1.0601 H       
  49 H49            1.2830    -4.5123    -0.9569 H       
  50 H50            2.4225    -5.8778    -1.0299 H       
  51 H51            6.0248    -1.3606    -2.2058 H       
  52 H52            6.1779    -1.3346    -4.6624 H       
  53 H53            6.0765     2.9377    -4.6161 H       
  54 H54            4.2085     1.8474    -8.5614 H       
  55 H55            4.3689     1.5647   -11.0022 H       
  56 H56            6.5767     1.4808   -12.0895 H       
  57 H57            8.6240     1.6800   -10.7359 H       
  58 H58            8.4636     1.9613    -8.2950 H       
  59 H59            5.3078     2.6325    -6.5429 H       
  60 H60            7.0837     2.6757    -6.4311 H       
@<TRIPOS>BOND
   1    1    2 1
   2    1    6 2
   3    1   32 1
   4    2    3 2
   5    2   33 1
   6    3    4 1
   7    3   34 1
   8    4    5 1
   9    4    7 1
  10    5    6 1
  11    5    9 2
  12    6   35 1
  13    7    8 2
  14    7   11 1
  15    8    9 1
  16    8   10 1
  17   10   14 1
  18   10   36 1
  19   10   37 1
  20   11   12 1
  21   11   38 1
  22   12   13 1
  23   12   16 1
  24   12   39 1
  25   13   19 1
  26   13   40 1
  27   13   41 1
  28   14   15 ar
  29   14   20 ar
  30   15   23 ar
  31   15   42 1
  32   16   17 1
  33   16   43 1
  34   16   44 1
  35   17   18 1
  36   17   45 1
  37   17   46 1
  38   18   19 1
  39   18   47 1
  40   18   48 1
  41   19   49 1
  42   19   50 1
  43   20   21 ar
  44   20   51 1
  45   21   22 ar
  46   21   52 1
  47   22   23 ar
  48   22   24 1
  49   23   53 1
  50   24   31 1
  51   25   26 ar
  52   25   30 ar
  53   25   31 1
  54   26   27 ar
  55   26   54 1
  56   27   28 ar
  57   27   55 1
  58   28   29 ar
  59   28   56 1
  60   29   30 ar
  61   29   57 1
  62   30   58 1
  63   31   59 1
  64   31   60 1

#	End of record

