#	Name: ASD05420025
#	Creating user name:	WinNT
#	Creation time:	15. 06. 2019 20:59

#	Modifying user name:	WinNT
#	Modification time:	15. 06. 2019 20:59

#	Program:	/corina/corina34_cracker 3.40 0067  02.08.2006

@<TRIPOS>MOLECULE
ASD05420025
  42   43    0    0    0
SMALL
NO_CHARGES


@<TRIPOS>ATOM
   1 C1            -0.1030     1.2034    -0.5875 C.2     
   2 N2             0.0021    -0.0041     0.0020 N.am    
   3 O3             0.8584     1.6915    -1.1482 O.2     
   4 O4            -1.2748     1.8664    -0.5600 O.3     
   5 C5             1.1963    -0.7356    -0.1037 C.ar    
   6 C6             1.1746    -2.1262     0.0030 C.ar    
   7 C7             2.3549    -2.8453    -0.1023 C.ar    
   8 C8             3.5551    -2.1797    -0.3136 C.ar    
   9 C9             3.5731    -0.7953    -0.4188 C.ar    
  10 C10            2.3962    -0.0767    -0.3198 C.ar    
  11 N11            4.7470    -2.9044    -0.4200 N.pl3   
  12 C12            6.0135    -2.2026    -0.6429 C.3     
  13 C13            7.1364    -3.2048    -0.7193 C.ar    
  14 C14            7.4917    -3.7524    -1.9379 C.ar    
  15 C15            8.5216    -4.6712    -2.0093 C.ar    
  16 C16            9.1976    -5.0431    -0.8596 C.ar    
  17 C17            8.8409    -4.4940     0.3603 C.ar    
  18 C18            7.8142    -3.5714     0.4285 C.ar    
  19 F19           10.2043    -5.9416    -0.9281 F       
  20 N20            2.3360    -4.3211     0.0109 N.pl3   
  21 O21            2.1877    -5.0064    -0.9850 O.2     
  22 O22            2.4688    -4.8501     1.1000 O.2     
  23 N23           -0.0361    -2.7938     0.2163 N.pl3   
  24 C24           -1.3149     3.1615    -1.2153 C.3     
  25 C25           -2.7175     3.7579    -1.0807 C.3     
  26 H26           -0.7471    -0.3678     0.4993 H       
  27 H27            4.5076    -0.2792    -0.5824 H       
  28 H28            2.4125     0.9997    -0.4065 H       
  29 H29            4.7349    -3.8715    -0.3462 H       
  30 H30            5.9602    -1.6448    -1.5778 H       
  31 H31            6.1970    -1.5135     0.1814 H       
  32 H32            6.9640    -3.4624    -2.8345 H       
  33 H33            8.7987    -5.0991    -2.9613 H       
  34 H34            9.3676    -4.7834     1.2577 H       
  35 H35            7.5385    -3.1399     1.3793 H       
  36 H36           -0.8615    -2.2897     0.2902 H       
  37 H37           -0.0501    -3.7609     0.2904 H       
  38 H38           -0.5903     3.8280    -0.7474 H       
  39 H39           -1.0704     3.0424    -2.2708 H       
  40 H40           -3.4421     3.0915    -1.5486 H       
  41 H41           -2.9619     3.8770    -0.0252 H       
  42 H42           -2.7476     4.7302    -1.5726 H       
@<TRIPOS>BOND
   1    1    2 am
   2    1    3 2
   3    1    4 1
   4    2    5 1
   5    2   26 1
   6    4   24 1
   7    5    6 ar
   8    5   10 ar
   9    6    7 ar
  10    6   23 1
  11    7    8 ar
  12    7   20 1
  13    8    9 ar
  14    8   11 1
  15    9   10 ar
  16    9   27 1
  17   10   28 1
  18   11   12 1
  19   11   29 1
  20   12   13 1
  21   12   30 1
  22   12   31 1
  23   13   14 ar
  24   13   18 ar
  25   14   15 ar
  26   14   32 1
  27   15   16 ar
  28   15   33 1
  29   16   17 ar
  30   16   19 1
  31   17   18 ar
  32   17   34 1
  33   18   35 1
  34   20   21 2
  35   20   22 2
  36   23   36 1
  37   23   37 1
  38   24   25 1
  39   24   38 1
  40   24   39 1
  41   25   40 1
  42   25   41 1
  43   25   42 1

#	End of record

