#	Name: ASD03900045
#	Creating user name:	WinNT
#	Creation time:	15. 06. 2019 20:47

#	Modifying user name:	WinNT
#	Modification time:	15. 06. 2019 20:47

#	Program:	/corina/corina34_cracker 3.40 0067  02.08.2006

@<TRIPOS>MOLECULE
ASD03900045
  52   54    0    0    0
SMALL
NO_CHARGES


@<TRIPOS>ATOM
   1 C1            -0.0184     1.5028     0.0103 C.3     
   2 C2             0.1575     0.0279    -0.2442 C.ar    
   3 C3             1.3139     2.1962    -0.1133 C.ar    
   4 C4             1.5729     3.3331     0.6292 C.ar    
   5 C5             2.2791     1.6922    -0.9649 C.ar    
   6 C6             3.5011     2.3282    -1.0783 C.ar    
   7 C7             3.7579     3.4686    -0.3404 C.ar    
   8 C8             2.7949     3.9692     0.5158 C.ar    
   9 C9             0.2991    -0.8437     0.8200 C.ar    
  10 C10            0.1712    -0.4516    -1.5412 C.ar    
  11 C11            0.3321    -1.8026    -1.7780 C.ar    
  12 C12            0.4804    -2.6802    -0.7115 C.ar    
  13 C13            0.4605    -2.1960     0.5903 C.ar    
  14 N14            0.6433    -4.0472    -0.9474 N.pl3   
  15 C15           -0.9786     2.0759    -0.9999 C.ar    
  16 C16           -0.5220     2.4513    -2.2501 C.ar    
  17 C17           -1.3992     2.9773    -3.1780 C.ar    
  18 C18           -2.7416     3.1285    -2.8546 C.ar    
  19 C19           -3.1970     2.7500    -1.5981 C.ar    
  20 C20           -2.3154     2.2199    -0.6767 C.ar    
  21 N21           -3.6314     3.6606    -3.7906 N.pl3   
  22 C22           -3.1493     4.0597    -5.1152 C.3     
  23 C23           -5.0469     3.8194    -3.4478 C.3     
  24 O24           -0.5379     1.7004     1.3268 O.3     
  25 C25            0.6580    -4.5569    -2.3208 C.3     
  26 C26            0.7995    -4.9713     0.1786 C.3     
  27 H27            0.8203     3.7246     1.2976 H       
  28 H28            2.0785     0.8012    -1.5415 H       
  29 H29            4.2554     1.9340    -1.7432 H       
  30 H30            4.7128     3.9653    -0.4287 H       
  31 H31            2.9955     4.8601     1.0923 H       
  32 H32            0.2839    -0.4665     1.8319 H       
  33 H33            0.0555     0.2313    -2.3699 H       
  34 H34            0.3424    -2.1764    -2.7912 H       
  35 H35            0.5758    -2.8756     1.4218 H       
  36 H36            0.5219     2.3334    -2.5008 H       
  37 H37           -1.0418     3.2709    -4.1540 H       
  38 H38           -4.2400     2.8666    -1.3433 H       
  39 H39           -2.6688     1.9253     0.3005 H       
  40 H40           -3.2217     3.2135    -5.7984 H       
  41 H41           -3.7575     4.8828    -5.4904 H       
  42 H42           -2.1099     4.3799    -5.0422 H       
  43 H43           -5.1403     4.4835    -2.5886 H       
  44 H44           -5.5806     4.2464    -4.2968 H       
  45 H45           -5.4728     2.8464    -3.2030 H       
  46 H46           -1.3957     1.2804     1.4782 H       
  47 H47            1.6807    -4.5556    -2.6979 H       
  48 H48            0.2669    -5.5742    -2.3350 H       
  49 H49            0.0374    -3.9202    -2.9513 H       
  50 H50           -0.0819    -4.9176     0.8177 H       
  51 H51            0.9134    -5.9876    -0.1986 H       
  52 H52            1.6831    -4.6963     0.7545 H       
@<TRIPOS>BOND
   1    1    2 1
   2    1    3 1
   3    1   15 1
   4    1   24 1
   5    2    9 ar
   6    2   10 ar
   7    3    4 ar
   8    3    5 ar
   9    4    8 ar
  10    4   27 1
  11    5    6 ar
  12    5   28 1
  13    6    7 ar
  14    6   29 1
  15    7    8 ar
  16    7   30 1
  17    8   31 1
  18    9   13 ar
  19    9   32 1
  20   10   11 ar
  21   10   33 1
  22   11   12 ar
  23   11   34 1
  24   12   13 ar
  25   12   14 1
  26   13   35 1
  27   14   25 1
  28   14   26 1
  29   15   16 ar
  30   15   20 ar
  31   16   17 ar
  32   16   36 1
  33   17   18 ar
  34   17   37 1
  35   18   19 ar
  36   18   21 1
  37   19   20 ar
  38   19   38 1
  39   20   39 1
  40   21   22 1
  41   21   23 1
  42   22   40 1
  43   22   41 1
  44   22   42 1
  45   23   43 1
  46   23   44 1
  47   23   45 1
  48   24   46 1
  49   25   47 1
  50   25   48 1
  51   25   49 1
  52   26   50 1
  53   26   51 1
  54   26   52 1

#	End of record

