#	Name: ASD07300269
#	Creating user name:	WinNT
#	Creation time:	15. 06. 2019 21:09

#	Modifying user name:	WinNT
#	Modification time:	15. 06. 2019 21:09

#	Program:	/corina/corina34_cracker 3.40 0067  02.08.2006

@<TRIPOS>MOLECULE
ASD07300269
  27   28    0    0    0
SMALL
NO_CHARGES


@<TRIPOS>ATOM
   1 C1            -0.0184     1.5028     0.0103 C.2     
   2 C2             0.0021    -0.0041     0.0020 C.3     
   3 O3             1.0197     2.1211     0.0037 O.2     
   4 O4            -1.1898     2.1580     0.0194 O.3     
   5 C5             2.1687    -0.7395     1.1051 C.ar    
   6 C6             3.4158    -1.1610     0.6334 C.ar    
   7 C7             4.4059    -1.5038     1.5419 C.ar    
   8 C8             4.1145    -1.4133     2.8953 C.ar    
   9 C9             2.8601    -0.9889     3.2910 C.ar    
  10 N10            1.9366    -0.6684     2.4054 N.ar    
  11 C11            2.1236    -0.7200    -1.1148 C.2     
  12 N12            1.3897    -0.4735    -0.0138 N.am    
  13 N13            3.3548    -1.1317    -0.7565 N.am    
  14 O14            1.7352    -0.5862    -2.2602 O.2     
  15 C15           -1.1335     3.6089     0.0270 C.3     
  16 C16           -2.5551     4.1744     0.0369 C.3     
  17 H17           -0.4983    -0.3791     0.8948 H       
  18 H18           -0.5153    -0.3696    -0.8850 H       
  19 H19            5.3778    -1.8329     1.2049 H       
  20 H20            4.8603    -1.6723     3.6323 H       
  21 H21            2.6320    -0.9184     4.3443 H       
  22 H22            4.0730    -1.3719    -1.3626 H       
  23 H23           -0.6017     3.9472     0.9164 H       
  24 H24           -0.6102     3.9569    -0.8636 H       
  25 H25           -3.0869     3.8361    -0.8525 H       
  26 H26           -3.0784     3.8265     0.9275 H       
  27 H27           -2.5128     5.2636     0.0426 H       
@<TRIPOS>BOND
   1    1    2 1
   2    1    3 2
   3    1    4 1
   4    2   12 1
   5    2   17 1
   6    2   18 1
   7    4   15 1
   8    5    6 ar
   9    5   10 ar
  10    5   12 1
  11    6    7 ar
  12    6   13 1
  13    7    8 ar
  14    7   19 1
  15    8    9 ar
  16    8   20 1
  17    9   10 ar
  18    9   21 1
  19   11   12 am
  20   11   13 am
  21   11   14 2
  22   13   22 1
  23   15   16 1
  24   15   23 1
  25   15   24 1
  26   16   25 1
  27   16   26 1
  28   16   27 1

#	End of record

