#	Name: ASD02610030
#	Creating user name:	WinNT
#	Creation time:	15. 06. 2019 20:25

#	Modifying user name:	WinNT
#	Modification time:	15. 06. 2019 20:25

#	Program:	/corina/corina34_cracker 3.40 0067  02.08.2006

@<TRIPOS>MOLECULE
ASD02610030
 101  104    0    0    0
SMALL
NO_CHARGES


@<TRIPOS>ATOM
   1 C1             0.7758     1.0977    -0.3001 C.3     
   2 C2             1.3855    -0.3136    -0.4804 C.3     
   3 C3             2.7646    -0.0650    -1.0451 C.2     
   4 C4             3.1290     1.1851    -0.8766 C.2     
   5 C5             2.0505     1.9522    -0.1655 C.3     
   6 C6             4.4251     1.7693    -1.3731 C.3     
   7 C7             4.8740     2.9272    -0.5075 C.3     
   8 C8             4.1884     4.2319    -0.7741 C.3     
   9 C9             2.8645     4.3520    -0.0641 C.3     
  10 C10            1.8548     3.3573    -0.6135 C.3     
  11 O11            0.5901    -1.0933    -1.4119 O.3     
  12 C12            3.6120    -1.1157    -1.7151 C.3     
  13 O13           -0.0315     1.1689     0.9048 O.3     
  14 H14            2.3127     1.9830     0.8920 H       
  15 O15            0.5262     3.7849    -0.2130 O.3     
  16 C16            1.9262     3.3911    -2.1414 C.3     
  17 O17            3.9703     4.3590    -2.1806 O.3     
  18 O18            5.4990     0.8159    -1.2915 O.3     
  19 C19            6.7240     1.5771    -1.3073 C.3     
  20 C20            6.3938     2.9875    -0.7691 C.3     
  21 O21            4.6618     2.5812     0.8626 O.3     
  22 C22           -1.3389     0.8920     0.7795 C.2     
  23 C23           -2.2395     0.9456     1.9866 C.3     
  24 C24           -3.6690     0.5905     1.5726 C.3     
  25 C25           -4.5833     0.6449     2.7982 C.3     
  26 C26           -6.0128     0.2898     2.3842 C.3     
  27 C27           -6.9271     0.3443     3.6097 C.3     
  28 O28           -1.7937     0.5998    -0.3011 O.2     
  29 O29            6.6966     3.9833    -1.7483 O.3     
  30 C30           -8.3566    -0.0108     3.1957 C.3     
  31 C31           -9.2709     0.0436     4.4212 C.3     
  32 C32            7.1537     3.2596     0.5307 C.3     
  33 C33            0.2907     3.8886     1.1043 C.2     
  34 C34           -1.0234     4.4407     1.5937 C.3     
  35 O35            1.1322     3.5393     1.8979 O.2     
  36 H36            4.3075     2.1038    -2.4038 H       
  37 C37            7.2559     1.6774    -2.7384 C.3     
  38 O38            7.6959     0.9514    -0.4672 O.3     
  39 C39            0.5693    -2.4232    -1.2309 C.2     
  40 C40           -0.2345    -3.2974    -2.1586 C.3     
  41 O41            1.1950    -2.9193    -0.3241 O.2     
  42 C42           -0.0881    -4.7604    -1.7353 C.3     
  43 C43           -0.9041    -5.6480    -2.6772 C.3     
  44 C44           -0.7600    -7.0890    -2.2602 C.ar    
  45 C45           -1.6464    -7.6358    -1.3505 C.ar    
  46 C46           -1.5171    -8.9560    -0.9662 C.ar    
  47 C47           -0.4953    -9.7347    -1.4945 C.ar    
  48 C48            0.3933    -9.1822    -2.4081 C.ar    
  49 C49            0.2549    -7.8629    -2.7924 C.ar    
  50 N50           -0.3615   -11.0701    -1.1077 N.pl3   
  51 H51            0.1972     1.3906    -1.1762 H       
  52 H52            1.4547    -0.8233     0.4807 H       
  53 H53            4.8379     5.0437    -0.4465 H       
  54 H54            3.0108     4.1623     0.9993 H       
  55 H55            2.4786     5.3628    -0.1961 H       
  56 H56            3.0750    -2.0642    -1.7242 H       
  57 H57            3.8273    -0.8103    -2.7390 H       
  58 H58            4.5467    -1.2327    -1.1667 H       
  59 H59            1.0490     2.8954    -2.5572 H       
  60 H60            1.9536     4.4265    -2.4810 H       
  61 H61            2.8270     2.8756    -2.4746 H       
  62 H62            3.5290     5.1802    -2.4376 H       
  63 H63            5.0738     1.7469     1.1260 H       
  64 H64           -1.8896     0.2324     2.7329 H       
  65 H65           -2.2224     1.9506     2.4084 H       
  66 H66           -4.0189     1.3038     0.8263 H       
  67 H67           -3.6861    -0.4144     1.1509 H       
  68 H68           -4.2334    -0.0683     3.5445 H       
  69 H69           -4.5662     1.6499     3.2199 H       
  70 H70           -6.3627     1.0031     1.6378 H       
  71 H71           -6.0299    -0.7151     1.9624 H       
  72 H72           -6.5772    -0.3690     4.3560 H       
  73 H73           -6.9100     1.3492     4.0314 H       
  74 H74            7.6390     4.0627    -1.9501 H       
  75 H75           -8.7065     0.7024     2.4494 H       
  76 H76           -8.3737    -1.0158     2.7740 H       
  77 H77          -10.2893    -0.2094     4.1263 H       
  78 H78           -8.9210    -0.6697     5.1676 H       
  79 H79           -9.2538     1.0485     4.8430 H       
  80 H80            6.9498     2.4616     1.2446 H       
  81 H81            8.2234     3.2984     0.3249 H       
  82 H82            6.8293     4.2126     0.9486 H       
  83 H83           -1.8385     3.8157     1.2288 H       
  84 H84           -1.0311     4.4481     2.6836 H       
  85 H85           -1.1511     5.4575     1.2225 H       
  86 H86            6.5058     2.1500    -3.3725 H       
  87 H87            8.1672     2.2753    -2.7462 H       
  88 H88            7.4735     0.6783    -3.1160 H       
  89 H89            7.9381     0.0571    -0.7443 H       
  90 H90           -1.2845    -3.0088    -2.1112 H       
  91 H91            0.1299    -3.1762    -3.1787 H       
  92 H92            0.9619    -5.0491    -1.7827 H       
  93 H93           -0.4525    -4.8816    -0.7152 H       
  94 H94           -1.9541    -5.3593    -2.6297 H       
  95 H95           -0.5397    -5.5268    -3.6973 H       
  96 H96           -2.4404    -7.0297    -0.9398 H       
  97 H97           -2.2095    -9.3824    -0.2554 H       
  98 H98            1.1888    -9.7849    -2.8208 H       
  99 H99            0.9452    -7.4328    -3.5029 H       
 100 H100          -0.9824   -11.4547    -0.4694 H       
 101 H101           0.3524   -11.6129    -1.4773 H       
@<TRIPOS>BOND
   1    1    2 1
   2    1    5 1
   3    1   13 1
   4    1   51 1
   5    2    3 1
   6    2   11 1
   7    2   52 1
   8    3    4 2
   9    3   12 1
  10    4    5 1
  11    4    6 1
  12    5   10 1
  13    5   14 1
  14    6    7 1
  15    6   18 1
  16    6   36 1
  17    7   20 1
  18    7   21 1
  19    7    8 1
  20    8    9 1
  21    8   17 1
  22    8   53 1
  23    9   10 1
  24    9   54 1
  25    9   55 1
  26   10   15 1
  27   10   16 1
  28   11   39 1
  29   12   56 1
  30   12   57 1
  31   12   58 1
  32   13   22 1
  33   15   33 1
  34   16   59 1
  35   16   60 1
  36   16   61 1
  37   17   62 1
  38   18   19 1
  39   19   20 1
  40   19   37 1
  41   19   38 1
  42   20   29 1
  43   20   32 1
  44   21   63 1
  45   22   23 1
  46   22   28 2
  47   23   24 1
  48   23   64 1
  49   23   65 1
  50   24   25 1
  51   24   66 1
  52   24   67 1
  53   25   26 1
  54   25   68 1
  55   25   69 1
  56   26   27 1
  57   26   70 1
  58   26   71 1
  59   27   30 1
  60   27   72 1
  61   27   73 1
  62   29   74 1
  63   30   31 1
  64   30   75 1
  65   30   76 1
  66   31   77 1
  67   31   78 1
  68   31   79 1
  69   32   80 1
  70   32   81 1
  71   32   82 1
  72   33   34 1
  73   33   35 2
  74   34   83 1
  75   34   84 1
  76   34   85 1
  77   37   86 1
  78   37   87 1
  79   37   88 1
  80   38   89 1
  81   39   40 1
  82   39   41 2
  83   40   42 1
  84   40   90 1
  85   40   91 1
  86   42   43 1
  87   42   92 1
  88   42   93 1
  89   43   44 1
  90   43   94 1
  91   43   95 1
  92   44   45 ar
  93   44   49 ar
  94   45   46 ar
  95   45   96 1
  96   46   47 ar
  97   46   97 1
  98   47   48 ar
  99   47   50 1
 100   48   49 ar
 101   48   98 1
 102   49   99 1
 103   50  100 1
 104   50  101 1

#	End of record

