#	Name: ASD01811792
#	Creating user name:	WinNT
#	Creation time:	15. 06. 2019 19:27

#	Modifying user name:	WinNT
#	Modification time:	15. 06. 2019 19:27

#	Program:	/corina/corina34_cracker 3.40 0067  02.08.2006

@<TRIPOS>MOLECULE
ASD01811792
  58   61    0    0    0
SMALL
NO_CHARGES


@<TRIPOS>ATOM
   1 C1            -0.0624     1.2598    -0.4687 C.2     
   2 N2             0.0097    -0.0338    -0.1017 N.am    
   3 C3             1.2039    -0.6622     0.0123 C.2     
   4 C4             2.3686    -0.0114    -0.2384 C.2     
   5 C5             2.3528     1.3296    -0.6216 C.2     
   6 C6             1.1277     1.9825    -0.7419 C.2     
   7 C7            -1.2235    -0.7731     0.1792 C.3     
   8 C8             1.2406    -2.1109     0.4258 C.3     
   9 O9            -1.1468     1.8068    -0.5707 O.2     
  10 C10            1.0692     3.3959    -1.1445 C.2     
  11 N11           -0.1222     3.9819    -1.3760 N.am    
  12 O12            2.0962     4.0360    -1.2686 O.2     
  13 C13           -0.1768     5.3555    -1.8826 C.3     
  14 C14            3.6812    -0.7390    -0.1020 C.3     
  15 C15            4.2649    -0.4708     1.2612 C.ar    
  16 C16            5.0028     0.6784     1.4809 C.ar    
  17 C17            4.0561    -1.3720     2.2897 C.ar    
  18 C18            4.5879    -1.1313     3.5402 C.ar    
  19 C19            5.3369     0.0222     3.7658 C.ar    
  20 C20            5.5397     0.9292     2.7273 C.ar    
  21 C21           -1.5666     7.4275    -2.0142 C.3     
  22 C22           -1.5096     5.9930    -1.4852 C.3     
  23 C23           -0.0524     5.3420    -3.4075 C.3     
  24 C24           -0.1095     6.7765    -3.9365 C.3     
  25 C25           -1.4423     7.4140    -3.5391 C.3     
  26 O26           -1.6257     6.0056    -0.0610 O.3     
  27 C27            5.9110     0.2864     5.1078 C.2     
  28 C28            6.6439     1.3827     5.3893 C.2     
  29 S29            7.1203     1.2944     7.0832 S.3     
  30 C30            6.2969    -0.1940     7.2507 C.2     
  31 N31            5.7442    -0.5313     6.1372 N.2     
  32 H32            3.2756     1.8537    -0.8220 H       
  33 H33           -2.0814    -0.1155     0.0385 H       
  34 H34           -1.3011    -1.6219    -0.5002 H       
  35 H35           -1.2057    -1.1319     1.2083 H       
  36 H36            0.2316    -2.4459     0.6661 H       
  37 H37            1.6380    -2.7122    -0.3920 H       
  38 H38            1.8789    -2.2226     1.3023 H       
  39 H39           -0.9435     3.4942    -1.2072 H       
  40 H40            0.6436     5.9328    -1.4563 H       
  41 H41            3.5172    -1.8099    -0.2227 H       
  42 H42            4.3723    -0.3886    -0.8685 H       
  43 H43            5.1593     1.3806     0.6754 H       
  44 H44            3.4755    -2.2655     2.1138 H       
  45 H45            4.4236    -1.8352     4.3427 H       
  46 H46            6.1153     1.8270     2.8977 H       
  47 H47           -2.5162     7.8817    -1.7311 H       
  48 H48           -0.7463     8.0049    -1.5879 H       
  49 H49           -2.3300     5.4157    -1.9115 H       
  50 H50            0.8971     4.8878    -3.6906 H       
  51 H51           -0.8728     4.7646    -3.8338 H       
  52 H52            0.7109     7.3538    -3.5102 H       
  53 H53           -0.0209     6.7668    -5.0229 H       
  54 H54           -2.2627     6.8366    -3.9654 H       
  55 H55           -1.4829     8.4360    -3.9160 H       
  56 H56           -2.4486     6.3968     0.2631 H       
  57 H57            6.8944     2.1745     4.6989 H       
  58 H58            6.2435    -0.7687     8.1635 H       
@<TRIPOS>BOND
   1    1    2 am
   2    1    6 1
   3    1    9 2
   4    2    3 1
   5    2    7 1
   6    3    4 2
   7    3    8 1
   8    4    5 1
   9    4   14 1
  10    5    6 2
  11    5   32 1
  12    6   10 1
  13    7   33 1
  14    7   34 1
  15    7   35 1
  16    8   36 1
  17    8   37 1
  18    8   38 1
  19   10   11 am
  20   10   12 2
  21   11   13 1
  22   11   39 1
  23   13   23 1
  24   13   22 1
  25   13   40 1
  26   14   15 1
  27   14   41 1
  28   14   42 1
  29   15   17 ar
  30   15   16 ar
  31   16   20 ar
  32   16   43 1
  33   17   18 ar
  34   17   44 1
  35   18   19 ar
  36   18   45 1
  37   19   20 ar
  38   19   27 1
  39   20   46 1
  40   21   22 1
  41   21   25 1
  42   21   47 1
  43   21   48 1
  44   22   26 1
  45   22   49 1
  46   23   24 1
  47   23   50 1
  48   23   51 1
  49   24   25 1
  50   24   52 1
  51   24   53 1
  52   25   54 1
  53   25   55 1
  54   26   56 1
  55   27   28 2
  56   27   31 1
  57   28   29 1
  58   28   57 1
  59   29   30 1
  60   30   31 2
  61   30   58 1

#	End of record

