#	Name: ASD00731028
#	Creating user name:	WinNT
#	Creation time:	15. 06. 2019 18:37

#	Modifying user name:	WinNT
#	Modification time:	15. 06. 2019 18:37

#	Program:	/corina/corina34_cracker 3.40 0067  02.08.2006

@<TRIPOS>MOLECULE
ASD00731028
 261  263    0    0    0
SMALL
NO_CHARGES


@<TRIPOS>ATOM
   1 C1            -0.2017    -0.0484    -0.9348 C.2     
   2 O2            -0.3429    -1.2143    -1.2375 O.2     
   3 N3             2.1758    -0.4891    -1.1411 N.am    
   4 C4             1.1814     0.5411    -0.8313 C.3     
   5 C5            -3.6162     1.2464    -1.1025 C.2     
   6 O6            -3.2356     2.3923    -1.2160 O.2     
   7 N7            -1.2819     0.7215    -0.6963 N.am    
   8 C8            -2.6267     0.1500    -0.8028 C.3     
   9 C9            -2.9994    -0.5264     0.5180 C.3     
  10 O10           -3.0879     0.4588     1.5493 O.3     
  11 C11           -7.2536     1.6066    -1.0560 C.2     
  12 O12           -7.5202     0.4310    -0.9225 O.2     
  13 N13           -4.9240     0.9534    -1.2445 N.am    
  14 C14           -5.8860     2.0193    -1.5358 C.3     
  15 C15           -5.9287     2.2692    -3.0447 C.3     
  16 C16           -4.5404     2.6891    -3.5316 C.3     
  17 O17           -6.3264     1.0713    -3.7148 O.3     
  18 C18          -10.5240     2.9290    -1.2741 C.2     
  19 O19          -10.1168     3.7437    -2.0750 O.2     
  20 N20           -8.1805     2.5439    -0.7752 N.am    
  21 C21           -9.5483     2.1431    -0.4366 C.3     
  22 C22           -9.8090     2.4207     1.0453 C.3     
  23 C23           -8.8785     1.5835     1.8845 C.2     
  24 O24           -8.0552     0.8774     1.3520 O.2     
  25 O25           -8.9642     1.6224     3.2234 O.3     
  26 C26          -14.1231     3.5673    -1.2348 C.2     
  27 O27          -14.2620     3.0361    -0.1534 O.2     
  28 N28          -11.8490     2.7266    -1.1331 N.am    
  29 C29          -12.7974     3.4906    -1.9473 C.3     
  30 C30          -12.9839     2.7973    -3.2984 C.3     
  31 C31          -11.6659     2.8301    -4.0747 C.3     
  32 C32          -11.8523     2.1367    -5.4257 C.3     
  33 N33          -10.5903     2.1682    -6.1691 N.pl3   
  34 C34          -10.5147     1.6016    -7.4194 C.2     
  35 N35          -11.5658     1.0365    -7.9435 N.2     
  36 N36           -9.3303     1.6311    -8.1170 N.pl3   
  37 C37          -17.5439     4.5092    -2.1148 C.2     
  38 O38          -17.2780     4.5877    -3.2955 O.2     
  39 N39          -15.1544     4.2263    -1.7994 N.am    
  40 C40          -16.4432     4.3008    -1.1068 C.3     
  41 C41          -16.4257     5.4712    -0.1215 C.3     
  42 C42          -15.3926     5.2003     0.9740 C.3     
  43 C43          -15.2856     6.4227     1.8878 C.3     
  44 C44          -15.8277     3.9855     1.7962 C.3     
  45 C45          -21.0664     5.4816    -2.0161 C.2     
  46 O46          -21.0135     5.7627    -0.8375 O.2     
  47 N47          -18.8238     4.6083    -1.7042 N.am    
  48 C48          -19.8938     4.8109    -2.6841 C.3     
  49 C49          -20.3330     3.4576    -3.2468 C.3     
  50 C50          -19.1781     2.8326    -4.0319 C.3     
  51 C51          -19.6172     1.4793    -4.5946 C.3     
  52 N52          -18.5114     0.8809    -5.3464 N.pl3   
  53 C53          -18.6727    -0.3449    -5.9475 C.2     
  54 N54          -19.8096    -0.9747    -5.8486 N.2     
  55 N55          -17.6350    -0.9065    -6.6531 N.pl3   
  56 C56          -24.5766     6.0932    -2.8332 C.2     
  57 O57          -24.5291     5.3846    -3.8164 O.2     
  58 N58          -22.1739     5.7690    -2.7284 N.am    
  59 C59          -23.3137     6.4211    -2.0790 C.3     
  60 C60          -23.1006     7.9361    -2.0755 C.3     
  61 C61          -21.8891     8.2787    -1.2061 C.3     
  62 C62          -21.6760     9.7938    -1.2026 C.3     
  63 C63          -20.4645    10.1364    -0.3332 C.3     
  64 N64          -20.2598    11.5910    -0.3298 N.3     
  65 C65          -28.0081     7.3508    -2.9118 C.2     
  66 O66          -27.7374     8.2953    -2.2008 O.2     
  67 N67          -25.7587     6.5873    -2.4151 N.am    
  68 C68          -26.9864     6.2686    -3.1483 C.3     
  69 C69          -27.5397     4.9289    -2.6584 C.3     
  70 C70          -26.5708     3.8281    -3.0055 C.2     
  71 C71          -26.6113     3.0423    -4.0931 C.2     
  72 N72          -25.5676     2.1578    -4.0688 N.pl3   
  73 C73          -24.8108     2.3578    -2.9361 C.ar    
  74 C74          -23.6664     1.7510    -2.4296 C.ar    
  75 C75          -23.1305     2.1880    -1.2377 C.ar    
  76 C76          -23.7214     3.2291    -0.5354 C.ar    
  77 C77          -24.8465     3.8392    -1.0145 C.ar    
  78 C78          -25.4026     3.4168    -2.2232 C.ar    
  79 C79          -31.5994     7.7579    -3.4593 C.2     
  80 O80          -31.7418     6.5924    -3.7633 O.2     
  81 N81          -29.2226     7.2690    -3.4903 N.am    
  82 C82          -30.2158     8.3211    -3.2604 C.3     
  83 C83          -29.9843     9.4659    -4.2487 C.3     
  84 C84          -28.6300    10.1187    -3.9646 C.3     
  85 S85          -28.3555    11.4761    -5.1364 S.3     
  86 C86          -26.7289    12.1137    -4.6483 C.3     
  87 C87          -34.9697     9.1137    -3.8660 C.2     
  88 O88          -34.5608    10.2516    -3.9610 O.2     
  89 N89          -32.6786     8.5493    -3.2995 N.am    
  90 C90          -34.0236     8.0017    -3.4929 C.3     
  91 C91          -34.4973     7.3427    -2.1959 C.3     
  92 C92          -33.6234     6.1541    -1.8881 C.ar    
  93 C93          -32.4854     6.3134    -1.1197 C.ar    
  94 C94          -31.6838     5.2232    -0.8374 C.ar    
  95 C95          -32.0205     3.9735    -1.3232 C.ar    
  96 C96          -33.1590     3.8140    -2.0908 C.ar    
  97 C97          -33.9629     4.9035    -2.3695 C.ar    
  98 C98          -37.6976    10.5937    -3.2054 C.2     
  99 O99          -37.3288    10.2071    -2.1217 O.2     
 100 N100         -36.2703     8.8438    -4.0941 N.am    
 101 C101         -37.1902     9.9248    -4.4568 C.3     
 102 C102         -38.3704     9.3484    -5.2415 C.3     
 103 C103         -39.2660    10.4899    -5.7273 C.3     
 104 C104         -40.3759     9.9245    -6.6158 C.3     
 105 C105         -39.1782     8.4163    -4.3362 C.3     
 106 O106         -38.5594    11.6190    -3.2946 O.3     
 107 C107           3.4892    -0.1886    -1.1113 C.2     
 108 O108           3.8480     0.9348    -0.8280 O.2     
 109 C109          21.6109    -4.5906    -2.9596 C.3     
 110 C110          20.5724    -3.5147    -2.6360 C.3     
 111 C111          19.1682    -4.1132    -2.7411 C.3     
 112 C112          18.1297    -3.0372    -2.4175 C.3     
 113 C113          16.7255    -3.6357    -2.5226 C.3     
 114 C114          15.6870    -2.5597    -2.1990 C.3     
 115 C115          14.2829    -3.1582    -2.3041 C.3     
 116 C116          13.2443    -2.0823    -1.9805 C.3     
 117 C117          11.8402    -2.6808    -2.0856 C.3     
 118 C118          10.8017    -1.6048    -1.7620 C.3     
 119 C119           9.3975    -2.2033    -1.8671 C.3     
 120 C120           8.3590    -1.1273    -1.5435 C.3     
 121 C121           6.9548    -1.7258    -1.6485 C.3     
 122 C122           5.9163    -0.6499    -1.3250 C.3     
 123 C123           4.5121    -1.2483    -1.4300 C.3     
 124 H124           1.8888    -1.3876    -1.3677 H       
 125 H125           1.2791     1.3648    -1.5385 H       
 126 H126           1.3441     0.9104     0.1813 H       
 127 H127          -1.1690     1.6540    -0.4542 H       
 128 H128          -2.6459    -0.5864    -1.6062 H       
 129 H129          -3.9614    -1.0276     0.4107 H       
 130 H130          -2.2355    -1.2585     0.7796 H       
 131 H131          -3.3213     0.1005     2.4166 H       
 132 H132          -5.2284     0.0369    -1.1537 H       
 133 H133          -5.5820     2.9328    -1.0247 H       
 134 H134          -6.6450     3.0617    -3.2615 H       
 135 H135          -3.8482     1.8546    -3.4194 H       
 136 H136          -4.5953     2.9769    -4.5815 H       
 137 H137          -4.1887     3.5350    -2.9410 H       
 138 H138          -7.1992     0.7463    -3.4546 H       
 139 H139          -7.9419     3.4838    -0.7974 H       
 140 H140          -9.6746     1.0787    -0.6345 H       
 141 H141          -9.6351     3.4765     1.2532 H       
 142 H142         -10.8417     2.1683     1.2860 H       
 143 H143          -8.3461     1.0680     3.7192 H       
 144 H144         -12.1746     2.0750    -0.4926 H       
 145 H145         -12.4114     4.4976    -2.1059 H       
 146 H146         -13.2849     1.7621    -3.1371 H       
 147 H147         -13.7547     3.3151    -3.8692 H       
 148 H148         -11.3649     3.8652    -4.2360 H       
 149 H149         -10.8950     2.3123    -3.5039 H       
 150 H150         -12.1533     1.1016    -5.2644 H       
 151 H151         -12.6232     2.6545    -5.9965 H       
 152 H152          -9.8081     2.5887    -5.7790 H       
 153 H153         -11.5125     0.6367    -8.8257 H       
 154 H154          -8.5481     2.0516    -7.7270 H       
 155 H155          -9.2770     1.2313    -8.9992 H       
 156 H156         -15.0434     4.6511    -2.6643 H       
 157 H157         -16.6184     3.3718    -0.5643 H       
 158 H158         -16.1628     6.3874    -0.6502 H       
 159 H159         -17.4122     5.5819     0.3288 H       
 160 H160         -14.4228     5.0017     0.5177 H       
 161 H161         -16.2554     6.6213     2.3441 H       
 162 H162         -14.5495     6.2297     2.6682 H       
 163 H163         -14.9756     7.2882     1.3020 H       
 164 H164         -15.9039     3.1146     1.1452 H       
 165 H165         -15.0916     3.7925     2.5766 H       
 166 H166         -16.7974     4.1840     2.2524 H       
 167 H167         -19.0364     4.5456    -0.7599 H       
 168 H168         -19.5289     5.4406    -3.4956 H       
 169 H169         -20.6141     2.7970    -2.4266 H       
 170 H170         -21.1875     3.5992    -3.9085 H       
 171 H171         -18.8969     3.4932    -4.8522 H       
 172 H172         -18.3235     2.6910    -3.3703 H       
 173 H173         -19.8984     0.8188    -3.7744 H       
 174 H174         -20.4718     1.6210    -5.2563 H       
 175 H175         -17.6653     1.3496    -5.4200 H       
 176 H176         -19.9235    -1.8396    -6.2727 H       
 177 H177         -16.7889    -0.4378    -6.7267 H       
 178 H178         -17.7488    -1.7714    -7.0772 H       
 179 H179         -22.2162     5.5442    -3.6710 H       
 180 H180         -23.4003     6.0640    -1.0528 H       
 181 H181         -22.9255     8.2808    -3.0947 H       
 182 H182         -23.9869     8.4268    -1.6732 H       
 183 H183         -22.0642     7.9341    -0.1869 H       
 184 H184         -21.0028     7.7880    -1.6083 H       
 185 H185         -21.5009    10.1384    -2.2218 H       
 186 H186         -22.5623    10.2845    -0.8003 H       
 187 H187         -20.6396     9.7917     0.6860 H       
 188 H188         -19.5782     9.6457    -0.7355 H       
 189 H189         -19.4647    11.8430     0.2380 H       
 190 H190         -20.1595    11.9442    -1.2697 H       
 191 H191         -25.7967     7.1540    -1.6288 H       
 192 H192         -26.7665     6.2031    -4.2139 H       
 193 H193         -27.6761     4.9655    -1.5776 H       
 194 H194         -28.4984     4.7341    -3.1392 H       
 195 H195         -27.3573     3.0996    -4.8719 H       
 196 H196         -25.3877     1.4894    -4.7484 H       
 197 H197         -23.1994     0.9399    -2.9685 H       
 198 H198         -22.2421     1.7153    -0.8458 H       
 199 H199         -23.2888     3.5596     0.3973 H       
 200 H200         -25.3010     4.6485    -0.4624 H       
 201 H201         -29.4390     6.5136    -4.0590 H       
 202 H202         -30.1191     8.6956    -2.2413 H       
 203 H203         -29.9929     9.0749    -5.2661 H       
 204 H204         -30.7755    10.2074    -4.1376 H       
 205 H205         -28.6214    10.5097    -2.9472 H       
 206 H206         -27.8388     9.3773    -4.0757 H       
 207 H207         -26.7678    12.4548    -3.6138 H       
 208 H208         -25.9852    11.3224    -4.7422 H       
 209 H209         -26.4562    12.9472    -5.2956 H       
 210 H210         -32.5647     9.4814    -3.0564 H       
 211 H211         -34.0024     7.2596    -4.2909 H       
 212 H212         -34.4339     8.0615    -1.3789 H       
 213 H213         -35.5301     7.0141    -2.3115 H       
 214 H214         -32.2224     7.2897    -0.7403 H       
 215 H215         -30.7943     5.3478    -0.2377 H       
 216 H216         -31.3938     3.1219    -1.1032 H       
 217 H217         -33.4219     2.8378    -2.4705 H       
 218 H218         -34.8544     4.7783    -2.9661 H       
 219 H219         -36.5974     7.9338    -4.0181 H       
 220 H220         -36.6667    10.6559    -5.0729 H       
 221 H221         -37.9977     8.7887    -6.0994 H       
 222 H222         -39.7093    10.9944    -4.8688 H       
 223 H223         -38.6699    11.2012    -6.2989 H       
 224 H224         -40.9719     9.2131    -6.0441 H       
 225 H225         -41.0139    10.7377    -6.9619 H       
 226 H226         -39.9326     9.4199    -7.4742 H       
 227 H227         -39.5509     8.9761    -3.4784 H       
 228 H228         -40.0190     8.0057    -4.8952 H       
 229 H229         -38.5402     7.6032    -3.9901 H       
 230 H230         -38.8569    12.0159    -2.4646 H       
 231 H231          21.5131    -5.4143    -2.2524 H       
 232 H232          21.4481    -4.9599    -3.9722 H       
 233 H233          22.6112    -4.1643    -2.8847 H       
 234 H234          20.7351    -3.1454    -1.6235 H       
 235 H235          20.6701    -2.6910    -3.3432 H       
 236 H236          19.0055    -4.4824    -3.7536 H       
 237 H237          19.0705    -4.9368    -2.0339 H       
 238 H238          18.2924    -2.6680    -1.4050 H       
 239 H239          18.2274    -2.2135    -3.1247 H       
 240 H240          16.5628    -4.0049    -3.5351 H       
 241 H241          16.6278    -4.4594    -1.8154 H       
 242 H242          15.8498    -2.1905    -1.1864 H       
 243 H243          15.7848    -1.7361    -2.9062 H       
 244 H244          14.1201    -3.5275    -3.3166 H       
 245 H245          14.1851    -3.9819    -1.5969 H       
 246 H246          13.4071    -1.7130    -0.9679 H       
 247 H247          13.3421    -1.2586    -2.6877 H       
 248 H248          11.6774    -3.0500    -3.0981 H       
 249 H249          11.7424    -3.5044    -1.3784 H       
 250 H250          10.9644    -1.2356    -0.7494 H       
 251 H251          10.8994    -0.7811    -2.4692 H       
 252 H252           9.2347    -2.5725    -2.8796 H       
 253 H253           9.2998    -3.0270    -1.1599 H       
 254 H254           8.5217    -0.7581    -0.5309 H       
 255 H255           8.4567    -0.3037    -2.2507 H       
 256 H256           6.7921    -2.0951    -2.6611 H       
 257 H257           6.8571    -2.5495    -0.9414 H       
 258 H258           6.0791    -0.2806    -0.3124 H       
 259 H259           6.0140     0.1738    -2.0322 H       
 260 H260           4.4144    -2.0720    -0.7228 H       
 261 H261           4.3494    -1.6176    -2.4426 H       
@<TRIPOS>BOND
   1    1    2 2
   2    1    4 1
   3    1    7 am
   4    3    4 1
   5    3  107 am
   6    3  124 1
   7    4  125 1
   8    4  126 1
   9    5    6 2
  10    5    8 1
  11    5   13 am
  12    7    8 1
  13    7  127 1
  14    8    9 1
  15    8  128 1
  16    9   10 1
  17    9  129 1
  18    9  130 1
  19   10  131 1
  20   11   12 2
  21   11   14 1
  22   11   20 am
  23   13   14 1
  24   13  132 1
  25   14   15 1
  26   14  133 1
  27   15   16 1
  28   15   17 1
  29   15  134 1
  30   16  135 1
  31   16  136 1
  32   16  137 1
  33   17  138 1
  34   18   19 2
  35   18   21 1
  36   18   28 am
  37   20   21 1
  38   20  139 1
  39   21   22 1
  40   21  140 1
  41   22   23 1
  42   22  141 1
  43   22  142 1
  44   23   24 2
  45   23   25 1
  46   25  143 1
  47   26   27 2
  48   26   29 1
  49   26   39 am
  50   28   29 1
  51   28  144 1
  52   29   30 1
  53   29  145 1
  54   30   31 1
  55   30  146 1
  56   30  147 1
  57   31   32 1
  58   31  148 1
  59   31  149 1
  60   32   33 1
  61   32  150 1
  62   32  151 1
  63   33   34 1
  64   33  152 1
  65   34   35 2
  66   34   36 1
  67   35  153 1
  68   36  154 1
  69   36  155 1
  70   37   38 2
  71   37   40 1
  72   37   47 am
  73   39   40 1
  74   39  156 1
  75   40   41 1
  76   40  157 1
  77   41   42 1
  78   41  158 1
  79   41  159 1
  80   42   43 1
  81   42   44 1
  82   42  160 1
  83   43  161 1
  84   43  162 1
  85   43  163 1
  86   44  164 1
  87   44  165 1
  88   44  166 1
  89   45   46 2
  90   45   48 1
  91   45   58 am
  92   47   48 1
  93   47  167 1
  94   48   49 1
  95   48  168 1
  96   49   50 1
  97   49  169 1
  98   49  170 1
  99   50   51 1
 100   50  171 1
 101   50  172 1
 102   51   52 1
 103   51  173 1
 104   51  174 1
 105   52   53 1
 106   52  175 1
 107   53   54 2
 108   53   55 1
 109   54  176 1
 110   55  177 1
 111   55  178 1
 112   56   57 2
 113   56   59 1
 114   56   67 am
 115   58   59 1
 116   58  179 1
 117   59   60 1
 118   59  180 1
 119   60   61 1
 120   60  181 1
 121   60  182 1
 122   61   62 1
 123   61  183 1
 124   61  184 1
 125   62   63 1
 126   62  185 1
 127   62  186 1
 128   63   64 1
 129   63  187 1
 130   63  188 1
 131   64  189 1
 132   64  190 1
 133   65   66 2
 134   65   68 1
 135   65   81 am
 136   67   68 1
 137   67  191 1
 138   68   69 1
 139   68  192 1
 140   69   70 1
 141   69  193 1
 142   69  194 1
 143   70   71 2
 144   70   78 1
 145   71   72 1
 146   71  195 1
 147   72   73 1
 148   72  196 1
 149   73   74 ar
 150   73   78 ar
 151   74   75 ar
 152   74  197 1
 153   75   76 ar
 154   75  198 1
 155   76   77 ar
 156   76  199 1
 157   77   78 ar
 158   77  200 1
 159   79   80 2
 160   79   82 1
 161   79   89 am
 162   81   82 1
 163   81  201 1
 164   82   83 1
 165   82  202 1
 166   83   84 1
 167   83  203 1
 168   83  204 1
 169   84   85 1
 170   84  205 1
 171   84  206 1
 172   85   86 1
 173   86  207 1
 174   86  208 1
 175   86  209 1
 176   87   88 2
 177   87   90 1
 178   87  100 am
 179   89   90 1
 180   89  210 1
 181   90   91 1
 182   90  211 1
 183   91   92 1
 184   91  212 1
 185   91  213 1
 186   92   93 ar
 187   92   97 ar
 188   93   94 ar
 189   93  214 1
 190   94   95 ar
 191   94  215 1
 192   95   96 ar
 193   95  216 1
 194   96   97 ar
 195   96  217 1
 196   97  218 1
 197   98   99 2
 198   98  101 1
 199   98  106 1
 200  100  101 1
 201  100  219 1
 202  101  102 1
 203  101  220 1
 204  102  103 1
 205  102  105 1
 206  102  221 1
 207  103  104 1
 208  103  222 1
 209  103  223 1
 210  104  224 1
 211  104  225 1
 212  104  226 1
 213  105  227 1
 214  105  228 1
 215  105  229 1
 216  106  230 1
 217  107  108 2
 218  107  123 1
 219  109  110 1
 220  109  231 1
 221  109  232 1
 222  109  233 1
 223  110  111 1
 224  110  234 1
 225  110  235 1
 226  111  112 1
 227  111  236 1
 228  111  237 1
 229  112  113 1
 230  112  238 1
 231  112  239 1
 232  113  114 1
 233  113  240 1
 234  113  241 1
 235  114  115 1
 236  114  242 1
 237  114  243 1
 238  115  116 1
 239  115  244 1
 240  115  245 1
 241  116  117 1
 242  116  246 1
 243  116  247 1
 244  117  118 1
 245  117  248 1
 246  117  249 1
 247  118  119 1
 248  118  250 1
 249  118  251 1
 250  119  120 1
 251  119  252 1
 252  119  253 1
 253  120  121 1
 254  120  254 1
 255  120  255 1
 256  121  122 1
 257  121  256 1
 258  121  257 1
 259  122  123 1
 260  122  258 1
 261  122  259 1
 262  123  260 1
 263  123  261 1

#	End of record

