#	Name: ASD02030290
#	Creating user name:	WinNT
#	Creation time:	15. 06. 2019 20:15

#	Modifying user name:	WinNT
#	Modification time:	15. 06. 2019 20:15

#	Program:	/corina/corina34_cracker 3.40 0067  02.08.2006

@<TRIPOS>MOLECULE
ASD02030290
  57   60    0    0    0
SMALL
NO_CHARGES


@<TRIPOS>ATOM
   1 N1            -0.2100     1.4220    -0.1406 N.am    
   2 C2            -0.0191    -0.0113     0.1220 C.3     
   3 C3            -0.9157    -0.4177     1.2981 C.3     
   4 N4            -2.2750     0.0815     1.0467 N.am    
   5 C5            -2.4658     1.5148     0.7841 C.3     
   6 C6            -1.5699     1.9221    -0.3865 C.3     
   7 C7             0.8426     2.2637    -0.1503 C.2     
   8 C8             2.1853     1.7726     0.2259 C.2     
   9 N9             3.2636     2.5102     0.3806 N.2     
  10 N10            2.5185     0.4931     0.4762 N.2     
  11 C11            3.7929     0.4740     0.7732 C.2     
  12 N12            4.2454     1.7431     0.7093 N.pl3   
  13 C13            5.5608     2.1574     0.9584 C.ar    
  14 O14            0.6879     3.4268    -0.4684 O.2     
  15 C15           -3.3275    -0.7602     1.0564 C.2     
  16 C16           -4.7001    -0.2294     0.9121 C.ar    
  17 O17           -3.1486    -1.9557     1.1838 O.2     
  18 C18            5.8978     3.5002     0.8580 C.ar    
  19 C19            7.1964     3.9055     1.1043 C.ar    
  20 C20            8.1592     2.9737     1.4500 C.ar    
  21 C21            7.8255     1.6355     1.5500 C.ar    
  22 C22            6.5284     1.2258     1.3116 C.ar    
  23 C23           -1.5438     3.4472    -0.5067 C.3     
  24 Cl24           7.6195     5.5845     0.9792 Cl      
  25 C25           -5.6699    -0.9717     0.2378 C.ar    
  26 C26           -6.9544    -0.4707     0.1048 C.ar    
  27 C27           -7.2771     0.7674     0.6411 C.ar    
  28 C28           -6.3156     1.5091     1.3120 C.ar    
  29 C29           -5.0304     1.0127     1.4549 C.ar    
  30 O30           -6.6368     2.7216     1.8351 O.3     
  31 C31           -7.9820     3.1694     1.6565 C.3     
  32 O32           -7.8998    -1.1928    -0.5523 O.3     
  33 C33           -9.2035    -0.6161    -0.6523 C.3     
  34 H34           -0.2941    -0.5851    -0.7630 H       
  35 H35            1.0241    -0.2012     0.3746 H       
  36 H36           -0.9352    -1.5041     1.3849 H       
  37 H37           -0.5304     0.0186     2.2196 H       
  38 H38           -3.5090     1.7047     0.5314 H       
  39 H39           -2.1909     2.0887     1.6690 H       
  40 H40           -1.9529     1.4864    -1.3092 H       
  41 H41            4.3758    -0.3991     1.0267 H       
  42 H42            5.1465     4.2273     0.5875 H       
  43 H43            9.1732     3.2922     1.6417 H       
  44 H44            8.5793     0.9104     1.8193 H       
  45 H45            6.2688     0.1805     1.3904 H       
  46 H46           -1.0477     3.8720     0.3658 H       
  47 H47           -1.0005     3.7313    -1.4079 H       
  48 H48           -2.5648     3.8246    -0.5638 H       
  49 H49           -5.4195    -1.9355    -0.1803 H       
  50 H50           -8.2796     1.1552     0.5356 H       
  51 H51           -4.2825     1.5905     1.9776 H       
  52 H52           -8.6661     2.4594     2.1214 H       
  53 H53           -8.1037     4.1482     2.1205 H       
  54 H54           -8.2024     3.2423     0.5915 H       
  55 H55           -9.1406     0.3346    -1.1817 H       
  56 H56           -9.8596    -1.2937    -1.1987 H       
  57 H57           -9.6046    -0.4494     0.3474 H       
@<TRIPOS>BOND
   1    1    2 1
   2    1    7 am
   3    1    6 1
   4    2    3 1
   5    2   34 1
   6    2   35 1
   7    3    4 1
   8    3   36 1
   9    3   37 1
  10    4    5 1
  11    4   15 am
  12    5    6 1
  13    5   38 1
  14    5   39 1
  15    6   23 1
  16    6   40 1
  17    7    8 1
  18    7   14 2
  19    8    9 2
  20    8   10 1
  21    9   12 1
  22   10   11 2
  23   11   12 1
  24   11   41 1
  25   12   13 1
  26   13   18 ar
  27   13   22 ar
  28   15   16 1
  29   15   17 2
  30   16   25 ar
  31   16   29 ar
  32   18   19 ar
  33   18   42 1
  34   19   20 ar
  35   19   24 1
  36   20   21 ar
  37   20   43 1
  38   21   22 ar
  39   21   44 1
  40   22   45 1
  41   23   46 1
  42   23   47 1
  43   23   48 1
  44   25   26 ar
  45   25   49 1
  46   26   27 ar
  47   26   32 1
  48   27   28 ar
  49   27   50 1
  50   28   29 ar
  51   28   30 1
  52   29   51 1
  53   30   31 1
  54   31   52 1
  55   31   53 1
  56   31   54 1
  57   32   33 1
  58   33   55 1
  59   33   56 1
  60   33   57 1

#	End of record

