#	Name: ASD02198729
#	Creating user name:	WinNT
#	Creation time:	15. 06. 2019 20:20

#	Modifying user name:	WinNT
#	Modification time:	15. 06. 2019 20:20

#	Program:	/corina/corina34_cracker 3.40 0067  02.08.2006

@<TRIPOS>MOLECULE
ASD02198729
  45   49    0    0    0
SMALL
NO_CHARGES


@<TRIPOS>ATOM
   1 F1             2.2530    -1.7119     2.4714 F       
   2 C2            -0.0433     1.5017    -0.1150 C.2     
   3 C3            -0.0730     0.1620     0.0975 C.2     
   4 N4             1.0714    -0.5396     0.2599 N.pl3   
   5 N5             2.2358    -0.0049     0.2258 N.2     
   6 C6             2.4074     1.2846     0.0276 C.2     
   7 C7             1.2215     2.1357    -0.1605 C.2     
   8 C8             0.9799    -1.9187     0.4764 C.ar    
   9 C9             1.5807    -2.4893     1.5945 C.ar    
  10 C10            1.4893    -3.8518     1.8069 C.ar    
  11 C11            0.7985    -4.6499     0.9048 C.ar    
  12 C12            0.1994    -4.0797    -0.2113 C.ar    
  13 C13            0.2843    -2.7187    -0.4217 C.ar    
  14 C14            3.7643     1.8668    -0.0051 C.2     
  15 N15            4.3061     2.6070    -1.0182 N.pl3   
  16 N16            5.6081     2.9586    -0.6405 N.2     
  17 C17            5.8520     2.4589     0.5448 C.2     
  18 C18            4.7201     1.7712     0.9825 C.2     
  19 C19            3.6730     2.9516    -2.2191 C.ar    
  20 C20            3.8067     4.2349    -2.7328 C.ar    
  21 C21            3.1812     4.5716    -3.9171 C.ar    
  22 C22            2.4224     3.6326    -4.5914 C.ar    
  23 C23            2.2869     2.3540    -4.0822 C.ar    
  24 C24            2.9150     2.0092    -2.9015 C.ar    
  25 O25            1.3245     3.3388    -0.3483 O.2     
  26 N26            0.7059    -6.0318     1.1203 N.pl3   
  27 C27            0.0689    -6.9258     0.3198 C.2     
  28 N28            1.2589    -6.7383     2.1962 N.2     
  29 C29            0.9615    -8.0046     2.0518 C.2     
  30 C30            0.2126    -8.1507     0.8784 C.2     
  31 Cl31          -0.4210    -9.6399     0.2503 Cl      
  32 H32           -0.9547     2.0653    -0.2495 H       
  33 H33           -1.0228    -0.3505     0.1379 H       
  34 H34            1.9555    -4.2958     2.6741 H       
  35 H35           -0.3374    -4.7015    -0.9125 H       
  36 H36           -0.1818    -2.2764    -1.2897 H       
  37 H37            6.7756     2.5648     1.0944 H       
  38 H38            4.6144     1.2517     1.9234 H       
  39 H39            4.3989     4.9689    -2.2065 H       
  40 H40            3.2844     5.5696    -4.3170 H       
  41 H41            1.9342     3.8983    -5.5173 H       
  42 H42            1.6931     1.6230    -4.6108 H       
  43 H43            2.8089     1.0105    -2.5044 H       
  44 H44           -0.4571    -6.7002    -0.5961 H       
  45 H45            1.2479    -8.8015     2.7220 H       
@<TRIPOS>BOND
   1    1    9 1
   2    2    3 2
   3    2    7 1
   4    2   32 1
   5    3    4 1
   6    3   33 1
   7    4    5 1
   8    4    8 1
   9    5    6 2
  10    6    7 1
  11    6   14 1
  12    7   25 2
  13    8    9 ar
  14    8   13 ar
  15    9   10 ar
  16   10   11 ar
  17   10   34 1
  18   11   12 ar
  19   11   26 1
  20   12   13 ar
  21   12   35 1
  22   13   36 1
  23   14   15 1
  24   14   18 2
  25   15   16 1
  26   15   19 1
  27   16   17 2
  28   17   18 1
  29   17   37 1
  30   18   38 1
  31   19   20 ar
  32   19   24 ar
  33   20   21 ar
  34   20   39 1
  35   21   22 ar
  36   21   40 1
  37   22   23 ar
  38   22   41 1
  39   23   24 ar
  40   23   42 1
  41   24   43 1
  42   26   28 1
  43   26   27 1
  44   27   30 2
  45   27   44 1
  46   28   29 2
  47   29   30 1
  48   29   45 1
  49   30   31 1

#	End of record

