#	Name: ASD01811799
#	Creating user name:	WinNT
#	Creation time:	15. 06. 2019 19:27

#	Modifying user name:	WinNT
#	Modification time:	15. 06. 2019 19:27

#	Program:	/corina/corina34_cracker 3.40 0067  02.08.2006

@<TRIPOS>MOLECULE
ASD01811799
  53   56    0    0    0
SMALL
NO_CHARGES


@<TRIPOS>ATOM
   1 C1            -0.0167     1.3826     0.0096 C.ar    
   2 C2             0.0021    -0.0041     0.0020 C.ar    
   3 C3            -1.1845    -0.7153     0.0095 C.ar    
   4 C4            -2.3944    -0.0527     0.0247 C.ar    
   5 C5            -2.4229     1.3432     0.0329 C.ar    
   6 C6            -1.2204     2.0532     0.0305 C.ar    
   7 F7             1.1434     2.0750     0.0023 F       
   8 C8             1.3182    -0.7379    -0.0150 C.3     
   9 C9            -1.1553    -2.2220     0.0006 C.3     
  10 C10           -1.0079    -2.7299     1.4118 C.ar    
  11 C11           -2.1329    -2.9863     2.1739 C.ar    
  12 C12           -2.0010    -3.4514     3.4677 C.ar    
  13 C13           -0.7373    -3.6619     4.0028 C.ar    
  14 C14            0.3903    -3.4040     3.2350 C.ar    
  15 C15            0.2520    -2.9440     1.9400 C.ar    
  16 N16           -0.6002    -4.1335     5.3158 N.pl3   
  17 C17            0.5655    -4.3799     5.9553 C.2     
  18 C18            0.2674    -4.8203     7.1995 C.2     
  19 C19           -1.1259    -4.8443     7.3258 C.2     
  20 N20           -1.6465    -4.4273     6.1998 N.2     
  21 C21           -3.5336     2.3145     0.0494 C.2     
  22 N22           -3.0546     3.5704     0.0524 N.am    
  23 C23           -1.5883     3.5159     0.0415 C.3     
  24 O24           -4.7131     2.0208     0.0586 O.2     
  25 C25           -3.8630     4.7921     0.0675 C.3     
  26 C26           -4.1300     5.2090     1.5152 C.3     
  27 C27           -4.7712     4.0438     2.2715 C.3     
  28 O28           -2.8968     5.5639     2.1439 O.3     
  29 C29           -5.0763     6.4112     1.5334 C.3     
  30 H30           -3.3178    -0.6127     0.0298 H       
  31 H31            1.6458    -0.9203     1.0085 H       
  32 H32            1.1970    -1.6894    -0.5328 H       
  33 H33            2.0638    -0.1348    -0.5330 H       
  34 H34           -2.0836    -2.6009    -0.4268 H       
  35 H35           -0.3124    -2.5655    -0.5990 H       
  36 H36           -3.1157    -2.8223     1.7571 H       
  37 H37           -2.8801    -3.6508     4.0626 H       
  38 H38            1.3746    -3.5665     3.6487 H       
  39 H39            1.1288    -2.7432     1.3423 H       
  40 H40            1.5565    -4.2492     5.5462 H       
  41 H41            0.9793    -5.1034     7.9608 H       
  42 H42           -1.6768    -5.1500     8.2030 H       
  43 H43           -1.1889     3.9963     0.9347 H       
  44 H44           -1.2019     4.0055    -0.8524 H       
  45 H45           -3.3264     5.5892    -0.4471 H       
  46 H46           -4.8108     4.6069    -0.4380 H       
  47 H47           -4.0971     3.1873     2.2585 H       
  48 H48           -4.9615     4.3408     3.3028 H       
  49 H49           -5.7119     3.7730     1.7920 H       
  50 H50           -2.4343     6.2977     1.7163 H       
  51 H51           -6.0170     6.1404     1.0539 H       
  52 H52           -5.2665     6.7082     2.5647 H       
  53 H53           -4.6195     7.2413     0.9946 H       
@<TRIPOS>BOND
   1    1    2 ar
   2    1    7 1
   3    1    6 ar
   4    2    3 ar
   5    2    8 1
   6    3    4 ar
   7    3    9 1
   8    4    5 ar
   9    4   30 1
  10    5    6 ar
  11    5   21 1
  12    6   23 1
  13    8   31 1
  14    8   32 1
  15    8   33 1
  16    9   10 1
  17    9   34 1
  18    9   35 1
  19   10   11 ar
  20   10   15 ar
  21   11   12 ar
  22   11   36 1
  23   12   13 ar
  24   12   37 1
  25   13   14 ar
  26   13   16 1
  27   14   15 ar
  28   14   38 1
  29   15   39 1
  30   16   17 1
  31   16   20 1
  32   17   18 2
  33   17   40 1
  34   18   19 1
  35   18   41 1
  36   19   20 2
  37   19   42 1
  38   21   22 am
  39   21   24 2
  40   22   23 1
  41   22   25 1
  42   23   43 1
  43   23   44 1
  44   25   26 1
  45   25   45 1
  46   25   46 1
  47   26   27 1
  48   26   28 1
  49   26   29 1
  50   27   47 1
  51   27   48 1
  52   27   49 1
  53   28   50 1
  54   29   51 1
  55   29   52 1
  56   29   53 1

#	End of record

