#	Name: ASD01884285
#	Creating user name:	WinNT
#	Creation time:	15. 06. 2019 19:47

#	Modifying user name:	WinNT
#	Modification time:	15. 06. 2019 19:47

#	Program:	/corina/corina34_cracker 3.40 0067  02.08.2006

@<TRIPOS>MOLECULE
ASD01884285
  37   40    0    0    0
SMALL
NO_CHARGES


@<TRIPOS>ATOM
   1 C1            -0.0168     1.3846     0.0097 C.ar    
   2 C2             0.0021    -0.0041     0.0020 C.ar    
   3 C3            -1.1697    -0.7234     0.0088 C.ar    
   4 C4            -2.4126    -0.0728     0.0237 C.ar    
   5 C5            -2.4125     1.3228     0.0317 C.ar    
   6 C6            -1.2345     2.0470     0.0306 C.ar    
   7 N7            -3.6737    -0.6457     0.0317 N.am    
   8 C8            -4.7416     0.1576     0.0458 C.2     
   9 S9            -4.1121     1.8134     0.0497 S.3     
  10 O10           -5.9110    -0.1802     0.0538 O.2     
  11 C11           -3.8335    -2.1020     0.0243 C.3     
  12 C12           -3.8760    -2.6177     1.4642 C.3     
  13 C13           -4.1563    -4.1072     1.6731 C.3     
  14 C14           -2.7509    -3.5522     1.9133 C.3     
  15 F15           -1.7621    -3.8698     0.9760 F       
  16 F16           -2.3153    -3.4483     3.2387 F       
  17 O17            1.1471     2.0872     0.0023 O.3     
  18 C18            2.3119     1.3905    -0.0125 C.ar    
  19 C19            2.8990     1.0389    -1.2206 C.ar    
  20 C20            2.9307     1.0275     1.1915 C.ar    
  21 C21            4.1295     0.3104     1.1634 C.ar    
  22 C22            4.6961    -0.0356    -0.0445 C.ar    
  23 C23            4.0858     0.3290    -1.2330 C.ar    
  24 C24            2.3378     1.3901     2.4435 C.1     
  25 N25            1.8675     1.6777     3.4368 N.1     
  26 F26            2.3103     1.3901    -2.3848 F       
  27 H27            0.9481    -0.5250    -0.0098 H       
  28 H28           -1.1329    -1.8028     0.0023 H       
  29 H29           -1.2630     3.1266     0.0373 H       
  30 H30           -4.7625    -2.3630    -0.4827 H       
  31 H31           -2.9932    -2.5570    -0.5000 H       
  32 H32           -4.2771    -1.9219     2.2011 H       
  33 H33           -4.7415    -4.3913     2.5477 H       
  34 H34           -4.3105    -4.7197     0.7847 H       
  35 H35            4.6119     0.0278     2.0874 H       
  36 H36            5.6228    -0.5899    -0.0642 H       
  37 H37            4.5368     0.0533    -2.1749 H       
@<TRIPOS>BOND
   1    1    2 ar
   2    1   17 1
   3    1    6 ar
   4    2    3 ar
   5    2   27 1
   6    3    4 ar
   7    3   28 1
   8    4    5 ar
   9    4    7 1
  10    5    6 ar
  11    5    9 1
  12    6   29 1
  13    7    8 am
  14    7   11 1
  15    8    9 1
  16    8   10 2
  17   11   12 1
  18   11   30 1
  19   11   31 1
  20   12   13 1
  21   12   14 1
  22   12   32 1
  23   13   14 1
  24   13   33 1
  25   13   34 1
  26   14   15 1
  27   14   16 1
  28   17   18 1
  29   18   19 ar
  30   18   20 ar
  31   19   26 1
  32   19   23 ar
  33   20   21 ar
  34   20   24 1
  35   21   22 ar
  36   21   35 1
  37   22   23 ar
  38   22   36 1
  39   23   37 1
  40   24   25 3

#	End of record

