#	Name: ASD01880447
#	Creating user name:	WinNT
#	Creation time:	15. 06. 2019 19:40

#	Modifying user name:	WinNT
#	Modification time:	15. 06. 2019 19:40

#	Program:	/corina/corina34_cracker 3.40 0067  02.08.2006

@<TRIPOS>MOLECULE
ASD01880447
  24   23    0    0    0
SMALL
NO_CHARGES


@<TRIPOS>ATOM
   1 O1            -0.0161     1.3381     0.0094 O.3     
   2 C2             0.0021    -0.0041     0.0020 C.2     
   3 O3             1.0565    -0.5939    -0.0112 O.2     
   4 C4            -1.2926    -0.7753     0.0102 C.3     
   5 C5            -1.0677    -2.1561    -0.6090 C.3     
   6 C6            -2.4051    -2.8916    -0.7149 C.3     
   7 P7            -2.1371    -4.5369    -1.4527 P.3     
   8 O8            -1.1207    -5.2708    -0.6660 O.2     
   9 O9            -3.5203    -5.3608    -1.4439 O.3     
  10 O10           -1.6228    -4.3678    -2.9689 O.3     
  11 N11           -2.3014    -0.0469    -0.7707 N.3     
  12 C12           -1.7814    -0.9359     1.4511 C.3     
  13 H13            0.8394     1.7888     0.0037 H       
  14 H14           -0.6358    -2.0425    -1.6033 H       
  15 H15           -0.3864    -2.7296     0.0196 H       
  16 H16           -2.8370    -3.0053     0.2794 H       
  17 H17           -3.0863    -2.3181    -1.3435 H       
  18 H18           -3.4521    -6.2479    -1.8227 H       
  19 H19           -2.2403    -3.8948    -3.5433 H       
  20 H20           -2.5150     0.8427    -0.3452 H       
  21 H21           -2.0018     0.0722    -1.7268 H       
  22 H22           -1.9417     0.0478     1.8923 H       
  23 H23           -2.7178    -1.4937     1.4571 H       
  24 H24           -1.0329    -1.4764     2.0306 H       
@<TRIPOS>BOND
   1    1    2 1
   2    1   13 1
   3    2    3 2
   4    2    4 1
   5    4    5 1
   6    4   11 1
   7    4   12 1
   8    5    6 1
   9    5   14 1
  10    5   15 1
  11    6    7 1
  12    6   16 1
  13    6   17 1
  14    7    8 2
  15    7    9 1
  16    7   10 1
  17    9   18 1
  18   10   19 1
  19   11   20 1
  20   11   21 1
  21   12   22 1
  22   12   23 1
  23   12   24 1

#	End of record

