#	Name: ASD06620031
#	Creating user name:	WinNT
#	Creation time:	15. 06. 2019 21:07

#	Modifying user name:	WinNT
#	Modification time:	15. 06. 2019 21:07

#	Program:	/corina/corina34_cracker 3.40 0067  02.08.2006

@<TRIPOS>MOLECULE
ASD06620031
  55   58    0    0    0
SMALL
NO_CHARGES


@<TRIPOS>ATOM
   1 C1            -4.6525    -3.1177     0.9514 C.ar    
   2 C2            -4.7430    -1.7639     1.2374 C.ar    
   3 C3            -5.7411    -1.2999     2.0965 C.ar    
   4 C4            -6.6376    -2.1948     2.6605 C.ar    
   5 C5            -6.5393    -3.5414     2.3700 C.ar    
   6 C6            -5.5501    -4.0014     1.5176 C.ar    
   7 C7            -4.5350     0.4398     1.4234 C.2     
   8 N8            -4.0081    -0.6510     0.8357 N.am    
   9 N9            -5.5818     0.0806     2.1901 N.am    
  10 O10           -4.1268     1.5776     1.2831 O.2     
  11 C11           -2.8577    -0.6649    -0.0712 C.3     
  12 C12           -4.0896    -1.2772    -3.4309 C.2     
  13 C13           -4.5656    -1.9842    -4.5521 C.2     
  14 C14           -4.8621    -1.3045    -5.6936 C.2     
  15 C15           -4.6902     0.0881    -5.7385 C.2     
  16 C16           -4.2329     0.7520    -4.6551 C.2     
  17 N17           -3.9325     0.0822    -3.5060 N.pl3   
  18 N18           -3.7255    -1.6770    -2.2179 N.2     
  19 C19           -3.3421    -0.6274    -1.4977 C.2     
  20 C20           -3.4596     0.5009    -2.2814 C.2     
  21 C21           -3.1483     1.8452    -1.8984 C.1     
  22 C22           -6.4121     0.9874     2.9868 C.3     
  23 C23           -5.5382     1.7079     4.0153 C.3     
  24 C24           -7.0706     2.0170     2.0664 C.3     
  25 C25           -2.8931     2.9472    -1.5844 C.1     
  26 C26           -2.5730     4.3290    -1.1907 C.3     
  27 C27           -2.0785     4.3453     0.2571 C.3     
  28 C28           -0.7525     3.5879     0.3516 C.3     
  29 C29           -1.8727     5.7923     0.7095 C.3     
  30 H30           -3.8845    -3.4797     0.2839 H       
  31 H31           -7.4108    -1.8397     3.3257 H       
  32 H32           -7.2375    -4.2385     2.8092 H       
  33 H33           -5.4800    -5.0558     1.2947 H       
  34 H34           -2.2314     0.2058     0.1229 H       
  35 H35           -2.2776    -1.5732     0.0917 H       
  36 H36           -4.6937    -3.0556    -4.5067 H       
  37 H37           -5.2275    -1.8343    -6.5609 H       
  38 H38           -4.9242     0.6303    -6.6428 H       
  39 H39           -4.1036     1.8233    -4.6992 H       
  40 H40           -7.1833     0.4152     3.5024 H       
  41 H41           -4.7669     2.2802     3.4997 H       
  42 H42           -6.1559     2.3826     4.6081 H       
  43 H43           -5.0690     0.9744     4.6710 H       
  44 H44           -6.2994     2.5892     1.5507 H       
  45 H45           -7.6932     1.5037     1.3336 H       
  46 H46           -7.6884     2.6917     2.6591 H       
  47 H47           -1.7949     4.7223    -1.8449 H       
  48 H48           -3.4665     4.9475    -1.2765 H       
  49 H49           -2.8175     3.8656     0.8988 H       
  50 H50           -0.0041     4.0875    -0.2635 H       
  51 H51           -0.4174     3.5700     1.3887 H       
  52 H52           -0.8913     2.5666    -0.0030 H       
  53 H53           -2.8174     6.3319     0.6421 H       
  54 H54           -1.5204     5.8039     1.7409 H       
  55 H55           -1.1337     6.2720     0.0677 H       
@<TRIPOS>BOND
   1    1    2 ar
   2    1    6 ar
   3    1   30 1
   4    2    3 ar
   5    2    8 1
   6    3    4 ar
   7    3    9 1
   8    4    5 ar
   9    4   31 1
  10    5    6 ar
  11    5   32 1
  12    6   33 1
  13    7    8 am
  14    7    9 am
  15    7   10 2
  16    8   11 1
  17    9   22 1
  18   11   19 1
  19   11   34 1
  20   11   35 1
  21   12   13 1
  22   12   17 1
  23   12   18 2
  24   13   14 2
  25   13   36 1
  26   14   15 1
  27   14   37 1
  28   15   16 2
  29   15   38 1
  30   16   17 1
  31   16   39 1
  32   17   20 1
  33   18   19 1
  34   19   20 2
  35   20   21 1
  36   21   25 3
  37   22   23 1
  38   22   24 1
  39   22   40 1
  40   23   41 1
  41   23   42 1
  42   23   43 1
  43   24   44 1
  44   24   45 1
  45   24   46 1
  46   25   26 1
  47   26   27 1
  48   26   47 1
  49   26   48 1
  50   27   28 1
  51   27   29 1
  52   27   49 1
  53   28   50 1
  54   28   51 1
  55   28   52 1
  56   29   53 1
  57   29   54 1
  58   29   55 1

#	End of record

