#	Name: ASD01100037
#	Creating user name:	WinNT
#	Creation time:	15. 06. 2019 18:58

#	Modifying user name:	WinNT
#	Modification time:	15. 06. 2019 18:58

#	Program:	/corina/corina34_cracker 3.40 0067  02.08.2006

@<TRIPOS>MOLECULE
ASD01100037
  40   42    0    0    0
SMALL
NO_CHARGES


@<TRIPOS>ATOM
   1 C1             0.1624     1.2943    -0.9228 C.ar    
   2 C2             0.2405    -0.0852    -0.9929 C.ar    
   3 C3             1.4416    -0.7234    -0.7392 C.ar    
   4 C4             2.5626     0.0176    -0.4158 C.ar    
   5 C5             2.4839     1.3960    -0.3458 C.ar    
   6 C6             1.2841     2.0341    -0.5993 C.ar    
   7 C7             3.7065     2.2032     0.0074 C.3     
   8 C8             3.4373     3.0053     1.2822 C.3     
   9 C9             3.2214     2.0446     2.4532 C.3     
  10 C10            4.6355     3.9094     1.5784 C.3     
  11 Cl11          -1.1681    -1.0152    -1.3987 Cl      
  12 C12            4.0282     3.1478    -1.1219 C.2     
  13 N13            5.1805     3.8468    -1.1082 N.am    
  14 O14            3.2504     3.2789    -2.0430 O.2     
  15 C15            5.4397     4.7746    -2.1039 C.2     
  16 N16            6.5069     5.4915    -2.1812 N.2     
  17 C17            6.6149     6.3530    -3.2116 C.ar    
  18 C18            5.5053     6.3255    -4.0617 C.ar    
  19 S19            4.3619     5.1351    -3.4453 S.3     
  20 C20            7.6715     7.2377    -3.5163 C.ar    
  21 C21            7.6029     8.0472    -4.6215 C.ar    
  22 C22            6.4959     8.0099    -5.4569 C.ar    
  23 C23            5.4529     7.1550    -5.1795 C.ar    
  24 H24           -0.7738     1.7932    -1.1251 H       
  25 H25            1.5031    -1.8002    -0.7935 H       
  26 H26            3.5002    -0.4805    -0.2173 H       
  27 H27            1.2233     3.1110    -0.5444 H       
  28 H28            4.5499     1.5325     0.1715 H       
  29 H29            2.5456     3.6171     1.1450 H       
  30 H30            4.1131     1.4328     2.5903 H       
  31 H31            3.0296     2.6160     3.3614 H       
  32 H32            2.3678     1.4005     2.2421 H       
  33 H33            4.8522     4.5235     0.7043 H       
  34 H34            4.4036     4.5537     2.4265 H       
  35 H35            5.5042     3.2953     1.8155 H       
  36 H36            5.8283     3.7003    -0.4012 H       
  37 H37            8.5394     7.2779    -2.8749 H       
  38 H38            8.4181     8.7200    -4.8433 H       
  39 H39            6.4521     8.6517    -6.3245 H       
  40 H40            4.5917     7.1271    -5.8307 H       
@<TRIPOS>BOND
   1    1    2 ar
   2    1    6 ar
   3    1   24 1
   4    2    3 ar
   5    2   11 1
   6    3    4 ar
   7    3   25 1
   8    4    5 ar
   9    4   26 1
  10    5    6 ar
  11    5    7 1
  12    6   27 1
  13    7    8 1
  14    7   12 1
  15    7   28 1
  16    8    9 1
  17    8   10 1
  18    8   29 1
  19    9   30 1
  20    9   31 1
  21    9   32 1
  22   10   33 1
  23   10   34 1
  24   10   35 1
  25   12   13 am
  26   12   14 2
  27   13   15 1
  28   13   36 1
  29   15   16 2
  30   15   19 1
  31   16   17 1
  32   17   18 ar
  33   17   20 ar
  34   18   19 1
  35   18   23 ar
  36   20   21 ar
  37   20   37 1
  38   21   22 ar
  39   21   38 1
  40   22   23 ar
  41   22   39 1
  42   23   40 1

#	End of record

