#	Name: ASD09890029
#	Creating user name:	WinNT
#	Creation time:	15. 06. 2019 21:24

#	Modifying user name:	WinNT
#	Modification time:	15. 06. 2019 21:24

#	Program:	/corina/corina34_cracker 3.40 0067  02.08.2006

@<TRIPOS>MOLECULE
ASD09890029
  46   48    0    0    0
SMALL
NO_CHARGES


@<TRIPOS>ATOM
   1 C1            -0.0167     1.3784     0.0096 C.ar    
   2 C2             0.0021    -0.0041     0.0020 C.ar    
   3 C3             1.2074    -0.6814    -0.0127 C.ar    
   4 C4             2.3963     0.0221    -0.0203 C.ar    
   5 C5             2.3802     1.4093    -0.0132 C.ar    
   6 C6             1.1695     2.0865     0.0021 C.ar    
   7 O7             3.5484     2.1036    -0.0202 O.3     
   8 C8             3.4557     3.5296    -0.0122 C.3     
   9 C9             4.8408     4.1231    -0.0217 C.2     
  10 N10            5.5772     4.4485    -1.1299 N.pl3   
  11 C11            6.7575     4.9505    -0.6541 C.2     
  12 N12            6.6910     4.9106     0.6565 N.2     
  13 N13            5.5580     4.4273     1.0229 N.2     
  14 S14            8.1103     5.5389    -1.6176 S.3     
  15 C15            9.2521     6.0171    -0.2970 C.3     
  16 C16            5.1998     4.2983    -2.4723 C.ar    
  17 C17            9.6815     4.7720     0.4816 C.3     
  18 C18           10.4848     6.6878    -0.9066 C.3     
  19 C19            4.1372     5.0323    -2.9817 C.ar    
  20 C20            3.7653     4.8844    -4.3042 C.ar    
  21 C21            4.4492     4.0064    -5.1228 C.ar    
  22 C22            5.5121     3.2698    -4.6185 C.ar    
  23 C23            5.8917     3.4203    -3.2941 C.ar    
  24 O24            6.1836     2.4057    -5.4244 O.3     
  25 C25            5.7416     2.3058    -6.7796 C.3     
  26 H26           -0.9595     1.9052     0.0170 H       
  27 H27           -0.9263    -0.5558     0.0080 H       
  28 H28            1.2194    -1.7613    -0.0179 H       
  29 H29            3.3375    -0.5074    -0.0315 H       
  30 H30            1.1543     3.1664     0.0073 H       
  31 H31            2.9113     3.8632    -0.8956 H       
  32 H32            2.9274     3.8543     0.8842 H       
  33 H33            8.7555     6.7143     0.3779 H       
  34 H34           10.3691     5.0599     1.2768 H       
  35 H35            8.8034     4.2942     0.9159 H       
  36 H36           10.1781     4.0748    -0.1933 H       
  37 H37           10.1788     7.5748    -1.4613 H       
  38 H38           11.1723     6.9757    -0.1114 H       
  39 H39           10.9813     5.9906    -1.5815 H       
  40 H40            3.6007     5.7190    -2.3438 H       
  41 H41            2.9381     5.4560    -4.6986 H       
  42 H42            4.1564     3.8928    -6.1561 H       
  43 H43            6.7184     2.8480    -2.8999 H       
  44 H44            6.3611     1.5837    -7.3115 H       
  45 H45            4.7024     1.9776    -6.7997 H       
  46 H46            5.8243     3.2801    -7.2615 H       
@<TRIPOS>BOND
   1    1    2 ar
   2    1    6 ar
   3    1   26 1
   4    2    3 ar
   5    2   27 1
   6    3    4 ar
   7    3   28 1
   8    4    5 ar
   9    4   29 1
  10    5    6 ar
  11    5    7 1
  12    6   30 1
  13    7    8 1
  14    8    9 1
  15    8   31 1
  16    8   32 1
  17    9   10 1
  18    9   13 2
  19   10   11 1
  20   10   16 1
  21   11   12 2
  22   11   14 1
  23   12   13 1
  24   14   15 1
  25   15   17 1
  26   15   18 1
  27   15   33 1
  28   16   19 ar
  29   16   23 ar
  30   17   34 1
  31   17   35 1
  32   17   36 1
  33   18   37 1
  34   18   38 1
  35   18   39 1
  36   19   20 ar
  37   19   40 1
  38   20   21 ar
  39   20   41 1
  40   21   22 ar
  41   21   42 1
  42   22   23 ar
  43   22   24 1
  44   23   43 1
  45   24   25 1
  46   25   44 1
  47   25   45 1
  48   25   46 1

#	End of record

