#	Name: ASD02198532
#	Creating user name:	WinNT
#	Creation time:	15. 06. 2019 20:19

#	Modifying user name:	WinNT
#	Modification time:	15. 06. 2019 20:19

#	Program:	/corina/corina34_cracker 3.40 0067  02.08.2006

@<TRIPOS>MOLECULE
ASD02198532
  42   45    0    0    0
SMALL
NO_CHARGES


@<TRIPOS>ATOM
   1 C1             0.4898     1.3102     0.2973 C.2     
   2 C2             0.4595    -0.0536     0.2759 C.2     
   3 N3             1.5585    -0.7680    -0.0807 N.pl3   
   4 N4             2.7547    -0.1384    -0.4366 N.2     
   5 C5             2.8481     1.1734    -0.4358 C.2     
   6 C6             1.6757     1.9759    -0.0550 C.2     
   7 C7             1.4918    -2.1656    -0.0917 C.ar    
   8 C8             0.8988    -4.2251     0.9843 C.ar    
   9 C9             1.3607    -4.9294    -0.1129 C.ar    
  10 C10            1.8926    -4.2557    -1.1969 C.ar    
  11 C11            1.9595    -2.8761    -1.1896 C.ar    
  12 C12            4.1148     1.8328    -0.8128 C.2     
  13 N13            5.3746     1.4240    -0.4760 N.pl3   
  14 N14            6.2818     2.3315    -1.0369 N.2     
  15 C15            5.6116     3.2506    -1.6851 C.2     
  16 C16            4.2491     2.9725    -1.5751 C.2     
  17 C17            5.7001     0.2994     0.2929 C.ar    
  18 C18            4.9694     0.0029     1.4360 C.ar    
  19 O19            1.7321     3.1971    -0.0452 O.2     
  20 C20            6.7505    -0.5245    -0.0893 C.ar    
  21 C21            7.0690    -1.6326     0.6711 C.ar    
  22 C22            6.3430    -1.9220     1.8120 C.ar    
  23 C23            5.2928    -1.1066     2.1921 C.ar    
  24 C24            0.9628    -2.8458     0.9981 C.ar    
  25 O25           -0.6779    -0.7019     0.6140 O.3     
  26 C26            0.3195    -4.9635     2.1633 C.3     
  27 F27            0.3562    -6.3399     1.9153 F       
  28 F28            1.0699    -4.6757     3.3083 F       
  29 F29           -1.0056    -4.5604     2.3606 F       
  30 H30           -0.3891     1.8717     0.5776 H       
  31 H31            1.3060    -6.0079    -0.1228 H       
  32 H32            2.2523    -4.8086    -2.0521 H       
  33 H33            2.3747    -2.3505    -2.0368 H       
  34 H34            6.0425     4.0841    -2.2198 H       
  35 H35            3.4441     3.5508    -2.0040 H       
  36 H36            4.1492     0.6395     1.7336 H       
  37 H37            7.3176    -0.2992    -0.9804 H       
  38 H38            7.8856    -2.2740     0.3742 H       
  39 H39            6.5940    -2.7891     2.4049 H       
  40 H40            4.7279    -1.3351     3.0838 H       
  41 H41            0.6023    -2.2965     1.8552 H       
  42 H42           -1.4084    -0.1154     0.8539 H       
@<TRIPOS>BOND
   1    1    2 2
   2    1    6 1
   3    1   30 1
   4    2    3 1
   5    2   25 1
   6    3    4 1
   7    3    7 1
   8    4    5 2
   9    5    6 1
  10    5   12 1
  11    6   19 2
  12    7   24 ar
  13    7   11 ar
  14    8    9 ar
  15    8   26 1
  16    8   24 ar
  17    9   10 ar
  18    9   31 1
  19   10   11 ar
  20   10   32 1
  21   11   33 1
  22   12   13 1
  23   12   16 2
  24   13   14 1
  25   13   17 1
  26   14   15 2
  27   15   16 1
  28   15   34 1
  29   16   35 1
  30   17   20 ar
  31   17   18 ar
  32   18   23 ar
  33   18   36 1
  34   20   21 ar
  35   20   37 1
  36   21   22 ar
  37   21   38 1
  38   22   23 ar
  39   22   39 1
  40   23   40 1
  41   24   41 1
  42   25   42 1
  43   26   27 1
  44   26   28 1
  45   26   29 1

#	End of record

