#	Name: ASD08070028
#	Creating user name:	WinNT
#	Creation time:	15. 06. 2019 21:14

#	Modifying user name:	WinNT
#	Modification time:	15. 06. 2019 21:14

#	Program:	/corina/corina34_cracker 3.40 0067  02.08.2006

@<TRIPOS>MOLECULE
ASD08070028
  42   43    0    0    0
SMALL
NO_CHARGES


@<TRIPOS>ATOM
   1 C1            -0.0638     2.1827    -0.4498 C.ar    
   2 C2             0.1073     0.7908    -0.5452 C.ar    
   3 C3            -1.0067    -0.0528    -0.5028 C.ar    
   4 C4            -2.2569     0.4740    -0.3692 C.ar    
   5 C5            -2.4359     1.8597    -0.2735 C.ar    
   6 C6            -1.3329     2.7126    -0.3094 C.ar    
   7 O7             1.1740     2.7210    -0.5202 O.3     
   8 C8             2.0574     1.7201    -0.6514 C.2     
   9 N9             1.4429     0.5745    -0.6678 N.2     
  10 C10            3.5496     1.8982    -0.7638 C.3     
  11 C11           -3.7947     2.4186    -0.1296 C.2     
  12 N12           -4.8612     1.5955    -0.0903 N.am    
  13 O13           -3.9517     3.6214    -0.0464 O.2     
  14 C14           -6.2096     2.1501     0.0525 C.3     
  15 C15           -7.2286     1.1710    -0.5340 C.3     
  16 C16           -6.5093     2.3723     1.5126 C.2     
  17 O17           -7.6959     2.8775     1.8849 O.3     
  18 C18           -7.9154     3.0647     3.3079 C.3     
  19 C19           -6.9901     1.0270    -2.0384 C.3     
  20 C20           -7.9115    -0.0580    -2.5993 C.3     
  21 C21           -7.2883     2.3579    -2.7317 C.3     
  22 O22           -5.6815     2.0958     2.3481 O.2     
  23 H23           -0.8767    -1.1224    -0.5764 H       
  24 H24           -3.1147    -0.1814    -0.3373 H       
  25 H25           -1.4702     3.7813    -0.2358 H       
  26 H26            3.9935     1.8814     0.2316 H       
  27 H27            3.9681     1.0888    -1.3619 H       
  28 H28            3.7665     2.8532    -1.2423 H       
  29 H29           -4.7360     0.6359    -0.1567 H       
  30 H30           -6.2702     3.0996    -0.4794 H       
  31 H31           -7.1166     0.1990    -0.0537 H       
  32 H32           -8.2364     1.5481    -0.3604 H       
  33 H33           -7.1675     3.7518     3.7036 H       
  34 H34           -8.9108     3.4781     3.4707 H       
  35 H35           -7.8328     2.1048     3.8177 H       
  36 H36           -5.9512     0.7492    -2.2166 H       
  37 H37           -8.9451     0.1754    -2.3440 H       
  38 H38           -7.8056    -0.0999    -3.6833 H       
  39 H39           -7.6402    -1.0226    -2.1702 H       
  40 H40           -6.6319     3.1308    -2.3322 H       
  41 H41           -7.1184     2.2553    -3.8035 H       
  42 H42           -8.3271     2.6356    -2.5535 H       
@<TRIPOS>BOND
   1    1    2 ar
   2    1    7 1
   3    1    6 ar
   4    2    3 ar
   5    2    9 1
   6    3    4 ar
   7    3   23 1
   8    4    5 ar
   9    4   24 1
  10    5    6 ar
  11    5   11 1
  12    6   25 1
  13    7    8 1
  14    8    9 2
  15    8   10 1
  16   10   26 1
  17   10   27 1
  18   10   28 1
  19   11   12 am
  20   11   13 2
  21   12   14 1
  22   12   29 1
  23   14   15 1
  24   14   16 1
  25   14   30 1
  26   15   19 1
  27   15   31 1
  28   15   32 1
  29   16   17 1
  30   16   22 2
  31   17   18 1
  32   18   33 1
  33   18   34 1
  34   18   35 1
  35   19   20 1
  36   19   21 1
  37   19   36 1
  38   20   37 1
  39   20   38 1
  40   20   39 1
  41   21   40 1
  42   21   41 1
  43   21   42 1

#	End of record

