#	Name: ASD01148342
#	Creating user name:	WinNT
#	Creation time:	15. 06. 2019 19:02

#	Modifying user name:	WinNT
#	Modification time:	15. 06. 2019 19:02

#	Program:	/corina/corina34_cracker 3.40 0067  02.08.2006

@<TRIPOS>MOLECULE
ASD01148342
  47   49    0    0    0
SMALL
NO_CHARGES


@<TRIPOS>ATOM
   1 C1            -0.4096     1.8319    -0.0439 C.ar    
   2 C2            -0.4707     0.4511     0.0161 C.ar    
   3 C3             0.6951    -0.2896     0.0952 C.ar    
   4 C4             1.9201     0.3502     0.1142 C.ar    
   5 C5             1.9806     1.7300     0.0543 C.ar    
   6 C6             0.8160     2.4706    -0.0248 C.ar    
   7 C7             3.3165     2.4270     0.0756 C.3     
   8 O8             4.3314     1.6170    -0.5516 O.3     
   9 C9             3.3035     3.6773    -0.8360 C.3     
  10 C10            3.8455     3.1363    -2.1454 C.2     
  11 N11            4.3969     1.9923    -1.9132 N.2     
  12 C12            3.7576     3.8032    -3.4592 C.ar    
  13 C13            4.3018     3.1909    -4.5914 C.ar    
  14 C14            3.1254     5.0439    -3.5719 C.ar    
  15 C15            3.0435     5.6659    -4.7973 C.ar    
  16 C16            3.5926     5.0565    -5.9281 C.ar    
  17 C17            4.2199     3.8128    -5.8164 C.ar    
  18 C18            3.5047     5.7240    -7.2431 C.2     
  19 O19            4.0771     5.2498    -8.2049 O.2     
  20 N20            2.7898     6.8587    -7.3764 N.am    
  21 C21            4.8127     3.1556    -7.0362 C.3     
  22 C22            3.7162     2.7952     1.5058 C.3     
  23 F23            3.7868     1.6346     2.2838 F       
  24 F24            4.9653     3.4251     1.4935 F       
  25 F25            2.7618     3.6627     2.0480 F       
  26 Cl26          -2.0097    -0.3518    -0.0073 Cl      
  27 C27            2.7075     7.4830    -8.6061 C.2     
  28 N28            3.3155     6.9794    -9.6276 N.2     
  29 O29            3.2313     7.6192   -10.8880 O.3     
  30 C30            3.9514     6.9532   -11.9272 C.3     
  31 H31           -1.3191     2.4105    -0.1101 H       
  32 H32            0.6480    -1.3676     0.1424 H       
  33 H33            2.8303    -0.2279     0.1763 H       
  34 H34            0.8638     3.5486    -0.0716 H       
  35 H35            2.2881     4.0528    -0.9632 H       
  36 H36            3.9571     4.4533    -0.4378 H       
  37 H37            4.7869     2.2299    -4.5051 H       
  38 H38            2.7006     5.5149    -2.6978 H       
  39 H39            2.5545     6.6249    -4.8845 H       
  40 H40            2.3329     7.2371    -6.6089 H       
  41 H41            5.8098     3.5572    -7.2168 H       
  42 H42            4.8782     2.0798    -6.8736 H       
  43 H43            4.1788     3.3546    -7.9003 H       
  44 H44            2.1347     8.3922    -8.7129 H       
  45 H45            5.0075     6.9023   -11.6623 H       
  46 H46            3.5591     5.9440   -12.0519 H       
  47 H47            3.8370     7.5054   -12.8599 H       
@<TRIPOS>BOND
   1    1    2 ar
   2    1    6 ar
   3    1   31 1
   4    2    3 ar
   5    2   26 1
   6    3    4 ar
   7    3   32 1
   8    4    5 ar
   9    4   33 1
  10    5    6 ar
  11    5    7 1
  12    6   34 1
  13    7    8 1
  14    7    9 1
  15    7   22 1
  16    8   11 1
  17    9   10 1
  18    9   35 1
  19    9   36 1
  20   10   11 2
  21   10   12 1
  22   12   13 ar
  23   12   14 ar
  24   13   17 ar
  25   13   37 1
  26   14   15 ar
  27   14   38 1
  28   15   16 ar
  29   15   39 1
  30   16   17 ar
  31   16   18 1
  32   17   21 1
  33   18   19 2
  34   18   20 am
  35   20   27 1
  36   20   40 1
  37   21   41 1
  38   21   42 1
  39   21   43 1
  40   22   23 1
  41   22   24 1
  42   22   25 1
  43   27   28 2
  44   27   44 1
  45   28   29 1
  46   29   30 1
  47   30   45 1
  48   30   46 1
  49   30   47 1

#	End of record

