#	Name: ASD04590157
#	Creating user name:	WinNT
#	Creation time:	15. 06. 2019 20:50

#	Modifying user name:	WinNT
#	Modification time:	15. 06. 2019 20:50

#	Program:	/corina/corina34_cracker 3.40 0067  02.08.2006

@<TRIPOS>MOLECULE
ASD04590157
  50   53    0    0    0
SMALL
NO_CHARGES


@<TRIPOS>ATOM
   1 N1            -0.0153     1.2802     0.0091 N.pl3   
   2 N2             0.0021    -0.0041     0.0020 N.2     
   3 C3             1.2456    -0.4440    -0.0122 C.2     
   4 C4             2.0903     0.6961    -0.0142 C.2     
   5 C5             1.2523     1.7667    -0.0004 C.2     
   6 C6             1.6765    -1.8547    -0.0235 C.2     
   7 N7             0.7571    -2.8402    -0.0200 N.am    
   8 O8             2.8611    -2.1284    -0.0359 O.2     
   9 N9             3.4930     0.7146    -0.0270 N.am    
  10 C10            4.1514     1.8906    -0.0271 C.2     
  11 C11            1.1851    -4.2412    -0.0312 C.3     
  12 C12            5.6255     1.9101    -0.0406 C.ar    
  13 O13            3.5295     2.9358    -0.0159 O.2     
  14 C14            6.3422     0.7095    -0.0534 C.ar    
  15 C15            6.3108     3.1302    -0.0465 C.ar    
  16 C16            7.6892     3.1409    -0.0591 C.ar    
  17 C17            8.3927     1.9404    -0.0660 C.ar    
  18 C18            7.7077     0.7279    -0.0659 C.ar    
  19 N19            9.7832     1.9515    -0.0792 N.3     
  20 C20           10.3209     0.5832    -0.0845 C.3     
  21 C21           10.3148     2.7157     1.0587 C.3     
  22 C22           11.8429     2.7526     0.9724 C.3     
  23 O23           12.3458     1.4142     0.9368 O.3     
  24 C24           11.8490     0.6415    -0.1593 C.3     
  25 Cl25           5.4282     4.6251    -0.0384 Cl      
  26 C26           -0.0454    -5.1504    -0.0245 C.3     
  27 C27            0.1887    -6.6570    -0.1527 C.3     
  28 C28           -0.2440    -6.0615     1.1885 C.3     
  29 H29           -0.8184     1.8242     0.0160 H       
  30 H30            1.5406     2.8076     0.0024 H       
  31 H31           -0.1879    -2.6218    -0.0102 H       
  32 H32            3.9890    -0.1189    -0.0359 H       
  33 H33            1.7744    -4.4340    -0.9277 H       
  34 H34            1.7909    -4.4431     0.8522 H       
  35 H35            5.8154    -0.2333    -0.0531 H       
  36 H36            8.2224     4.0800    -0.0640 H       
  37 H37            8.2583    -0.2012    -0.0713 H       
  38 H38           10.0206     0.0705     0.8293 H       
  39 H39            9.9345     0.0436    -0.9491 H       
  40 H40            9.9239     3.7327     1.0285 H       
  41 H41           10.0143     2.2371     1.9908 H       
  42 H42           12.1437     3.2786     0.0664 H       
  43 H43           12.2443     3.2691     1.8443 H       
  44 H44           12.2548    -0.3688    -0.1060 H       
  45 H45           12.1499     1.1062    -1.0982 H       
  46 H46           -0.9374    -4.7378    -0.4959 H       
  47 H47           -0.5495    -7.2355    -0.7081 H       
  48 H48            1.2194    -7.0004    -0.2419 H       
  49 H49            0.5019    -6.0131     1.9818 H       
  50 H50           -1.2669    -6.2482     1.5156 H       
@<TRIPOS>BOND
   1    1    2 1
   2    1    5 1
   3    1   29 1
   4    2    3 2
   5    3    4 1
   6    3    6 1
   7    4    5 2
   8    4    9 1
   9    5   30 1
  10    6    7 am
  11    6    8 2
  12    7   11 1
  13    7   31 1
  14    9   10 am
  15    9   32 1
  16   10   12 1
  17   10   13 2
  18   11   26 1
  19   11   33 1
  20   11   34 1
  21   12   14 ar
  22   12   15 ar
  23   14   18 ar
  24   14   35 1
  25   15   16 ar
  26   15   25 1
  27   16   17 ar
  28   16   36 1
  29   17   18 ar
  30   17   19 1
  31   18   37 1
  32   19   20 1
  33   19   21 1
  34   20   24 1
  35   20   38 1
  36   20   39 1
  37   21   22 1
  38   21   40 1
  39   21   41 1
  40   22   23 1
  41   22   42 1
  42   22   43 1
  43   23   24 1
  44   24   44 1
  45   24   45 1
  46   26   27 1
  47   26   28 1
  48   26   46 1
  49   27   28 1
  50   27   47 1
  51   27   48 1
  52   28   49 1
  53   28   50 1

#	End of record

