#	Name: ASD05380017
#	Creating user name:	WinNT
#	Creation time:	15. 06. 2019 20:59

#	Modifying user name:	WinNT
#	Modification time:	15. 06. 2019 20:59

#	Program:	/corina/corina34_cracker 3.40 0067  02.08.2006

@<TRIPOS>MOLECULE
ASD05380017
  49   53    0    0    0
SMALL
NO_CHARGES


@<TRIPOS>ATOM
   1 C1            -0.2704     1.7436    -0.3084 C.ar    
   2 C2            -0.0036     0.3804    -0.5672 C.ar    
   3 C3             0.6310     2.7219    -0.7220 C.ar    
   4 C4             1.7811     2.3494    -1.3834 C.ar    
   5 C5             2.0461     1.0108    -1.6398 C.ar    
   6 C6             1.1686     0.0283    -1.2386 C.ar    
   7 C7             0.3503     4.1770    -0.4485 C.3     
   8 N8            -0.8955    -0.5548    -0.1546 N.2     
   9 C9            -1.9853    -0.2271     0.4706 C.2     
  10 N10           -2.3226     1.0585     0.7616 N.am    
  11 C11           -1.5101     2.0810     0.4063 C.2     
  12 C12           -3.5186     1.3257     1.4396 C.ar    
  13 C13           -4.6879     1.5512     0.7253 C.ar    
  14 C14           -3.5388     1.3602     2.8277 C.ar    
  15 C15           -4.7199     1.6235     3.4934 C.ar    
  16 C16           -5.8817     1.8523     2.7791 C.ar    
  17 C17           -5.8658     1.8140     1.3968 C.ar    
  18 C18           -2.9245    -1.3265     0.8950 C.3     
  19 N19           -2.9249    -2.3861    -0.1168 N.pl3   
  20 C20           -4.0231    -3.2180    -0.2470 C.ar    
  21 N21           -5.0856    -3.0695     0.5375 N.ar    
  22 O22           -1.7991     3.2358     0.6603 O.2     
  23 C23           -4.0432    -4.2357    -1.2156 C.ar    
  24 C24           -5.1863    -5.0487    -1.3002 C.ar    
  25 N25           -6.1987    -4.8280    -0.4682 N.ar    
  26 C26           -6.1378    -3.8586     0.4204 C.ar    
  27 N27           -3.1757    -4.6670    -2.1626 N.2     
  28 C28           -3.7006    -5.6683    -2.8071 C.2     
  29 N29           -4.9408    -5.9421    -2.3121 N.pl3   
  30 C30           -2.4636    -1.9018     2.2357 C.3     
  31 H31            2.4821     3.1052    -1.7055 H       
  32 H32            2.9520     0.7367    -2.1601 H       
  33 H33            1.3859    -1.0097    -1.4429 H       
  34 H34            0.6700     4.4247     0.5637 H       
  35 H35            0.8963     4.7930    -1.1630 H       
  36 H36           -0.7186     4.3659    -0.5483 H       
  37 H37           -4.6762     1.5214    -0.3542 H       
  38 H38           -2.6320     1.1809     3.3861 H       
  39 H39           -4.7363     1.6504     4.5729 H       
  40 H40           -6.8042     2.0573     3.3019 H       
  41 H41           -6.7747     1.9935     0.8418 H       
  42 H42           -3.9319    -0.9236     0.9995 H       
  43 H43           -2.1554    -2.5045    -0.6953 H       
  44 H44           -6.9798    -3.7033     1.0787 H       
  45 H45           -3.2239    -6.2035    -3.6150 H       
  46 H46           -5.5397    -6.6409    -2.6185 H       
  47 H47           -3.1245    -2.7181     2.5273 H       
  48 H48           -1.4445    -2.2761     2.1394 H       
  49 H49           -2.4936    -1.1209     2.9956 H       
@<TRIPOS>BOND
   1    1    2 ar
   2    1    3 ar
   3    1   11 1
   4    2    8 1
   5    2    6 ar
   6    3    4 ar
   7    3    7 1
   8    4    5 ar
   9    4   31 1
  10    5    6 ar
  11    5   32 1
  12    6   33 1
  13    7   34 1
  14    7   35 1
  15    7   36 1
  16    8    9 2
  17    9   10 1
  18    9   18 1
  19   10   11 am
  20   10   12 1
  21   11   22 2
  22   12   13 ar
  23   12   14 ar
  24   13   17 ar
  25   13   37 1
  26   14   15 ar
  27   14   38 1
  28   15   16 ar
  29   15   39 1
  30   16   17 ar
  31   16   40 1
  32   17   41 1
  33   18   19 1
  34   18   30 1
  35   18   42 1
  36   19   20 1
  37   19   43 1
  38   20   21 ar
  39   20   23 ar
  40   21   26 ar
  41   23   24 ar
  42   23   27 1
  43   24   25 ar
  44   24   29 1
  45   25   26 ar
  46   26   44 1
  47   27   28 2
  48   28   29 1
  49   28   45 1
  50   29   46 1
  51   30   47 1
  52   30   48 1
  53   30   49 1

#	End of record

