#	Name: ASD01884326
#	Creating user name:	WinNT
#	Creation time:	15. 06. 2019 19:48

#	Modifying user name:	WinNT
#	Modification time:	15. 06. 2019 19:48

#	Program:	/corina/corina34_cracker 3.40 0067  02.08.2006

@<TRIPOS>MOLECULE
ASD01884326
  55   57    0    0    0
SMALL
NO_CHARGES


@<TRIPOS>ATOM
   1 C1            -0.0168     1.3884     0.0097 C.2     
   2 C2             0.0021    -0.0041     0.0020 C.2     
   3 C3            -1.2095    -0.6965     0.0104 C.2     
   4 C4            -2.3831    -0.0157     0.0252 C.2     
   5 N5            -2.4093     1.3392     0.0327 N.am    
   6 C6            -1.2693     2.0558     0.0312 C.2     
   7 O7            -1.3129     3.2741     0.0380 O.2     
   8 C8            -3.6983     2.0352     0.0483 C.3     
   9 C9            -4.1338     2.2698     1.4962 C.3     
  10 C10            1.2059     2.1337     0.0020 C.1     
  11 N11            2.1759     2.7249    -0.0041 N.1     
  12 C12            1.3105    -0.7515    -0.0155 C.3     
  13 N13            1.6901    -1.1066     1.3585 N.3     
  14 C14            2.8290    -2.0352     1.3670 C.3     
  15 C15            3.2431    -2.3172     2.8131 C.3     
  16 N16            2.1012    -2.8822     3.5456 N.3     
  17 C17            0.9623    -1.9536     3.5371 C.3     
  18 C18            0.5482    -1.6716     2.0910 C.3     
  19 C19            2.4621    -3.2198     4.8520 C.ar    
  20 C20           -5.4800     2.9967     1.5124 C.3     
  21 C21           -5.9155     3.2312     2.9603 C.3     
  22 C22            3.7615    -3.0046     5.2929 C.ar    
  23 C23            4.1149    -3.3392     6.5855 C.ar    
  24 C24            3.1769    -3.8882     7.4402 C.ar    
  25 C25            1.8821    -4.1038     7.0045 C.ar    
  26 C26            1.5206    -3.7663     5.7152 C.ar    
  27 C27            0.8632    -4.7029     7.9394 C.3     
  28 F28            1.4592    -4.9532     9.1801 F       
  29 F29           -0.2003    -3.8092     8.1047 F       
  30 F30            0.3850    -5.9025     7.4013 F       
  31 H31           -1.2130    -1.7765     0.0046 H       
  32 H32           -3.3137    -0.5638     0.0308 H       
  33 H33           -3.5999     2.9937    -0.4613 H       
  34 H34           -4.4456     1.4275    -0.4619 H       
  35 H35           -4.2323     1.3113     2.0058 H       
  36 H36           -3.3866     2.8775     2.0064 H       
  37 H37            1.2023    -1.6595    -0.6087 H       
  38 H38            2.0835    -0.1207    -0.4544 H       
  39 H39            2.5411    -2.9683     0.8826 H       
  40 H40            3.6659    -1.5892     0.8295 H       
  41 H41            4.0692    -3.0283     2.8228 H       
  42 H42            3.5569    -1.3883     3.2893 H       
  43 H43            0.1254    -2.3996     4.0746 H       
  44 H44            1.2502    -1.0205     4.0215 H       
  45 H45           -0.2779    -0.9605     2.0813 H       
  46 H46            0.2344    -2.6005     1.6148 H       
  47 H47           -5.3816     3.9552     1.0028 H       
  48 H48           -6.2273     2.3889     1.0022 H       
  49 H49           -6.8746     3.7491     2.9718 H       
  50 H50           -6.0140     2.2727     3.4699 H       
  51 H51           -5.1683     3.8390     3.4705 H       
  52 H52            4.4948    -2.5765     4.6255 H       
  53 H53            5.1251    -3.1721     6.9290 H       
  54 H54            3.4560    -4.1495     8.4503 H       
  55 H55            0.5093    -3.9346     5.3757 H       
@<TRIPOS>BOND
   1    1    2 2
   2    1   10 1
   3    1    6 1
   4    2    3 1
   5    2   12 1
   6    3    4 2
   7    3   31 1
   8    4    5 1
   9    4   32 1
  10    5    6 am
  11    5    8 1
  12    6    7 2
  13    8    9 1
  14    8   33 1
  15    8   34 1
  16    9   20 1
  17    9   35 1
  18    9   36 1
  19   10   11 3
  20   12   13 1
  21   12   37 1
  22   12   38 1
  23   13   14 1
  24   13   18 1
  25   14   15 1
  26   14   39 1
  27   14   40 1
  28   15   16 1
  29   15   41 1
  30   15   42 1
  31   16   17 1
  32   16   19 1
  33   17   18 1
  34   17   43 1
  35   17   44 1
  36   18   45 1
  37   18   46 1
  38   19   22 ar
  39   19   26 ar
  40   20   21 1
  41   20   47 1
  42   20   48 1
  43   21   49 1
  44   21   50 1
  45   21   51 1
  46   22   23 ar
  47   22   52 1
  48   23   24 ar
  49   23   53 1
  50   24   25 ar
  51   24   54 1
  52   25   27 1
  53   25   26 ar
  54   26   55 1
  55   27   28 1
  56   27   29 1
  57   27   30 1

#	End of record

