#	Name: ASD08150256
#	Creating user name:	WinNT
#	Creation time:	15. 06. 2019 21:15

#	Modifying user name:	WinNT
#	Modification time:	15. 06. 2019 21:15

#	Program:	/corina/corina34_cracker 3.40 0067  02.08.2006

@<TRIPOS>MOLECULE
ASD08150256
  54   58    0    0    0
SMALL
NO_CHARGES


@<TRIPOS>ATOM
   1 N1            -0.0157     1.2951    -0.0515 N.2     
   2 C2             0.0018    -0.0026    -0.0874 C.2     
   3 N3             1.1464    -0.7343    -0.1048 N.am    
   4 C4             2.3544    -0.1243    -0.0848 C.2     
   5 C5             2.3698     1.3455    -0.0439 C.ar    
   6 C6             3.5600     2.0697    -0.0212 C.ar    
   7 C7             3.5164     3.4462     0.0164 C.ar    
   8 C8             2.2988     4.1141     0.0322 C.ar    
   9 C9             1.1117     3.4172     0.0107 C.ar    
  10 C10            1.1297     2.0215    -0.0284 C.ar    
  11 O11            3.3878    -0.7674    -0.0995 O.2     
  12 C12           -1.3151    -0.7349    -0.1106 C.3     
  13 S13           -2.6720     0.4626    -0.0804 S.3     
  14 N14           -5.9166     1.0974    -0.0699 N.2     
  15 C15           -7.2140     0.9935    -0.0756 C.2     
  16 N16           -7.5757    -0.3204    -0.1122 N.pl3   
  17 C17           -6.4228    -1.0639    -0.1299 C.ar    
  18 N18           -6.1443    -2.3631    -0.1651 N.ar    
  19 C19           -4.8962    -2.7822    -0.1742 C.ar    
  20 N20           -3.8697    -1.9524    -0.1500 N.ar    
  21 C21           -4.0498    -0.6352    -0.1138 C.ar    
  22 C22           -5.3652    -0.1393    -0.1024 C.ar    
  23 C23            1.0724    -2.1968    -0.1451 C.3     
  24 C24            1.7699    -2.7082    -1.4072 C.3     
  25 C25            1.6926    -4.2357    -1.4493 C.3     
  26 C26            2.3842    -4.8155    -0.2139 C.3     
  27 C27            1.6867    -4.3042     1.0482 C.3     
  28 C28            1.7640    -2.7767     1.0903 C.3     
  29 C29            1.0783    -2.1283    -2.6426 C.3     
  30 C30            4.8853     1.3525    -0.0372 C.3     
  31 H31            4.4369     4.0107     0.0341 H       
  32 H32            2.2830     5.1935     0.0621 H       
  33 H33            0.1710     3.9475     0.0234 H       
  34 H34           -1.3809    -1.3357    -1.0178 H       
  35 H35           -1.3848    -1.3850     0.7615 H       
  36 H36           -7.9024     1.8254    -0.0544 H       
  37 H37           -8.4819    -0.6661    -0.1236 H       
  38 H38           -4.7050    -3.8447    -0.2027 H       
  39 H39            0.0277    -2.5076    -0.1561 H       
  40 H40            2.8146    -2.3974    -1.3962 H       
  41 H41            0.6479    -4.5464    -1.4603 H       
  42 H42            2.1895    -4.6000    -2.3484 H       
  43 H43            2.3292    -5.9037    -0.2438 H       
  44 H44            3.4289    -4.5048    -0.2029 H       
  45 H45            0.6420    -4.6150     1.0372 H       
  46 H46            2.1794    -4.7173     1.9284 H       
  47 H47            2.8087    -2.4660     1.1013 H       
  48 H48            1.2670    -2.4124     1.9895 H       
  49 H49            1.1333    -1.0401    -2.6127 H       
  50 H50            1.5752    -2.4926    -3.5418 H       
  51 H51            0.0336    -2.4391    -2.6536 H       
  52 H52            5.1525     1.1056    -1.0647 H       
  53 H53            5.6522     1.9967     0.3929 H       
  54 H54            4.8098     0.4365     0.5487 H       
@<TRIPOS>BOND
   1    1    2 2
   2    1   10 1
   3    2    3 1
   4    2   12 1
   5    3    4 am
   6    3   23 1
   7    4    5 1
   8    4   11 2
   9    5    6 ar
  10    5   10 ar
  11    6    7 ar
  12    6   30 1
  13    7    8 ar
  14    7   31 1
  15    8    9 ar
  16    8   32 1
  17    9   10 ar
  18    9   33 1
  19   12   13 1
  20   12   34 1
  21   12   35 1
  22   13   21 1
  23   14   15 2
  24   14   22 1
  25   15   16 1
  26   15   36 1
  27   16   17 1
  28   16   37 1
  29   17   18 ar
  30   17   22 ar
  31   18   19 ar
  32   19   20 ar
  33   19   38 1
  34   20   21 ar
  35   21   22 ar
  36   23   24 1
  37   23   28 1
  38   23   39 1
  39   24   25 1
  40   24   29 1
  41   24   40 1
  42   25   26 1
  43   25   41 1
  44   25   42 1
  45   26   27 1
  46   26   43 1
  47   26   44 1
  48   27   28 1
  49   27   45 1
  50   27   46 1
  51   28   47 1
  52   28   48 1
  53   29   49 1
  54   29   50 1
  55   29   51 1
  56   30   52 1
  57   30   53 1
  58   30   54 1

#	End of record

