#	Name: ASD00311464
#	Creating user name:	WinNT
#	Creation time:	15. 06. 2019 18:34

#	Modifying user name:	WinNT
#	Modification time:	15. 06. 2019 18:34

#	Program:	/corina/corina34_cracker 3.40 0067  02.08.2006

@<TRIPOS>MOLECULE
ASD00311464
  47   51    0    0    0
SMALL
NO_CHARGES


@<TRIPOS>ATOM
   1 C1            -0.0167     1.3776     0.0096 C.2     
   2 C2             0.0021    -0.0041     0.0020 C.2     
   3 C3             1.2587    -0.6767    -0.0140 C.2     
   4 C4             2.4315     0.0672    -0.0217 C.2     
   5 C5             2.3574     1.4751    -0.0134 C.2     
   6 N6             1.1648     2.0901     0.0022 N.am    
   7 C7            -1.3433    -0.5753     0.0123 C.2     
   8 C8            -2.3230     0.3264     0.0268 C.2     
   9 S9            -1.6792     1.9564     0.0358 S.3     
  10 O10            3.3822     2.1373    -0.0200 O.2     
  11 C11            3.7476    -0.6121    -0.0379 C.ar    
  12 C12            4.5930    -0.4747    -1.1387 C.ar    
  13 C13            5.8181    -1.1096    -1.1477 C.ar    
  14 C14            6.2084    -1.8812    -0.0677 C.ar    
  15 C15            5.3741    -2.0217     1.0269 C.ar    
  16 C16            4.1490    -1.3871     1.0501 C.ar    
  17 O17            1.3086    -2.0292    -0.0214 O.3     
  18 C18           -2.0688    -4.7662    -0.0036 C.ar    
  19 C19           -2.7059    -3.9513     0.9333 C.ar    
  20 C20           -2.4710    -2.5948     0.9387 C.ar    
  21 C21           -1.5956    -2.0344     0.0070 C.ar    
  22 C22           -0.9585    -2.8495    -0.9301 C.ar    
  23 C23           -1.1935    -4.2061    -0.9352 C.ar    
  24 C24           -2.3169    -6.2267    -0.0054 C.ar    
  25 C25           -1.6795    -7.0413    -0.9426 C.ar    
  26 C26           -1.9092    -8.3981    -0.9452 C.ar    
  27 C27           -2.7814    -8.9605    -0.0087 C.ar    
  28 C28           -3.4193    -8.1438     0.9295 C.ar    
  29 C29           -3.1836    -6.7879     0.9338 C.ar    
  30 C30           -3.0217   -10.3722    -0.0107 C.1     
  31 N31           -3.2123   -11.4921    -0.0123 N.1     
  32 H32            1.1326     3.0596     0.0073 H       
  33 H33           -3.3757     0.0850     0.0357 H       
  34 H34            4.2892     0.1271    -1.9825 H       
  35 H35            6.4734    -1.0043    -1.9996 H       
  36 H36            7.1682    -2.3762    -0.0794 H       
  37 H37            5.6841    -2.6256     1.8668 H       
  38 H38            3.5005    -1.4938     1.9070 H       
  39 H39            2.2059    -2.3897    -0.0322 H       
  40 H40           -3.3835    -4.3849     1.6539 H       
  41 H41           -2.9643    -1.9642     1.6635 H       
  42 H42           -0.2815    -2.4161    -1.6513 H       
  43 H43           -0.7003    -4.8368    -1.6600 H       
  44 H44           -1.0059    -6.6065    -1.6663 H       
  45 H45           -1.4162    -9.0281    -1.6707 H       
  46 H46           -4.0934    -8.5772     1.6535 H       
  47 H47           -3.6729    -6.1573     1.6614 H       
@<TRIPOS>BOND
   1    1    2 2
   2    1    6 1
   3    1    9 1
   4    2    3 1
   5    2    7 1
   6    3    4 2
   7    3   17 1
   8    4    5 1
   9    4   11 1
  10    5    6 am
  11    5   10 2
  12    6   32 1
  13    7    8 2
  14    7   21 1
  15    8    9 1
  16    8   33 1
  17   11   12 ar
  18   11   16 ar
  19   12   13 ar
  20   12   34 1
  21   13   14 ar
  22   13   35 1
  23   14   15 ar
  24   14   36 1
  25   15   16 ar
  26   15   37 1
  27   16   38 1
  28   17   39 1
  29   18   19 ar
  30   18   23 ar
  31   18   24 1
  32   19   20 ar
  33   19   40 1
  34   20   21 ar
  35   20   41 1
  36   21   22 ar
  37   22   23 ar
  38   22   42 1
  39   23   43 1
  40   24   25 ar
  41   24   29 ar
  42   25   26 ar
  43   25   44 1
  44   26   27 ar
  45   26   45 1
  46   27   28 ar
  47   27   30 1
  48   28   29 ar
  49   28   46 1
  50   29   47 1
  51   30   31 3

#	End of record

