#	Name: ASD03091369
#	Creating user name:	WinNT
#	Creation time:	15. 06. 2019 20:30

#	Modifying user name:	WinNT
#	Modification time:	15. 06. 2019 20:30

#	Program:	/corina/corina34_cracker 3.40 0067  02.08.2006

@<TRIPOS>MOLECULE
ASD03091369
  33   34    0    0    0
SMALL
NO_CHARGES


@<TRIPOS>ATOM
   1 C1            -0.0167     1.3781     0.0096 C.ar    
   2 C2             0.0021    -0.0041     0.0020 C.ar    
   3 C3             1.2084    -0.6789    -0.0132 C.ar    
   4 C4             2.3961     0.0285    -0.0212 C.ar    
   5 C5             2.3773     1.4107    -0.0145 C.ar    
   6 C6             1.1709     2.0855     0.0021 C.ar    
   7 C7             1.1505     3.5924     0.0099 C.3     
   8 N8             1.1568     4.0749     1.3974 N.3     
   9 C9             0.1918     3.3317     2.2175 C.3     
  10 C10            0.8996     5.5196     1.4532 C.3     
  11 C11            1.0572     6.0119     2.8937 C.3     
  12 C12            0.0706     5.2636     3.7944 C.3     
  13 C13            0.3283     3.7586     3.6808 C.3     
  14 C14            0.2653     5.7076     5.2456 C.3     
  15 Cl15          -0.8971     4.8257     6.3049 Cl      
  16 H16           -0.9592     1.9054     0.0170 H       
  17 H17           -0.9258    -0.5567     0.0083 H       
  18 H18            1.2231    -1.7588    -0.0184 H       
  19 H19            3.3386    -0.4987    -0.0324 H       
  20 H20            3.3052     1.9634    -0.0201 H       
  21 H21            2.0306     3.9704    -0.5103 H       
  22 H22            0.2509     3.9462    -0.4937 H       
  23 H23           -0.8194     3.5437     1.8701 H       
  24 H24            0.3887     2.2631     2.1310 H       
  25 H25            1.6106     6.0402     0.8117 H       
  26 H26           -0.1149     5.7214     1.1094 H       
  27 H27            2.0755     5.8229     3.2335 H       
  28 H28            0.8510     7.0813     2.9375 H       
  29 H29           -0.9493     5.4834     3.4790 H       
  30 H30           -0.3988     3.2181     4.2869 H       
  31 H31            1.3351     3.5341     4.0329 H       
  32 H32            1.2848     5.4845     5.5601 H       
  33 H33            0.0872     6.7800     5.3245 H       
@<TRIPOS>BOND
   1    1    2 ar
   2    1    6 ar
   3    1   16 1
   4    2    3 ar
   5    2   17 1
   6    3    4 ar
   7    3   18 1
   8    4    5 ar
   9    4   19 1
  10    5    6 ar
  11    5   20 1
  12    6    7 1
  13    7    8 1
  14    7   21 1
  15    7   22 1
  16    8   10 1
  17    8    9 1
  18    9   13 1
  19    9   23 1
  20    9   24 1
  21   10   11 1
  22   10   25 1
  23   10   26 1
  24   11   12 1
  25   11   27 1
  26   11   28 1
  27   12   13 1
  28   12   14 1
  29   12   29 1
  30   13   30 1
  31   13   31 1
  32   14   15 1
  33   14   32 1
  34   14   33 1

#	End of record

