#	Name: ASD01000006
#	Creating user name:	WinNT
#	Creation time:	15. 06. 2019 18:54

#	Modifying user name:	WinNT
#	Modification time:	15. 06. 2019 18:54

#	Program:	/corina/corina34_cracker 3.40 0067  02.08.2006

@<TRIPOS>MOLECULE
ASD01000006
  32   35    0    0    0
SMALL
NO_CHARGES


@<TRIPOS>ATOM
   1 C1            -0.0162     1.3438     0.0094 C.2     
   2 N2             0.0021    -0.0041     0.0020 N.am    
   3 C3             1.2028    -0.6789    -0.0136 C.2     
   4 C4             2.3763     1.3875    -0.0116 C.2     
   5 C5             1.1943     2.0607     0.0017 C.2     
   6 C6             1.1791     3.5667     0.0077 C.3     
   7 N7             3.5698     2.0761    -0.0177 N.am    
   8 C8             3.6245     3.3656     0.3616 C.2     
   9 C9             2.3777     4.0851     0.8048 C.3     
  10 C10            1.2596     4.0756    -1.4085 C.ar    
  11 C11            0.2439     4.8622    -1.9191 C.ar    
  12 C12            0.3177     5.3289    -3.2181 C.ar    
  13 C13            1.4073     5.0094    -4.0065 C.ar    
  14 C14            2.4234     4.2236    -3.4957 C.ar    
  15 C15            2.3517     3.7605    -2.1952 C.ar    
  16 N16            1.4991    -1.9622    -0.0254 N.2     
  17 C17            2.8223    -2.1192    -0.0386 C.2     
  18 N18            3.3986    -0.9453    -0.0356 N.2     
  19 N19            2.3743     0.0115    -0.0198 N.pl3   
  20 O20           -1.0795     1.9404     0.0177 O.2     
  21 O21            4.6851     3.9531     0.3463 O.2     
  22 H22           -0.8318    -0.4996     0.0080 H       
  23 H23            0.2564     3.9190     0.4686 H       
  24 H24            4.3811     1.6252    -0.2993 H       
  25 H25            2.4943     5.1548     0.6311 H       
  26 H26            2.2127     3.9053     1.8671 H       
  27 H27           -0.6074     5.1117    -1.3031 H       
  28 H28           -0.4762     5.9428    -3.6172 H       
  29 H29            1.4646     5.3735    -5.0217 H       
  30 H30            3.2745     3.9738    -4.1117 H       
  31 H31            3.1473     3.1496    -1.7949 H       
  32 H32            3.3382    -3.0680    -0.0496 H       
@<TRIPOS>BOND
   1    1    2 am
   2    1    5 1
   3    1   20 2
   4    2    3 1
   5    2   22 1
   6    3   16 2
   7    3   19 1
   8    4    7 1
   9    4    5 2
  10    4   19 1
  11    5    6 1
  12    6    9 1
  13    6   10 1
  14    6   23 1
  15    7    8 am
  16    7   24 1
  17    8    9 1
  18    8   21 2
  19    9   25 1
  20    9   26 1
  21   10   11 ar
  22   10   15 ar
  23   11   12 ar
  24   11   27 1
  25   12   13 ar
  26   12   28 1
  27   13   14 ar
  28   13   29 1
  29   14   15 ar
  30   14   30 1
  31   15   31 1
  32   16   17 1
  33   17   18 2
  34   17   32 1
  35   18   19 1

#	End of record

