#	Name: ASD03081337
#	Creating user name:	WinNT
#	Creation time:	15. 06. 2019 20:27

#	Modifying user name:	WinNT
#	Modification time:	15. 06. 2019 20:27

#	Program:	/corina/corina34_cracker 3.40 0067  02.08.2006

@<TRIPOS>MOLECULE
ASD03081337
  41   43    0    0    0
SMALL
NO_CHARGES


@<TRIPOS>ATOM
   1 C1            -0.1752     1.5035    -0.5682 C.2     
   2 C2            -0.1526    -0.0034    -0.5718 C.3     
   3 O3             0.7214     2.1247    -1.0985 O.2     
   4 N4            -1.1946     2.1607     0.0195 N.am    
   5 C5            -1.1623     3.5562     0.1195 C.ar    
   6 C6            -2.3397     4.2875     0.0198 C.ar    
   7 C7            -2.3116     5.6658     0.1181 C.ar    
   8 C8            -1.1138     6.3235     0.3165 C.ar    
   9 C9             0.0717     5.5978     0.4183 C.ar    
  10 C10            0.0437     4.2089     0.3239 C.ar    
  11 C11            1.7203     7.3789    -0.1776 C.ar    
  12 C12            1.3598     6.3033     0.6315 C.ar    
  13 C13            2.2305     5.8999     1.6470 C.ar    
  14 C14            3.4199     6.5909     1.8052 C.ar    
  15 C15            3.7052     7.6482     0.9611 C.ar    
  16 N16            2.8631     8.0061     0.0109 N.ar    
  17 C17           -2.5797     7.9565    -1.0499 C.2     
  18 O18           -1.7233     7.9856    -1.9018 O.2     
  19 C19           -2.3571     7.1693     0.2157 C.3     
  20 C20           -2.9113     7.7920     1.4987 C.3     
  21 O21           -4.1577     8.4320     1.2177 O.3     
  22 C22           -4.7636     9.0491     2.3552 C.3     
  23 C23           -6.0649     9.6895     1.9457 C.2     
  24 O24           -7.0869     9.4014     2.5208 O.2     
  25 O25           -3.7293     8.6254    -1.2309 O.3     
  26 H26            0.7389    -0.3521    -1.0930 H       
  27 H27           -0.1397    -0.3690     0.4549 H       
  28 H28           -1.0408    -0.3788    -1.0801 H       
  29 H29           -1.9506     1.6665     0.3731 H       
  30 H30           -3.2790     3.7776    -0.1354 H       
  31 H31            0.9592     3.6419     0.4061 H       
  32 H32            1.0587     7.6984    -0.9692 H       
  33 H33            1.9820     5.0703     2.2924 H       
  34 H34            4.1170     6.3074     2.5798 H       
  35 H35            4.6318     8.1897     1.0819 H       
  36 H36           -3.0635     7.0120     2.2448 H       
  37 H37           -2.2033     8.5273     1.8809 H       
  38 H38           -4.9542     8.2953     3.1191 H       
  39 H39           -4.0941     9.8106     2.7552 H       
  40 H40           -6.0835    10.4060     1.1378 H       
  41 H41           -3.8261     9.1160    -2.0585 H       
@<TRIPOS>BOND
   1    1    2 1
   2    1    3 2
   3    1    4 am
   4    2   26 1
   5    2   27 1
   6    2   28 1
   7    4    5 1
   8    4   29 1
   9    5    6 ar
  10    5   10 ar
  11    6    7 ar
  12    6   30 1
  13    7    8 ar
  14    7   19 1
  15    8    9 ar
  16    8   19 1
  17    9   10 ar
  18    9   12 1
  19   10   31 1
  20   11   12 ar
  21   11   16 ar
  22   11   32 1
  23   12   13 ar
  24   13   14 ar
  25   13   33 1
  26   14   15 ar
  27   14   34 1
  28   15   16 ar
  29   15   35 1
  30   17   18 2
  31   17   19 1
  32   17   25 1
  33   19   20 1
  34   20   21 1
  35   20   36 1
  36   20   37 1
  37   21   22 1
  38   22   23 1
  39   22   38 1
  40   22   39 1
  41   23   24 2
  42   23   40 1
  43   25   41 1

#	End of record

