#	Name: ASD04162014
#	Creating user name:	WinNT
#	Creation time:	15. 06. 2019 20:48

#	Modifying user name:	WinNT
#	Modification time:	15. 06. 2019 20:48

#	Program:	/corina/corina34_cracker 3.40 0067  02.08.2006

@<TRIPOS>MOLECULE
ASD04162014
  41   43    0    0    0
SMALL
NO_CHARGES


@<TRIPOS>ATOM
   1 C1            -0.0229     1.3672     0.0079 C.ar    
   2 C2             0.0020    -0.0129     0.0866 C.ar    
   3 C3             1.2113    -0.6875     0.0722 C.ar    
   4 C4             2.4050     0.0251    -0.0217 C.ar    
   5 C5             2.3791     1.4100    -0.1007 C.ar    
   6 C6             1.1646     2.0813    -0.0859 C.ar    
   7 O7             1.2338    -2.0459     0.1503 O.3     
   8 C8            -1.2886    -0.7841     0.1888 C.3     
   9 S9             3.9448    -0.8313    -0.0396 S.3     
  10 N10            1.1364     3.4780    -0.1655 N.am    
  11 S11            2.0879     4.2638    -1.2698 S.o2    
  12 O12            1.8091     5.6497    -1.1256 O.2     
  13 O13            3.3923     3.7156    -1.1378 O.2     
  14 C14            1.5152     3.8052    -2.8717 C.ar    
  15 C15            0.5323     4.5516    -3.4943 C.ar    
  16 C16            0.0830     4.1917    -4.7511 C.ar    
  17 C17            0.6169     3.0857    -5.3855 C.ar    
  18 C18            1.6004     2.3398    -4.7633 C.ar    
  19 C19            2.0528     2.7022    -3.5083 C.ar    
  20 C20            4.0803    -1.2528     1.6658 C.2     
  21 N21            5.0508    -2.0256     2.2366 N.pl3   
  22 C22            4.7482    -2.0761     3.5689 C.2     
  23 N23            3.6664    -1.3719     3.7481 N.2     
  24 N24            3.2706    -0.8788     2.6291 N.2     
  25 C25            0.1263     2.6928    -6.7551 C.3     
  26 H26           -0.9676     1.8905     0.0148 H       
  27 H27            3.3029     1.9649    -0.1733 H       
  28 H28            1.2012    -2.4898    -0.7082 H       
  29 H29           -1.6455    -1.0294    -0.8115 H       
  30 H30           -1.1192    -1.7033     0.7496 H       
  31 H31           -2.0347    -0.1776     0.7021 H       
  32 H32            0.5596     3.9860     0.4262 H       
  33 H33            0.1152     5.4157    -2.9986 H       
  34 H34           -0.6855     4.7745    -5.2371 H       
  35 H35            2.0173     1.4754    -5.2588 H       
  36 H36            2.8213     2.1194    -3.0223 H       
  37 H37            5.7993    -2.4508     1.7895 H       
  38 H38            5.3028    -2.6023     4.3317 H       
  39 H39            0.7290     3.1919    -7.5139 H       
  40 H40            0.2117     1.6128    -6.8757 H       
  41 H41           -0.9166     2.9894    -6.8665 H       
@<TRIPOS>BOND
   1    1    2 ar
   2    1    6 ar
   3    1   26 1
   4    2    3 ar
   5    2    8 1
   6    3    4 ar
   7    3    7 1
   8    4    5 ar
   9    4    9 1
  10    5    6 ar
  11    5   27 1
  12    6   10 1
  13    7   28 1
  14    8   29 1
  15    8   30 1
  16    8   31 1
  17    9   20 1
  18   10   11 am
  19   10   32 1
  20   11   12 2
  21   11   13 2
  22   11   14 1
  23   14   15 ar
  24   14   19 ar
  25   15   16 ar
  26   15   33 1
  27   16   17 ar
  28   16   34 1
  29   17   18 ar
  30   17   25 1
  31   18   19 ar
  32   18   35 1
  33   19   36 1
  34   20   21 1
  35   20   24 2
  36   21   22 1
  37   21   37 1
  38   22   23 2
  39   22   38 1
  40   23   24 1
  41   25   39 1
  42   25   40 1
  43   25   41 1

#	End of record

