#	Name: ASD01881554
#	Creating user name:	WinNT
#	Creation time:	15. 06. 2019 19:42

#	Modifying user name:	WinNT
#	Modification time:	15. 06. 2019 19:42

#	Program:	/corina/corina34_cracker 3.40 0067  02.08.2006

@<TRIPOS>MOLECULE
ASD01881554
  56   59    0    0    0
SMALL
NO_CHARGES


@<TRIPOS>ATOM
   1 C1             0.7765     0.0629     0.1523 C.ar    
   2 C2             1.4129    -1.1461     0.4424 C.ar    
   3 C3             0.6757    -2.3021     0.5751 C.ar    
   4 C4            -0.7047    -2.2691     0.4210 C.ar    
   5 C5            -1.3482    -1.0641     0.1313 C.ar    
   6 C6            -0.6101     0.1022     0.0019 C.ar    
   7 N7            -1.6937    -3.2457     0.4942 N.am    
   8 C8            -2.8848    -2.6638     0.2602 C.2     
   9 N9            -2.7105    -1.3474     0.0376 N.am    
  10 C10           -1.4753    -4.6663     0.7775 C.3     
  11 C11            1.5725     1.3037     0.0104 C.ar    
  12 C12           -1.5498    -4.9026     2.2873 C.3     
  13 C13           -2.9295    -4.4863     2.8012 C.3     
  14 C14           -1.3218    -6.3863     2.5832 C.3     
  15 C15           -3.7705    -0.3787    -0.2529 C.3     
  16 O16           -3.9564    -3.2402     0.2507 O.2     
  17 C17           -0.4727    -4.0716     2.9874 C.3     
  18 C18            1.4065     2.3600     0.9269 C.ar    
  19 C19            2.1629     3.5258     0.7830 C.ar    
  20 C20            3.0651     3.6386    -0.2509 C.ar    
  21 C21            3.2299     2.5959    -1.1575 C.ar    
  22 C22            2.4920     1.4298    -1.0251 C.ar    
  23 O23            4.1220     2.7189    -2.1735 O.3     
  24 C24            3.6773     3.2179    -3.3550 C.ar    
  25 C25            2.3745     3.6907    -3.4840 C.ar    
  26 C26            4.5153     3.2745    -4.4659 C.ar    
  27 C27            4.0303     3.7892    -5.6541 C.ar    
  28 N28            2.7915     4.2248    -5.7484 N.ar    
  29 C29            1.9586     4.1948    -4.7132 C.ar    
  30 F30           -1.2295     1.2696    -0.2783 F       
  31 C31            0.4666     2.2400     2.0006 C.1     
  32 N32           -0.2789     2.1449     2.8524 N.1     
  33 C33            0.6200     4.6801    -4.8651 C.1     
  34 N34           -0.4420     5.0651    -4.9855 N.1     
  35 H35            2.4858    -1.1748     0.5627 H       
  36 H36            1.1713    -3.2353     0.7987 H       
  37 H37           -2.2427    -5.2584     0.2788 H       
  38 H38           -0.4924    -4.9630     0.4114 H       
  39 H39           -3.6969    -5.0783     2.3025 H       
  40 H40           -2.9826    -4.6546     3.8769 H       
  41 H41           -3.0919    -3.4292     2.5905 H       
  42 H42           -0.3389    -6.6829     2.2171 H       
  43 H43           -1.3749    -6.5547     3.6588 H       
  44 H44           -2.0892    -6.9784     2.0845 H       
  45 H45           -4.7346    -0.8871    -0.2629 H       
  46 H46           -3.7757     0.3951     0.5147 H       
  47 H47           -3.5897     0.0766    -1.2266 H       
  48 H48           -0.6352    -3.0146     2.7766 H       
  49 H49           -0.5258    -4.2399     4.0630 H       
  50 H50            0.5102    -4.3682     2.6213 H       
  51 H51            2.0397     4.3390     1.4829 H       
  52 H52            3.6478     4.5414    -0.3591 H       
  53 H53            2.6241     0.6237    -1.7316 H       
  54 H54            1.6967     3.6666    -2.6436 H       
  55 H55            5.5334     2.9204    -4.3999 H       
  56 H56            4.6775     3.8350    -6.5175 H       
@<TRIPOS>BOND
   1    1    2 ar
   2    1   11 1
   3    1    6 ar
   4    2    3 ar
   5    2   35 1
   6    3    4 ar
   7    3   36 1
   8    4    5 ar
   9    4    7 1
  10    5    6 ar
  11    5    9 1
  12    6   30 1
  13    7    8 am
  14    7   10 1
  15    8    9 am
  16    8   16 2
  17    9   15 1
  18   10   12 1
  19   10   37 1
  20   10   38 1
  21   11   18 ar
  22   11   22 ar
  23   12   13 1
  24   12   17 1
  25   12   14 1
  26   13   39 1
  27   13   40 1
  28   13   41 1
  29   14   42 1
  30   14   43 1
  31   14   44 1
  32   15   45 1
  33   15   46 1
  34   15   47 1
  35   17   48 1
  36   17   49 1
  37   17   50 1
  38   18   31 1
  39   18   19 ar
  40   19   20 ar
  41   19   51 1
  42   20   21 ar
  43   20   52 1
  44   21   22 ar
  45   21   23 1
  46   22   53 1
  47   23   24 1
  48   24   25 ar
  49   24   26 ar
  50   25   29 ar
  51   25   54 1
  52   26   27 ar
  53   26   55 1
  54   27   28 ar
  55   27   56 1
  56   28   29 ar
  57   29   33 1
  58   31   32 3
  59   33   34 3

#	End of record

