#	Name: ASD01001073
#	Creating user name:	WinNT
#	Creation time:	15. 06. 2019 18:55

#	Modifying user name:	WinNT
#	Modification time:	15. 06. 2019 18:55

#	Program:	/corina/corina34_cracker 3.40 0067  02.08.2006

@<TRIPOS>MOLECULE
ASD01001073
  39   41    0    0    0
SMALL
NO_CHARGES


@<TRIPOS>ATOM
   1 C1            -0.0166     1.3749     0.0096 C.ar    
   2 C2             0.0021    -0.0041     0.0020 C.ar    
   3 C3             1.1856     2.0865     0.0019 C.ar    
   4 C4             1.2079    -0.6829    -0.0127 C.ar    
   5 C5             2.3988     1.3947    -0.0134 C.ar    
   6 C6             1.1737     3.5613     0.0095 C.2     
   7 C7             2.4023     0.0152    -0.0203 C.ar    
   8 N8             2.2196     4.3130     0.0030 N.2     
   9 N9             1.9399     5.6779     0.0122 N.am    
  10 C10            0.4802     5.8644     0.0270 C.3     
  11 C11           -0.0682     4.4237     0.0194 C.3     
  12 C12            2.8564     6.6661     0.0081 C.2     
  13 C13            0.0514     6.5937     1.2741 C.ar    
  14 C14           -0.9577     7.5365     1.2109 C.ar    
  15 C15           -1.3510     8.2055     2.3548 C.ar    
  16 C16           -0.7357     7.9315     3.5619 C.ar    
  17 C17            0.2727     6.9882     3.6252 C.ar    
  18 C18            0.6631     6.3160     2.4821 C.ar    
  19 C19            4.3256     6.3310    -0.0081 C.3     
  20 O20            2.4987     7.8252     0.0174 O.2     
  21 C21            3.7009     2.1534    -0.0212 C.3     
  22 F22            4.7677     1.2486    -0.0364 F       
  23 F23            3.7611     2.9645    -1.1595 F       
  24 F24            3.7825     2.9515     1.1249 F       
  25 H25           -0.9584     1.9034     0.0169 H       
  26 H26           -0.9265    -0.5555     0.0079 H       
  27 H27            1.2167    -1.7629    -0.0179 H       
  28 H28            3.3397    -0.5211    -0.0314 H       
  29 H29            0.1529     6.4004    -0.8639 H       
  30 H30           -0.6692     4.2480    -0.8729 H       
  31 H31           -0.6530     4.2324     0.9192 H       
  32 H32           -1.4385     7.7505     0.2678 H       
  33 H33           -2.1389     8.9426     2.3053 H       
  34 H34           -1.0425     8.4548     4.4555 H       
  35 H35            0.7537     6.7743     4.5683 H       
  36 H36            1.4510     5.5789     2.5316 H       
  37 H37            4.4513     5.2483    -0.0148 H       
  38 H38            4.7853     6.7556    -0.9006 H       
  39 H39            4.8029     6.7467     0.8793 H       
@<TRIPOS>BOND
   1    1    2 ar
   2    1    3 ar
   3    1   25 1
   4    2    4 ar
   5    2   26 1
   6    3    6 1
   7    3    5 ar
   8    4    7 ar
   9    4   27 1
  10    5   21 1
  11    5    7 ar
  12    6    8 2
  13    6   11 1
  14    7   28 1
  15    8    9 1
  16    9   10 1
  17    9   12 am
  18   10   11 1
  19   10   13 1
  20   10   29 1
  21   11   30 1
  22   11   31 1
  23   12   19 1
  24   12   20 2
  25   13   14 ar
  26   13   18 ar
  27   14   15 ar
  28   14   32 1
  29   15   16 ar
  30   15   33 1
  31   16   17 ar
  32   16   34 1
  33   17   18 ar
  34   17   35 1
  35   18   36 1
  36   19   37 1
  37   19   38 1
  38   19   39 1
  39   21   22 1
  40   21   23 1
  41   21   24 1

#	End of record

