#	Name: ASD01190175
#	Creating user name:	WinNT
#	Creation time:	15. 06. 2019 19:07

#	Modifying user name:	WinNT
#	Modification time:	15. 06. 2019 19:07

#	Program:	/corina/corina34_cracker 3.40 0067  02.08.2006

@<TRIPOS>MOLECULE
ASD01190175
  51   55    0    0    0
SMALL
NO_CHARGES


@<TRIPOS>ATOM
   1 C1            -0.0187     1.5258     0.0104 C.3     
   2 C2            -0.9584     2.6616     0.4198 C.3     
   3 N3             5.2689     3.4280     0.1943 N.pl3   
   4 N4             5.3946     3.5822     1.5788 N.2     
   5 C5             4.2872     3.2341     2.1705 C.2     
   6 C6             3.3423     2.8158     1.1397 C.ar    
   7 C7             2.0241     2.3469     1.1612 C.ar    
   8 C8             1.4008     2.0314    -0.0114 C.ar    
   9 C9             2.0628     2.1715    -1.2250 C.ar    
  10 C10            3.3500     2.6274    -1.2714 C.ar    
  11 C11            4.0113     2.9571    -0.0915 C.ar    
  12 C12            6.3921     2.9386    -1.8944 C.ar    
  13 C13            6.2636     3.7136    -0.7489 C.ar    
  14 C14            7.1383     4.7792    -0.5527 C.ar    
  15 C15            8.1055     5.0224    -1.5143 C.ar    
  16 C16            8.1704     4.2063    -2.6281 C.ar    
  17 N17            7.3270     3.2044    -2.7843 N.ar    
  18 C18            9.2198     4.4646    -3.6784 C.3     
  19 N19           -0.7710    -0.8294     2.7388 N.pl3   
  20 C20           -0.9391     0.3552     2.0750 C.2     
  21 C21           -0.1344     0.3962     1.0013 C.2     
  22 C22            0.6099    -0.8652     0.9755 C.ar    
  23 C23            1.5763    -1.4047     0.1243 C.ar    
  24 C24            2.0903    -2.6443     0.3808 C.ar    
  25 C25            1.6594    -3.3725     1.4815 C.ar    
  26 C26            0.7066    -2.8596     2.3339 C.ar    
  27 C27            0.1699    -1.5990     2.0921 C.ar    
  28 C28           -1.4816    -1.2183     3.9595 C.3     
  29 F29           -0.8510     3.7102    -0.5000 F       
  30 F30           -2.2762     2.1922     0.4401 F       
  31 F31           -0.6074     3.1210     1.6938 F       
  32 O32           -0.3772     1.0565    -1.2908 O.3     
  33 H33            4.1015     3.2520     3.2342 H       
  34 H34            1.5031     2.2342     2.1005 H       
  35 H35            1.5539     1.9167    -2.1428 H       
  36 H36            3.8534     2.7314    -2.2212 H       
  37 H37            5.7222     2.1068    -2.0550 H       
  38 H38            7.0643     5.4010     0.3273 H       
  39 H39            8.8006     5.8404    -1.3953 H       
  40 H40           10.1220     3.9028    -3.4365 H       
  41 H41            8.8451     4.1486    -4.6519 H       
  42 H42            9.4514     5.5294    -3.7064 H       
  43 H43           -1.6188     1.1406     2.3707 H       
  44 H44            1.9161    -0.8441    -0.7341 H       
  45 H45            2.8375    -3.0612    -0.2781 H       
  46 H46            2.0751    -4.3510     1.6711 H       
  47 H47            0.3776    -3.4339     3.1873 H       
  48 H48           -2.4016    -1.7392     3.6940 H       
  49 H49           -0.8492    -1.8779     4.5536 H       
  50 H50           -1.7229    -0.3272     4.5390 H       
  51 H51            0.1780     0.3343    -1.6153 H       
@<TRIPOS>BOND
   1    1    2 1
   2    1    8 1
   3    1   21 1
   4    1   32 1
   5    2   29 1
   6    2   30 1
   7    2   31 1
   8    3    4 1
   9    3   11 1
  10    3   13 1
  11    4    5 2
  12    5    6 1
  13    5   33 1
  14    6    7 ar
  15    6   11 ar
  16    7    8 ar
  17    7   34 1
  18    8    9 ar
  19    9   10 ar
  20    9   35 1
  21   10   11 ar
  22   10   36 1
  23   12   13 ar
  24   12   17 ar
  25   12   37 1
  26   13   14 ar
  27   14   15 ar
  28   14   38 1
  29   15   16 ar
  30   15   39 1
  31   16   17 ar
  32   16   18 1
  33   18   40 1
  34   18   41 1
  35   18   42 1
  36   19   20 1
  37   19   27 1
  38   19   28 1
  39   20   21 2
  40   20   43 1
  41   21   22 1
  42   22   23 ar
  43   22   27 ar
  44   23   24 ar
  45   23   44 1
  46   24   25 ar
  47   24   45 1
  48   25   26 ar
  49   25   46 1
  50   26   27 ar
  51   26   47 1
  52   28   48 1
  53   28   49 1
  54   28   50 1
  55   32   51 1

#	End of record

