#	Name: ASD01410037
#	Creating user name:	WinNT
#	Creation time:	15. 06. 2019 19:16

#	Modifying user name:	WinNT
#	Modification time:	15. 06. 2019 19:16

#	Program:	/corina/corina34_cracker 3.40 0067  02.08.2006

@<TRIPOS>MOLECULE
ASD01410037
  33   34    0    0    0
SMALL
NO_CHARGES


@<TRIPOS>ATOM
   1 C1            -0.0269     1.4065    -0.0669 C.ar    
   2 C2            -0.0039     0.0235    -0.0690 C.ar    
   3 C3            -1.1890    -0.6885    -0.0487 C.ar    
   4 C4            -2.4023    -0.0146    -0.0261 C.ar    
   5 C5            -2.4234     1.3721    -0.0240 C.ar    
   6 C6            -1.2363     2.0807    -0.0386 C.ar    
   7 O7            -3.5684    -0.7130    -0.0065 O.3     
   8 C8            -4.7789     0.0461     0.0162 C.3     
   9 C9            -5.9591    -0.8909     0.0356 C.2     
  10 N10           -7.2124    -0.3956     0.0586 N.am    
  11 C11           -8.3030    -1.2563    -0.0366 C.ar    
  12 C12           -8.2254    -2.3961    -0.8250 C.ar    
  13 C13           -9.3078    -3.2480    -0.9181 C.ar    
  14 C14          -10.4775    -2.9739    -0.2283 C.ar    
  15 C15          -10.5733    -1.8471     0.5595 C.ar    
  16 C16           -9.4844    -0.9787     0.6687 C.ar    
  17 C17           -9.5796     0.2279     1.5097 C.2     
  18 O18          -10.7511     0.5533     2.0909 O.3     
  19 O19           -8.6019     0.9292     1.6790 O.2     
  20 O20           -5.7811    -2.0905     0.0306 O.2     
  21 Cl21          -1.1595    -2.4242    -0.0519 Cl      
  22 Cl22           1.4624     2.2983    -0.0924 Cl      
  23 Cl23          -1.2620     3.8165    -0.0360 Cl      
  24 H24            0.9402    -0.5006    -0.0869 H       
  25 H25           -3.3664     1.8982    -0.0064 H       
  26 H26           -4.7980     0.6730     0.9076 H       
  27 H27           -4.8296     0.6758    -0.8721 H       
  28 H28           -7.3547     0.5603     0.1415 H       
  29 H29           -7.3173    -2.6166    -1.3666 H       
  30 H30           -9.2424    -4.1336    -1.5329 H       
  31 H31          -11.3187    -3.6465    -0.3084 H       
  32 H32          -11.4876    -1.6379     1.0949 H       
  33 H33          -10.7646     1.3537     2.6334 H       
@<TRIPOS>BOND
   1    1    2 ar
   2    1   22 1
   3    1    6 ar
   4    2    3 ar
   5    2   24 1
   6    3    4 ar
   7    3   21 1
   8    4    5 ar
   9    4    7 1
  10    5    6 ar
  11    5   25 1
  12    6   23 1
  13    7    8 1
  14    8    9 1
  15    8   26 1
  16    8   27 1
  17    9   10 am
  18    9   20 2
  19   10   11 1
  20   10   28 1
  21   11   12 ar
  22   11   16 ar
  23   12   13 ar
  24   12   29 1
  25   13   14 ar
  26   13   30 1
  27   14   15 ar
  28   14   31 1
  29   15   16 ar
  30   15   32 1
  31   16   17 1
  32   17   18 1
  33   17   19 2
  34   18   33 1

#	End of record

