#	Name: ASD00840620
#	Creating user name:	WinNT
#	Creation time:	15. 06. 2019 18:39

#	Modifying user name:	WinNT
#	Modification time:	15. 06. 2019 18:39

#	Program:	/corina/corina34_cracker 3.40 0067  02.08.2006

@<TRIPOS>MOLECULE
ASD00840620
  87   92    0    0    0
SMALL
NO_CHARGES


@<TRIPOS>ATOM
   1 N1             1.0963     1.4621    -0.7252 N.ar    
   2 C2             1.3509     0.1694    -0.8403 C.ar    
   3 C3             1.2570    -0.6714     0.2616 C.ar    
   4 C4             0.8925    -0.1388     1.4856 C.ar    
   5 C5             0.6335     1.2228     1.5646 C.ar    
   6 C6             0.7465     1.9988     0.4285 C.ar    
   7 C7             1.5476    -2.1438     0.1255 C.3     
   8 C8             1.2514    -2.8653     1.4230 C.2     
   9 C9             0.7332    -2.7461    -1.0212 C.3     
  10 C10           -0.7295    -2.4542    -0.8058 C.2     
  11 N11           -1.6504    -2.9722    -1.6426 N.am    
  12 O12           -1.0780    -1.7531     0.1204 O.2     
  13 C13           -3.0709    -2.6119    -1.5182 C.3     
  14 C14           -3.5824    -2.1668    -2.8924 C.3     
  15 N15           -3.2912    -3.2126    -3.8820 N.3     
  16 C16           -1.8441    -3.4164    -4.0318 C.3     
  17 C17           -1.2606    -3.9080    -2.7082 C.3     
  18 C18           -3.9157    -2.9025    -5.1750 C.3     
  19 C19           -3.4898    -3.9452    -6.2122 C.3     
  20 C20           -4.1911    -3.6524    -7.5405 C.3     
  21 N21           -5.6462    -3.6943    -7.3469 N.3     
  22 C22           -6.0843    -2.6700    -6.3903 C.3     
  23 C23           -5.4395    -2.9335    -5.0277 C.3     
  24 C24           -6.3519    -3.5548    -8.6277 C.3     
  25 O25            0.1745    -2.9395     1.9759 O.2     
  26 N26            2.4046    -3.4086     1.8466 N.am    
  27 C27            3.0258    -2.3743    -0.0924 C.ar    
  28 C28            3.4642    -3.1414     0.9843 C.ar    
  29 C29            3.8928    -1.9821    -1.0806 C.ar    
  30 C30            5.2400    -2.3548    -1.0128 C.ar    
  31 C31            5.6879    -3.1259     0.0666 C.ar    
  32 C32            4.8065    -3.5147     1.0526 C.ar    
  33 F33            6.9865    -3.4909     0.1413 F       
  34 C34            2.2496    -5.9797     2.8161 C.ar    
  35 C35            3.2990    -6.7933     2.4318 C.ar    
  36 C36            0.9659    -6.4890     2.8751 C.ar    
  37 C37            0.7316    -7.8119     2.5498 C.ar    
  38 C38            1.7809    -8.6254     2.1651 C.ar    
  39 C39            3.0646    -8.1161     2.1061 C.ar    
  40 H40            1.5978    -9.6590     1.9110 H       
  41 H41            4.3020    -6.3953     2.3856 H       
  42 C42           -7.8393    -3.8504    -8.4253 C.3     
  43 C43            6.1531    -1.9511    -2.0394 C.1     
  44 N44            6.8775    -1.6308    -2.8538 N.1     
  45 O45            1.7069    -0.3404    -2.0461 O.3     
  46 C46            2.2184    -0.1639    -4.4015 C.3     
  47 C47            1.6779     0.5518    -3.1620 C.3     
  48 S48            2.5494    -4.2953     3.2377 S.o2    
  49 O49            3.9145    -4.2153     3.6243 O.2     
  50 O50            1.4780    -3.8961     4.0814 O.2     
  51 H51            0.8109    -0.7682     2.3595 H       
  52 H52            0.3464     1.6701     2.5048 H       
  53 H53            0.5466     3.0586     0.4847 H       
  54 H54            1.0560    -2.3078    -1.9655 H       
  55 H55            0.8881    -3.8247    -1.0495 H       
  56 H56           -3.6398    -3.4775    -1.1785 H       
  57 H57           -3.1805    -1.7953    -0.8046 H       
  58 H58           -4.6587    -2.0015    -2.8439 H       
  59 H59           -3.0847    -1.2418    -3.1836 H       
  60 H60           -1.6597    -4.1574    -4.8097 H       
  61 H61           -1.3706    -2.4740    -4.3071 H       
  62 H62           -0.1738    -3.9509    -2.7805 H       
  63 H63           -1.6544    -4.8984    -2.4797 H       
  64 H64           -3.6007    -1.9121    -5.5035 H       
  65 H65           -2.4099    -3.8986    -6.3528 H       
  66 H66           -3.7695    -4.9397    -5.8645 H       
  67 H67           -3.9002    -2.6633    -7.8945 H       
  68 H68           -3.9010    -4.4014    -8.2773 H       
  69 H69           -5.7845    -1.6855    -6.7497 H       
  70 H70           -7.1693    -2.7055    -6.2917 H       
  71 H71           -5.7499    -3.9121    -4.6614 H       
  72 H72           -5.7526    -2.1640    -4.3220 H       
  73 H73           -6.2310    -2.5376    -9.0002 H       
  74 H74           -5.9367    -4.2579    -9.3498 H       
  75 H75            3.5365    -1.3877    -1.9089 H       
  76 H76            5.1573    -4.1097     1.8829 H       
  77 H77            0.1461    -5.8534     3.1757 H       
  78 H78           -0.2713    -8.2101     2.5966 H       
  79 H79            3.8845    -8.7517     1.8058 H       
  80 H80           -8.3630    -3.7469    -9.3756 H       
  81 H81           -7.9602    -4.8676    -8.0528 H       
  82 H82           -8.2545    -3.1473    -7.7032 H       
  83 H83            1.5506    -0.9830    -4.6682 H       
  84 H84            2.2783     0.5409    -5.2308 H       
  85 H85            3.2115    -0.5595    -4.1885 H       
  86 H86            0.6520     0.8711    -3.3452 H       
  87 H87            2.2966     1.4230    -2.9467 H       
@<TRIPOS>BOND
   1    1    2 ar
   2    1    6 ar
   3    2    3 ar
   4    2   45 1
   5    3    4 ar
   6    3    7 1
   7    4    5 ar
   8    4   51 1
   9    5    6 ar
  10    5   52 1
  11    6   53 1
  12    7    8 1
  13    7    9 1
  14    7   27 1
  15    8   25 2
  16    8   26 am
  17    9   10 1
  18    9   54 1
  19    9   55 1
  20   10   11 am
  21   10   12 2
  22   11   13 1
  23   11   17 1
  24   13   14 1
  25   13   56 1
  26   13   57 1
  27   14   15 1
  28   14   58 1
  29   14   59 1
  30   15   16 1
  31   15   18 1
  32   16   17 1
  33   16   60 1
  34   16   61 1
  35   17   62 1
  36   17   63 1
  37   18   19 1
  38   18   23 1
  39   18   64 1
  40   19   20 1
  41   19   65 1
  42   19   66 1
  43   20   21 1
  44   20   67 1
  45   20   68 1
  46   21   22 1
  47   21   24 1
  48   22   23 1
  49   22   69 1
  50   22   70 1
  51   23   71 1
  52   23   72 1
  53   24   42 1
  54   24   73 1
  55   24   74 1
  56   26   48 am
  57   26   28 1
  58   27   28 ar
  59   27   29 ar
  60   28   32 ar
  61   29   30 ar
  62   29   75 1
  63   30   31 ar
  64   30   43 1
  65   31   32 ar
  66   31   33 1
  67   32   76 1
  68   34   35 ar
  69   34   36 ar
  70   34   48 1
  71   35   41 1
  72   35   39 ar
  73   36   37 ar
  74   36   77 1
  75   37   38 ar
  76   37   78 1
  77   38   39 ar
  78   38   40 1
  79   39   79 1
  80   42   80 1
  81   42   81 1
  82   42   82 1
  83   43   44 3
  84   45   47 1
  85   46   47 1
  86   46   83 1
  87   46   84 1
  88   46   85 1
  89   47   86 1
  90   47   87 1
  91   48   49 2
  92   48   50 2

#	End of record

