#	Name: ASD06020147
#	Creating user name:	WinNT
#	Creation time:	15. 06. 2019 21:04

#	Modifying user name:	WinNT
#	Modification time:	15. 06. 2019 21:04

#	Program:	/corina/corina34_cracker 3.40 0067  02.08.2006

@<TRIPOS>MOLECULE
ASD06020147
  38   41    0    0    0
SMALL
NO_CHARGES


@<TRIPOS>ATOM
   1 C1             0.0027    -0.0072     0.0093 C.1     
   2 C2            -0.0172     1.4245     0.0313 C.ar    
   3 C3             1.1903     2.1502     0.0274 C.ar    
   4 C4             1.1563     3.5445     0.0485 C.ar    
   5 C5            -0.0565     4.2055     0.0729 C.ar    
   6 C6            -1.2451     3.4915     0.0771 C.ar    
   7 C7            -1.2312     2.1086     0.0507 C.ar    
   8 N8             0.0185    -1.1430    -0.0080 N.1     
   9 C9             6.1971     0.2716    -0.0591 C.ar    
  10 C10            4.8491     0.6454    -0.0378 C.ar    
  11 C11            3.8584    -0.3439    -0.0404 C.ar    
  12 C12            4.2946    -1.6933    -0.0655 C.ar    
  13 C13            5.6256    -1.9673    -0.0857 C.ar    
  14 N14            6.5355    -1.0057    -0.0816 N.ar    
  15 S15            4.0609     2.2188    -0.0057 S.3     
  16 C16            2.4840     1.4393     0.0018 C.2     
  17 N17            2.6215     0.1529    -0.0185 N.2     
  18 N18            7.1869     1.2503    -0.0625 N.pl3   
  19 C19           10.1321    -0.7325     0.3110 C.ar    
  20 N20            8.8645    -0.3833     0.2246 N.ar    
  21 C21            8.5222     0.8865     0.0284 C.ar    
  22 C22            9.5288     1.8478    -0.0852 C.ar    
  23 C23           10.8431     1.4351     0.0118 C.ar    
  24 N24           11.1048     0.1504     0.2080 N.ar    
  25 C25           11.9663     2.4331    -0.1044 C.3     
  26 O26           11.4238     3.7388    -0.3119 O.3     
  27 F27           -2.4241     4.1507     0.1016 F       
  28 Cl28           2.6380     4.4491     0.0445 Cl      
  29 H29           -0.0789     5.2851     0.0891 H       
  30 H30           -2.1610     1.5591     0.0493 H       
  31 H31            3.5739    -2.4977    -0.0682 H       
  32 H32            5.9498    -2.9973    -0.1047 H       
  33 H33            6.9428     2.1868    -0.1284 H       
  34 H34           10.3807    -1.7706     0.4751 H       
  35 H35            9.2854     2.8878    -0.2452 H       
  36 H36           12.5552     2.4259     0.8128 H       
  37 H37           12.6036     2.1663    -0.9475 H       
  38 H38           12.0914     4.4333    -0.3959 H       
@<TRIPOS>BOND
   1    1    2 1
   2    1    8 3
   3    2    3 ar
   4    2    7 ar
   5    3    4 ar
   6    3   16 1
   7    4    5 ar
   8    4   28 1
   9    5    6 ar
  10    5   29 1
  11    6    7 ar
  12    6   27 1
  13    7   30 1
  14    9   10 ar
  15    9   14 ar
  16    9   18 1
  17   10   11 ar
  18   10   15 1
  19   11   12 ar
  20   11   17 1
  21   12   13 ar
  22   12   31 1
  23   13   14 ar
  24   13   32 1
  25   15   16 1
  26   16   17 2
  27   18   21 1
  28   18   33 1
  29   19   20 ar
  30   19   24 ar
  31   19   34 1
  32   20   21 ar
  33   21   22 ar
  34   22   23 ar
  35   22   35 1
  36   23   24 ar
  37   23   25 1
  38   25   26 1
  39   25   36 1
  40   25   37 1
  41   26   38 1

#	End of record

