#	Name: ASD02270023
#	Creating user name:	WinNT
#	Creation time:	15. 06. 2019 20:20

#	Modifying user name:	WinNT
#	Modification time:	15. 06. 2019 20:20

#	Program:	/corina/corina34_cracker 3.40 0067  02.08.2006

@<TRIPOS>MOLECULE
ASD02270023
  56   60    0    0    0
SMALL
NO_CHARGES


@<TRIPOS>ATOM
   1 C1            -0.0167     1.3768     0.0096 C.ar    
   2 C2             0.0021    -0.0041     0.0020 C.ar    
   3 C3             1.2139    -0.6778    -0.0132 C.ar    
   4 C4             2.4100     0.0426    -0.0208 C.ar    
   5 C5             2.3811     1.4289    -0.0131 C.ar    
   6 C6             1.1692     2.0911     0.0021 C.ar    
   7 N7             1.5569    -2.0277    -0.0238 N.am    
   8 C8             2.8998    -2.1240    -0.0371 C.2     
   9 N9             3.4426    -0.8919    -0.0357 N.am    
  10 O10            3.5275    -3.1664    -0.0491 O.2     
  11 C11            4.8753    -0.5863    -0.0483 C.3     
  12 C12            5.5754    -1.1863     1.1959 C.3     
  13 C13            7.0501    -1.3318     0.7694 C.3     
  14 C14            7.0537    -1.4122    -0.7741 C.3     
  15 C15            5.5811    -1.3118    -1.2203 C.3     
  16 C16            7.8077    -0.0414     1.1415 C.3     
  17 C17            8.7159     0.2347    -0.0821 C.3     
  18 C18            7.8135    -0.1673    -1.2747 C.3     
  19 C19            9.0870     1.7170    -0.1585 C.3     
  20 C20           10.0816     1.9356    -1.3004 C.3     
  21 N21           10.4369     3.3549    -1.3735 N.am    
  22 C22           11.3050     3.7849    -2.3106 C.2     
  23 O23           11.7932     2.9948    -3.0951 O.2     
  24 C24           11.6634     5.2161    -2.3843 C.ar    
  25 C25           12.5624     5.6640    -3.3540 C.ar    
  26 C26           12.8939     7.0008    -3.4197 C.ar    
  27 C27           12.3367     7.9007    -2.5254 C.ar    
  28 C28           11.4418     7.4619    -1.5584 C.ar    
  29 C29           11.0995     6.1266    -1.4878 C.ar    
  30 F30           10.9016     8.3438    -0.6890 F       
  31 F31           12.6655     9.2093    -2.5942 F       
  32 H32           -0.9605     1.9018     0.0169 H       
  33 H33           -0.9251    -0.5580     0.0083 H       
  34 H34            3.3042     1.9895    -0.0189 H       
  35 H35            1.1466     3.1709     0.0081 H       
  36 H36            0.9344    -2.7716    -0.0215 H       
  37 H37            5.0388     0.4900    -0.1020 H       
  38 H38            5.4894    -0.5088     2.0455 H       
  39 H39            5.1511    -2.1603     1.4394 H       
  40 H40            7.5074    -2.2151     1.2153 H       
  41 H41            7.5127    -2.3369    -1.1238 H       
  42 H42            5.1576    -2.3059    -1.3636 H       
  43 H43            5.4993    -0.7260    -2.1359 H       
  44 H44            7.1086     0.7815     1.2908 H       
  45 H45            8.4105    -0.1978     2.0361 H       
  46 H46            9.6103    -0.3873    -0.0475 H       
  47 H47            8.4206    -0.4158    -2.1453 H       
  48 H48            7.1154     0.6354    -1.5121 H       
  49 H49            8.1891     2.3075    -0.3407 H       
  50 H50            9.5408     2.0269     0.7829 H       
  51 H51           10.9795     1.3451    -1.1182 H       
  52 H52            9.6277     1.6257    -2.2418 H       
  53 H53           10.0475     3.9853    -0.7475 H       
  54 H54           12.9980     4.9640    -4.0517 H       
  55 H55           13.5896     7.3472    -4.1697 H       
  56 H56           10.4036     5.7854    -0.7357 H       
@<TRIPOS>BOND
   1    1    2 ar
   2    1    6 ar
   3    1   32 1
   4    2    3 ar
   5    2   33 1
   6    3    4 ar
   7    3    7 1
   8    4    5 ar
   9    4    9 1
  10    5    6 ar
  11    5   34 1
  12    6   35 1
  13    7    8 am
  14    7   36 1
  15    8    9 am
  16    8   10 2
  17    9   11 1
  18   11   12 1
  19   11   15 1
  20   11   37 1
  21   12   13 1
  22   12   38 1
  23   12   39 1
  24   13   14 1
  25   13   16 1
  26   13   40 1
  27   14   15 1
  28   14   18 1
  29   14   41 1
  30   15   42 1
  31   15   43 1
  32   16   17 1
  33   16   44 1
  34   16   45 1
  35   17   18 1
  36   17   19 1
  37   17   46 1
  38   18   47 1
  39   18   48 1
  40   19   20 1
  41   19   49 1
  42   19   50 1
  43   20   21 1
  44   20   51 1
  45   20   52 1
  46   21   22 am
  47   21   53 1
  48   22   23 2
  49   22   24 1
  50   24   25 ar
  51   24   29 ar
  52   25   26 ar
  53   25   54 1
  54   26   27 ar
  55   26   55 1
  56   27   28 ar
  57   27   31 1
  58   28   29 ar
  59   28   30 1
  60   29   56 1

#	End of record

