#	Name: ASD05430575
#	Creating user name:	WinNT
#	Creation time:	15. 06. 2019 21:00

#	Modifying user name:	WinNT
#	Modification time:	15. 06. 2019 21:00

#	Program:	/corina/corina34_cracker 3.40 0067  02.08.2006

@<TRIPOS>MOLECULE
ASD05430575
  31   32    0    0    0
SMALL
NO_CHARGES


@<TRIPOS>ATOM
   1 N1            -0.0158     1.3175     0.0093 N.ar    
   2 C2             0.0021    -0.0041     0.0020 C.ar    
   3 C3             1.0888     2.0382     0.0026 C.ar    
   4 C4             2.3261     1.4181    -0.0130 C.ar    
   5 C5             2.3818     0.0121    -0.0211 C.ar    
   6 C6             1.1792    -0.6998    -0.0125 C.ar    
   7 C7             1.0034     3.5427     0.0115 C.3     
   8 C8             1.1796    -2.2067    -0.0201 C.3     
   9 C9             0.4711    -2.7232     1.2338 C.3     
  10 C10            0.4459    -2.7107    -1.2645 C.3     
  11 C11            0.2425     4.0177    -1.2280 C.3     
  12 C12            0.2663     4.0043     1.2703 C.3     
  13 O13            3.6063     1.8440    -0.0234 O.3     
  14 C14            4.4058     0.7660    -0.0371 C.2     
  15 N15            3.6951    -0.3234    -0.0359 N.2     
  16 H16           -0.9323    -0.5457     0.0080 H       
  17 H17            2.0088     3.9638     0.0042 H       
  18 H18            2.2073    -2.5697    -0.0322 H       
  19 H19            0.4714    -3.8132     1.2284 H       
  20 H20            0.9938    -2.3642     2.1204 H       
  21 H21           -0.5566    -2.3603     1.2460 H       
  22 H22            0.9507    -2.3428    -2.1578 H       
  23 H23            0.4463    -3.8007    -1.2700 H       
  24 H24           -0.5818    -2.3477    -1.2523 H       
  25 H25           -0.7629     3.5966    -1.2207 H       
  26 H26            0.1807     5.1059    -1.2216 H       
  27 H27            0.7676     3.6889    -2.1248 H       
  28 H28            0.8084     3.6659     2.1534 H       
  29 H29            0.2046     5.0925     1.2768 H       
  30 H30           -0.7390     3.5832     1.2777 H       
  31 H31            5.4853     0.7986    -0.0482 H       
@<TRIPOS>BOND
   1    1    2 ar
   2    1    3 ar
   3    2    6 ar
   4    2   16 1
   5    3    4 ar
   6    3    7 1
   7    4    5 ar
   8    4   13 1
   9    5    6 ar
  10    5   15 1
  11    6    8 1
  12    7   11 1
  13    7   12 1
  14    7   17 1
  15    8    9 1
  16    8   10 1
  17    8   18 1
  18    9   19 1
  19    9   20 1
  20    9   21 1
  21   10   22 1
  22   10   23 1
  23   10   24 1
  24   11   25 1
  25   11   26 1
  26   11   27 1
  27   12   28 1
  28   12   29 1
  29   12   30 1
  30   13   14 1
  31   14   15 2
  32   14   31 1

#	End of record

