#	Name: ASD01420692
#	Creating user name:	WinNT
#	Creation time:	15. 06. 2019 19:20

#	Modifying user name:	WinNT
#	Modification time:	15. 06. 2019 19:20

#	Program:	/corina/corina34_cracker 3.40 0067  02.08.2006

@<TRIPOS>MOLECULE
ASD01420692
  28   27    0    0    0
SMALL
NO_CHARGES


@<TRIPOS>ATOM
   1 N1            -0.0149     1.2458     0.0089 N.2     
   2 C2             0.0021    -0.0041     0.0020 C.1     
   3 N3             0.0190    -1.2539    -0.0049 N.2     
   4 C4             0.0168    -1.9795    -1.2775 C.3     
   5 C5             1.2771    -2.8416    -1.3753 C.3     
   6 C6             1.2748    -3.5994    -2.7044 C.3     
   7 N7             2.4848    -4.4271    -2.7982 N.3     
   8 C8             2.4073    -5.3450    -3.9425 C.3     
   9 C9             3.6901    -3.5909    -2.8748 C.3     
  10 C10            1.2437     1.9955     0.0009 C.3     
  11 C11            1.3009     2.8828    -1.2442 C.3     
  12 H12           -0.8651    -2.6179    -1.3303 H       
  13 H13           -0.0007    -1.2669    -2.1021 H       
  14 H14            2.1590    -2.2032    -1.3225 H       
  15 H15            1.2946    -3.5543    -0.5507 H       
  16 H16            0.3929    -4.2378    -2.7571 H       
  17 H17            1.2573    -2.8867    -3.5289 H       
  18 H18            2.3048    -4.7703    -4.8630 H       
  19 H19            3.3156    -5.9458    -3.9886 H       
  20 H20            1.5440    -6.0000    -3.8251 H       
  21 H21            3.7593    -2.9706    -1.9811 H       
  22 H22            4.5712    -4.2288    -2.9435 H       
  23 H23            3.6340    -2.9526    -3.7566 H       
  24 H24            1.3015     2.6181     0.8937 H       
  25 H25            2.0817     1.2985    -0.0108 H       
  26 H26            1.2432     2.2602    -2.1370 H       
  27 H27            0.4629     3.5798    -1.2325 H       
  28 H28            2.2374     3.4406    -1.2501 H       
@<TRIPOS>BOND
   1    1    2 2
   2    1   10 1
   3    2    3 2
   4    3    4 1
   5    4    5 1
   6    4   12 1
   7    4   13 1
   8    5    6 1
   9    5   14 1
  10    5   15 1
  11    6    7 1
  12    6   16 1
  13    6   17 1
  14    7    8 1
  15    7    9 1
  16    8   18 1
  17    8   19 1
  18    8   20 1
  19    9   21 1
  20    9   22 1
  21    9   23 1
  22   10   11 1
  23   10   24 1
  24   10   25 1
  25   11   26 1
  26   11   27 1
  27   11   28 1

#	End of record

