#	Name: ASD01815958
#	Creating user name:	WinNT
#	Creation time:	15. 06. 2019 19:34

#	Modifying user name:	WinNT
#	Modification time:	15. 06. 2019 19:34

#	Program:	/corina/corina34_cracker 3.40 0067  02.08.2006

@<TRIPOS>MOLECULE
ASD01815958
  66   72    0    0    0
SMALL
NO_CHARGES


@<TRIPOS>ATOM
   1 C1             1.1860     2.2606    -0.5294 C.ar    
   2 C2             0.8021     0.9297    -0.5130 C.ar    
   3 C3             1.7403    -0.0717    -0.3557 C.ar    
   4 C4             3.0872     0.2504    -0.2121 C.ar    
   5 C5             3.4736     1.6003    -0.2295 C.ar    
   6 C6             2.5178     2.6016    -0.3884 C.ar    
   7 N7             4.0327    -0.7492    -0.0535 N.pl3   
   8 C8             5.3438    -0.4990     0.0897 C.2     
   9 C9             5.8387     0.7816     0.0883 C.2     
  10 C10            4.9055     1.9195    -0.0758 C.2     
  11 C11            7.1599     1.3883     0.2164 C.2     
  12 N12            6.9711     2.7228     0.1314 N.am    
  13 N13            5.6151     3.0109    -0.0429 N.2     
  14 C14            7.9895     3.6815     0.2067 C.ar    
  15 O15            8.2217     0.8067     0.3702 O.2     
  16 C16            3.5814    -2.1429    -0.0411 C.3     
  17 C17            3.4352    -2.6362    -1.4576 C.ar    
  18 C18            4.5183    -2.5898    -2.3200 C.ar    
  19 C19            4.3883    -3.0414    -3.6203 C.ar    
  20 C20            3.1659    -3.5435    -4.0610 C.ar    
  21 C21            2.0804    -3.5877    -3.1879 C.ar    
  22 C22            2.2216    -3.1390    -1.8905 C.ar    
  23 F23            2.8913     3.8999    -0.4050 F       
  24 F24            1.3505    -1.3652    -0.3408 F       
  25 C25            8.7067     4.0258    -0.9312 C.ar    
  26 C26            9.7104     4.9715    -0.8540 C.ar    
  27 C27           10.0025     5.5761     0.3550 C.ar    
  28 C28            9.2914     5.2368     1.4912 C.ar    
  29 C29            8.2810     4.2949     1.4203 C.ar    
  30 F30            7.5860     3.9633     2.5304 F       
  31 F31            5.7027    -2.1024    -1.8901 F       
  32 C32            3.0199    -4.0291    -5.4553 C.ar    
  33 C33            4.0989    -3.9879    -6.3332 C.ar    
  34 N34            3.9742    -4.4177    -7.5730 N.ar    
  35 C35            2.8297    -4.9020    -8.0309 C.ar    
  36 C36            1.7064    -4.9749    -7.2113 C.ar    
  37 C37            1.7966    -4.5403    -5.9040 C.ar    
  38 N38            2.7488    -5.3426    -9.3458 N.3     
  39 C39            4.0364    -5.1797   -10.0363 C.3     
  40 C40            3.9195    -5.7311   -11.4597 C.3     
  41 O41            2.8528    -5.0626   -12.1384 O.3     
  42 C42            1.5838    -5.2011   -11.4935 C.3     
  43 C43            1.6771    -4.6443   -10.0705 C.3     
  44 H44            0.4429     3.0338    -0.6572 H       
  45 H45           -0.2409     0.6727    -0.6239 H       
  46 H46            6.0271    -1.3267     0.2096 H       
  47 H47            4.3131    -2.7571     0.4838 H       
  48 H48            2.6197    -2.2089     0.4677 H       
  49 H49            5.2325    -3.0046    -4.2929 H       
  50 H50            1.1308    -3.9761    -3.5252 H       
  51 H51            1.3805    -3.1733    -1.2140 H       
  52 H52            8.4800     3.5543    -1.8761 H       
  53 H53           10.2684     5.2389    -1.7391 H       
  54 H54           10.7883     6.3149     0.4119 H       
  55 H55            9.5222     5.7106     2.4339 H       
  56 H56            5.0482    -3.5993    -5.9953 H       
  57 H57            0.7767    -5.3709    -7.5925 H       
  58 H58            0.9413    -4.5852    -5.2461 H       
  59 H59            4.2968    -4.1220   -10.0759 H       
  60 H60            4.8103    -5.7257    -9.4968 H       
  61 H61            4.8542    -5.5607   -11.9940 H       
  62 H62            3.7120    -6.8004   -11.4199 H       
  63 H63            0.8292    -4.6474   -12.0523 H       
  64 H64            1.3084    -6.2550   -11.4547 H       
  65 H65            0.7287    -4.7996    -9.5560 H       
  66 H66            1.8997    -3.5781   -10.1107 H       
@<TRIPOS>BOND
   1    1    2 ar
   2    1    6 ar
   3    1   44 1
   4    2    3 ar
   5    2   45 1
   6    3    4 ar
   7    3   24 1
   8    4    5 ar
   9    4    7 1
  10    5    6 ar
  11    5   10 1
  12    6   23 1
  13    7    8 1
  14    7   16 1
  15    8    9 2
  16    8   46 1
  17    9   10 1
  18    9   11 1
  19   10   13 2
  20   11   12 am
  21   11   15 2
  22   12   13 1
  23   12   14 1
  24   14   25 ar
  25   14   29 ar
  26   16   17 1
  27   16   47 1
  28   16   48 1
  29   17   18 ar
  30   17   22 ar
  31   18   19 ar
  32   18   31 1
  33   19   20 ar
  34   19   49 1
  35   20   21 ar
  36   20   32 1
  37   21   22 ar
  38   21   50 1
  39   22   51 1
  40   25   26 ar
  41   25   52 1
  42   26   27 ar
  43   26   53 1
  44   27   28 ar
  45   27   54 1
  46   28   29 ar
  47   28   55 1
  48   29   30 1
  49   32   33 ar
  50   32   37 ar
  51   33   34 ar
  52   33   56 1
  53   34   35 ar
  54   35   36 ar
  55   35   38 1
  56   36   37 ar
  57   36   57 1
  58   37   58 1
  59   38   39 1
  60   38   43 1
  61   39   40 1
  62   39   59 1
  63   39   60 1
  64   40   41 1
  65   40   61 1
  66   40   62 1
  67   41   42 1
  68   42   43 1
  69   42   63 1
  70   42   64 1
  71   43   65 1
  72   43   66 1

#	End of record

