#	Name: ASD03200008
#	Creating user name:	WinNT
#	Creation time:	15. 06. 2019 20:34

#	Modifying user name:	WinNT
#	Modification time:	15. 06. 2019 20:34

#	Program:	/corina/corina34_cracker 3.40 0067  02.08.2006

@<TRIPOS>MOLECULE
ASD03200008
  50   53    0    0    0
SMALL
NO_CHARGES


@<TRIPOS>ATOM
   1 C1             0.9673    -1.0243    -0.1637 C.3     
   2 N2            -0.0324     0.0396    -0.0055 N.3     
   3 C3             0.2983     0.9151     1.1261 C.3     
   4 C4             1.6451     1.5952     0.8700 C.3     
   5 C5             2.7266     0.5255     0.6951 C.3     
   6 C6             2.3341    -0.4020    -0.4583 C.3     
   7 C7            -1.3126    -0.4945     0.1336 C.ar    
   8 C8            -2.0171    -0.3609     1.3275 C.ar    
   9 C9            -3.2822    -0.9038     1.4257 C.ar    
  10 N10           -3.8276    -1.5437     0.4086 N.ar    
  11 C11           -3.1970    -1.6943    -0.7411 C.ar    
  12 C12           -1.9265    -1.1744    -0.9251 C.ar    
  13 N13           -1.2612    -1.3369    -2.1478 N.am    
  14 C14           -1.4448    -2.4593    -2.8709 C.2     
  15 C15           -0.8503    -2.5768    -4.2049 C.2     
  16 O16           -2.1047    -3.3757    -2.4156 O.2     
  17 C17           -1.0853    -3.6518    -5.0343 C.2     
  18 S18           -0.1855    -3.3947    -6.5271 S.3     
  19 C19            0.4266    -1.8663    -5.9054 C.2     
  20 N20           -0.0420    -1.6501    -4.7188 N.2     
  21 C21            1.3383    -0.9592    -6.6346 C.ar    
  22 C22            1.6965    -1.2378    -7.9544 C.ar    
  23 C23            2.5477    -0.3873    -8.6292 C.ar    
  24 C24            3.0461     0.7398    -8.0004 C.ar    
  25 C25            2.6950     1.0218    -6.6921 C.ar    
  26 C26            1.8401     0.1825    -6.0080 C.ar    
  27 N27            1.9855     2.4547     2.0117 N.3     
  28 N28           -1.8848    -4.7393    -4.7460 N.pl3   
  29 H29            1.0246    -1.6083     0.7549 H       
  30 H30            0.6785    -1.6742    -0.9897 H       
  31 H31           -0.4764     1.6738     1.2369 H       
  32 H32            0.3587     0.3220     2.0386 H       
  33 H33            1.5813     2.1996    -0.0349 H       
  34 H34            3.6794     1.0042     0.4694 H       
  35 H35            2.8176    -0.0541     1.6137 H       
  36 H36            3.0789    -1.1913    -0.5602 H       
  37 H37            2.2812     0.1709    -1.3841 H       
  38 H38           -1.5790     0.1604     2.1657 H       
  39 H39           -3.8339    -0.8037     2.3488 H       
  40 H40           -3.6789    -2.2249    -1.5489 H       
  41 H41           -0.6685    -0.6416    -2.4736 H       
  42 H42            1.3084    -2.1175    -8.4463 H       
  43 H43            2.8259    -0.6019    -9.6505 H       
  44 H44            3.7124     1.4023    -8.5329 H       
  45 H45            3.0875     1.9032    -6.2069 H       
  46 H46            1.5665     0.4039    -4.9869 H       
  47 H47            2.8715     2.9152     1.8661 H       
  48 H48            1.2538     3.1263     2.1895 H       
  49 H49           -2.3422    -4.7923    -3.8923 H       
  50 H50           -1.9893    -5.4506    -5.3972 H       
@<TRIPOS>BOND
   1    1    2 1
   2    1    6 1
   3    1   29 1
   4    1   30 1
   5    2    3 1
   6    2    7 1
   7    3    4 1
   8    3   31 1
   9    3   32 1
  10    4    5 1
  11    4   27 1
  12    4   33 1
  13    5    6 1
  14    5   34 1
  15    5   35 1
  16    6   36 1
  17    6   37 1
  18    7    8 ar
  19    7   12 ar
  20    8    9 ar
  21    8   38 1
  22    9   10 ar
  23    9   39 1
  24   10   11 ar
  25   11   12 ar
  26   11   40 1
  27   12   13 1
  28   13   14 am
  29   13   41 1
  30   14   15 1
  31   14   16 2
  32   15   17 2
  33   15   20 1
  34   17   18 1
  35   17   28 1
  36   18   19 1
  37   19   20 2
  38   19   21 1
  39   21   22 ar
  40   21   26 ar
  41   22   23 ar
  42   22   42 1
  43   23   24 ar
  44   23   43 1
  45   24   25 ar
  46   24   44 1
  47   25   26 ar
  48   25   45 1
  49   26   46 1
  50   27   47 1
  51   27   48 1
  52   28   49 1
  53   28   50 1

#	End of record

