#	Name: ASD03090071
#	Creating user name:	WinNT
#	Creation time:	15. 06. 2019 20:28

#	Modifying user name:	WinNT
#	Modification time:	15. 06. 2019 20:28

#	Program:	/corina/corina34_cracker 3.40 0067  02.08.2006

@<TRIPOS>MOLECULE
ASD03090071
  28   29    0    0    0
SMALL
NO_CHARGES


@<TRIPOS>ATOM
   1 O1             0.5586     0.9430     0.0068 O.3     
   2 N2             0.7835    -0.2446     0.0415 N.2     
   3 C3             2.0600    -0.4887     0.1157 C.2     
   4 C4             2.7067     0.7685     0.1273 C.2     
   5 C5             1.6898     1.6604     0.0549 C.2     
   6 C6             1.9236     3.6359    -1.3938 C.2     
   7 C7             1.8072     3.1626     0.0322 C.3     
   8 O8             1.9123     2.8324    -2.3023 O.2     
   9 N9             2.0402     4.9520    -1.6597 N.am    
  10 C10            2.7181    -1.8430     0.1777 C.3     
  11 C11            2.2462     5.3848    -2.9748 C.ar    
  12 C12            1.6427     4.7141    -4.0303 C.ar    
  13 C13            1.8472     5.1434    -5.3269 C.ar    
  14 C14            2.6531     6.2408    -5.5747 C.ar    
  15 C15            3.2560     6.9107    -4.5247 C.ar    
  16 C16            3.0498     6.4891    -3.2257 C.ar    
  17 Cl17           2.9086     6.7775    -7.2058 Cl      
  18 H18            3.7662     0.9709     0.1818 H       
  19 H19            0.9216     3.6032     0.4901 H       
  20 H20            2.6935     3.4663     0.5893 H       
  21 H21            1.9813     5.5993    -0.9396 H       
  22 H22            2.9331    -2.1890    -0.8333 H       
  23 H23            3.6478    -1.7697     0.7420 H       
  24 H24            2.0495    -2.5497     0.6692 H       
  25 H25            1.0142     3.8572    -3.8375 H       
  26 H26            1.3781     4.6221    -6.1482 H       
  27 H27            3.8848     7.7666    -4.7207 H       
  28 H28            3.5170     7.0150    -2.4062 H       
@<TRIPOS>BOND
   1    1    2 1
   2    1    5 1
   3    2    3 2
   4    3    4 1
   5    3   10 1
   6    4    5 2
   7    4   18 1
   8    5    7 1
   9    6    7 1
  10    6    8 2
  11    6    9 am
  12    7   19 1
  13    7   20 1
  14    9   11 1
  15    9   21 1
  16   10   22 1
  17   10   23 1
  18   10   24 1
  19   11   12 ar
  20   11   16 ar
  21   12   13 ar
  22   12   25 1
  23   13   14 ar
  24   13   26 1
  25   14   15 ar
  26   14   17 1
  27   15   16 ar
  28   15   27 1
  29   16   28 1

#	End of record

