#	Name: ASD03620001
#	Creating user name:	WinNT
#	Creation time:	15. 06. 2019 20:43

#	Modifying user name:	WinNT
#	Modification time:	15. 06. 2019 20:43

#	Program:	/corina/corina34_cracker 3.40 0067  02.08.2006

@<TRIPOS>MOLECULE
ASD03620001
 142  143    0    0    0
SMALL
NO_CHARGES


@<TRIPOS>ATOM
   1 C1            -1.3905     2.3062     0.5885 C.3     
   2 C2            -1.2741     0.8218     0.3559 C.2     
   3 N3            -0.0761     2.9354     0.4033 N.3     
   4 C4            -1.8818     2.5619     2.0148 C.3     
   5 C5            -0.8275     2.0774     3.0120 C.3     
   6 C6            -2.1191     4.0606     2.2114 C.3     
   7 C7            -2.7278     4.3035     3.5939 C.3     
   8 N8            -2.3736     0.0961     0.0713 N.am    
   9 O9            -0.1911     0.2803     0.4248 O.2     
  10 C10           -2.2604    -1.3470    -0.1548 C.3     
  11 C11           -1.8898    -1.6066    -1.6164 C.3     
  12 C12           -0.4956    -1.0424    -1.8969 C.3     
  13 C13            0.5406    -1.8106    -1.0740 C.3     
  14 C14           -0.1757    -1.1902    -3.3858 C.3     
  15 C15           -3.5786    -2.0087     0.1544 C.2     
  16 O16           -4.5198    -1.3408     0.5269 O.2     
  17 N17           -3.7115    -3.3429     0.0168 N.am    
  18 C18           -4.9929    -3.9862     0.3174 C.3     
  19 C19           -4.8765    -5.4706     0.0848 C.2     
  20 N20           -5.9392    -6.2715     0.2985 N.am    
  21 O21           -3.8266    -5.9444    -0.2947 O.2     
  22 C22           -5.8261    -7.7145     0.0723 C.3     
  23 C23           -6.8452    -8.4366     0.9156 C.2     
  24 O24           -7.5925    -7.8077     1.6346 O.2     
  25 N25           -6.9263    -9.7811     0.8706 N.am    
  26 C26           -6.0779    -8.0205    -1.4055 C.3     
  27 C27           -4.9875    -7.3995    -2.2400 C.2     
  28 N28           -4.6287    -6.1071    -2.2327 N.2     
  29 C29           -3.6512    -5.9271    -3.0784 C.2     
  30 N30           -3.3547    -7.1112    -3.6558 N.pl3   
  31 C31           -4.1987    -8.0459    -3.1194 C.2     
  32 C32           -7.9170   -10.4830     1.6904 C.3     
  33 C33           -8.2415   -11.8119     1.0581 C.2     
  34 O34           -7.6986   -12.1404     0.0245 O.2     
  35 N35           -9.1350   -12.6354     1.6412 N.am    
  36 C36           -7.3495   -10.7106     3.0929 C.3     
  37 C37           -7.1367    -9.3613     3.7821 C.3     
  38 C38           -6.5691    -9.5888     5.1846 C.3     
  39 N39           -6.3654    -8.2968     5.8445 N.pl3   
  40 C40           -5.8599    -8.2497     7.1221 C.2     
  41 N41           -5.5619    -9.3544     7.7463 N.2     
  42 N42           -5.6687    -7.0372     7.7414 N.pl3   
  43 C43           -9.5373   -13.8735     0.9693 C.3     
  44 C44           -8.6505   -15.0035     1.4253 C.2     
  45 N45           -8.8368   -16.2456     0.9365 N.am    
  46 C46           -7.9748   -17.3441     1.3798 C.3     
  47 C47          -10.9920   -14.1939     1.3188 C.3     
  48 O48           -7.7692   -14.7951     2.2320 O.2     
  49 C49           -8.7040   -18.6526     1.2155 C.2     
  50 N50           -8.1019   -19.8077     1.5615 N.am    
  51 O51           -9.8327   -18.6663     0.7718 O.2     
  52 C52           -6.6980   -17.3625     0.5369 C.3     
  53 C53           -5.9073   -16.1059     0.7954 C.ar    
  54 C54           -4.9639   -16.0784     1.8055 C.ar    
  55 C55           -4.2387   -14.9258     2.0427 C.ar    
  56 C56           -4.4564   -13.8008     1.2695 C.ar    
  57 C57           -5.3991   -13.8285     0.2588 C.ar    
  58 C58           -6.1213   -14.9825     0.0188 C.ar    
  59 C59           -8.8109   -21.0798     1.4018 C.3     
  60 C60           -8.6353   -21.5790    -0.0092 C.2     
  61 O61           -9.2017   -22.7358    -0.3872 O.3     
  62 O62           -7.9848   -20.9380    -0.8003 O.2     
  63 C63           -8.2408   -22.1078     2.3811 C.3     
  64 C64           -8.5298   -21.6607     3.8155 C.3     
  65 C65           -7.9597   -22.6887     4.7948 C.3     
  66 C66           -8.2487   -22.2416     6.2292 C.3     
  67 N67           -7.7013   -23.2287     7.1695 N.3     
  68 C68          -11.8907   -13.1203     0.7613 C.2     
  69 O69          -11.4305   -12.2521     0.0583 O.2     
  70 O70          -13.2024   -13.1286     1.0459 O.3     
  71 H71           -2.0999     2.7307    -0.1218 H       
  72 H72            0.5998     2.5584     1.0507 H       
  73 H73            0.2413     2.8360    -0.5494 H       
  74 H74           -2.8139     2.0217     2.1803 H       
  75 H75            0.1046     2.6176     2.8465 H       
  76 H76           -1.1775     2.2596     4.0281 H       
  77 H77           -0.6584     1.0097     2.8719 H       
  78 H78           -1.1706     4.5919     2.1335 H       
  79 H79           -2.8031     4.4238     1.4444 H       
  80 H80           -3.6763     3.7721     3.6718 H       
  81 H81           -2.0438     3.9402     4.3609 H       
  82 H82           -2.8969     5.3711     3.7340 H       
  83 H83           -3.2397     0.5292     0.0162 H       
  84 H84           -1.4869    -1.7569     0.4945 H       
  85 H85           -1.8925    -2.6799    -1.8067 H       
  86 H86           -2.6163    -1.1203    -2.2673 H       
  87 H87           -0.4683     0.0121    -1.6224 H       
  88 H88            1.5338    -1.4087    -1.2739 H       
  89 H89            0.3127    -1.7053    -0.0133 H       
  90 H90            0.5133    -2.8651    -1.3485 H       
  91 H91           -0.9139    -0.6430    -3.9721 H       
  92 H92            0.8176    -0.7883    -3.5857 H       
  93 H93           -0.2029    -2.2448    -3.6603 H       
  94 H94           -2.9587    -3.8771    -0.2811 H       
  95 H95           -5.2569    -3.8012     1.3586 H       
  96 H96           -5.7664    -3.5762    -0.3319 H       
  97 H97           -6.7789    -5.8925     0.6020 H       
  98 H98           -4.8253    -8.0480     0.3469 H       
  99 H99           -6.3286   -10.2841     0.2955 H       
 100 H100          -6.0818    -9.0998    -1.5576 H       
 101 H101          -7.0422    -7.6083    -1.7026 H       
 102 H102          -3.1608    -4.9868    -3.2828 H       
 103 H103          -2.6692    -7.2704    -4.3235 H       
 104 H104          -4.2304    -9.0983    -3.3602 H       
 105 H105          -8.8237    -9.8820     1.7585 H       
 106 H106          -9.5116   -12.4083     2.5058 H       
 107 H107          -8.0495   -11.3097     3.6753 H       
 108 H108          -6.3967   -11.2349     3.0187 H       
 109 H109          -6.4367    -8.7622     3.1996 H       
 110 H110          -8.0894    -8.8370     3.8563 H       
 111 H111          -7.2691   -10.1879     5.7670 H       
 112 H112          -5.6164   -10.1132     5.1103 H       
 113 H113          -6.5871    -7.4747     5.3799 H       
 114 H114          -5.2053    -9.3212     8.6477 H       
 115 H115          -5.8904    -6.2150     7.2769 H       
 116 H116          -5.3120    -7.0039     8.6428 H       
 117 H117          -9.4416   -13.7492    -0.1093 H       
 118 H118          -9.5416   -16.4123     0.2913 H       
 119 H119          -7.7155   -17.2019     2.4289 H       
 120 H120         -11.2656   -15.1569     0.8876 H       
 121 H121         -11.1046   -14.2358     2.4021 H       
 122 H122          -7.1992   -19.7968     1.9164 H       
 123 H123          -6.0975   -18.2315     0.8058 H       
 124 H124          -6.9609   -17.4154    -0.5197 H       
 125 H125          -4.7938   -16.9574     2.4095 H       
 126 H126          -3.5021   -14.9041     2.8323 H       
 127 H127          -3.8902   -12.9000     1.4553 H       
 128 H128          -5.5694   -12.9495    -0.3450 H       
 129 H129          -6.8578   -15.0042    -0.7708 H       
 130 H130          -9.8715   -20.9328     1.6059 H       
 131 H131          -9.0611   -23.0150    -1.3023 H       
 132 H132          -8.7060   -23.0772     2.2020 H       
 133 H133          -7.1636   -22.1894     2.2361 H       
 134 H134          -8.0646   -20.6914     3.9946 H       
 135 H135          -9.6070   -21.5791     3.9606 H       
 136 H136          -8.4249   -23.6581     4.6157 H       
 137 H137          -6.8825   -22.7703     4.6498 H       
 138 H138          -7.7835   -21.2723     6.4083 H       
 139 H139          -9.3259   -22.1600     6.3743 H       
 140 H140          -6.7148   -23.3700     7.0118 H       
 141 H141          -7.8794   -22.9559     8.1245 H       
 142 H142         -13.7386   -12.4195     0.6655 H       
@<TRIPOS>BOND
   1    1    2 1
   2    1    3 1
   3    1    4 1
   4    1   71 1
   5    2    8 am
   6    2    9 2
   7    3   72 1
   8    3   73 1
   9    4    5 1
  10    4    6 1
  11    4   74 1
  12    5   75 1
  13    5   76 1
  14    5   77 1
  15    6    7 1
  16    6   78 1
  17    6   79 1
  18    7   80 1
  19    7   81 1
  20    7   82 1
  21    8   10 1
  22    8   83 1
  23   10   11 1
  24   10   15 1
  25   10   84 1
  26   11   12 1
  27   11   85 1
  28   11   86 1
  29   12   13 1
  30   12   14 1
  31   12   87 1
  32   13   88 1
  33   13   89 1
  34   13   90 1
  35   14   91 1
  36   14   92 1
  37   14   93 1
  38   15   16 2
  39   15   17 am
  40   17   18 1
  41   17   94 1
  42   18   19 1
  43   18   95 1
  44   18   96 1
  45   19   20 am
  46   19   21 2
  47   20   22 1
  48   20   97 1
  49   22   23 1
  50   22   26 1
  51   22   98 1
  52   23   24 2
  53   23   25 am
  54   25   32 1
  55   25   99 1
  56   26   27 1
  57   26  100 1
  58   26  101 1
  59   27   28 1
  60   27   31 2
  61   28   29 2
  62   29   30 1
  63   29  102 1
  64   30   31 1
  65   30  103 1
  66   31  104 1
  67   32   33 1
  68   32   36 1
  69   32  105 1
  70   33   34 2
  71   33   35 am
  72   35   43 1
  73   35  106 1
  74   36   37 1
  75   36  107 1
  76   36  108 1
  77   37   38 1
  78   37  109 1
  79   37  110 1
  80   38   39 1
  81   38  111 1
  82   38  112 1
  83   39   40 1
  84   39  113 1
  85   40   41 2
  86   40   42 1
  87   41  114 1
  88   42  115 1
  89   42  116 1
  90   43   44 1
  91   43   47 1
  92   43  117 1
  93   44   45 am
  94   44   48 2
  95   45   46 1
  96   45  118 1
  97   46   49 1
  98   46   52 1
  99   46  119 1
 100   47   68 1
 101   47  120 1
 102   47  121 1
 103   49   50 am
 104   49   51 2
 105   50   59 1
 106   50  122 1
 107   52   53 1
 108   52  123 1
 109   52  124 1
 110   53   54 ar
 111   53   58 ar
 112   54   55 ar
 113   54  125 1
 114   55   56 ar
 115   55  126 1
 116   56   57 ar
 117   56  127 1
 118   57   58 ar
 119   57  128 1
 120   58  129 1
 121   59   60 1
 122   59   63 1
 123   59  130 1
 124   60   61 1
 125   60   62 2
 126   61  131 1
 127   63   64 1
 128   63  132 1
 129   63  133 1
 130   64   65 1
 131   64  134 1
 132   64  135 1
 133   65   66 1
 134   65  136 1
 135   65  137 1
 136   66   67 1
 137   66  138 1
 138   66  139 1
 139   67  140 1
 140   67  141 1
 141   68   69 2
 142   68   70 1
 143   70  142 1

#	End of record

