#	Name: ASD01200470
#	Creating user name:	WinNT
#	Creation time:	15. 06. 2019 19:09

#	Modifying user name:	WinNT
#	Modification time:	15. 06. 2019 19:09

#	Program:	/corina/corina34_cracker 3.40 0067  02.08.2006

@<TRIPOS>MOLECULE
ASD01200470
  22   23    0    0    0
SMALL
NO_CHARGES


@<TRIPOS>ATOM
   1 N1             2.2307     1.3387     0.5646 N.ar    
   2 C2             2.2417     0.0209     0.5646 C.ar    
   3 C3             1.2057    -0.6961    -0.0206 C.ar    
   4 C4             0.1516    -0.0017    -0.6089 C.ar    
   5 C5             0.1813     1.3832    -0.5852 C.ar    
   6 C6             1.2474     2.0256     0.0161 C.ar    
   7 N7             1.2214    -2.0945    -0.0195 N.am    
   8 C8             0.0669    -2.7813     0.0900 C.2     
   9 O9            -0.9777    -2.1883     0.2860 O.2     
  10 O10            1.1516    -5.0191    -0.2424 O.3     
  11 C11            0.0694    -4.2428    -0.0269 C.2     
  12 C12           -1.0233    -5.0570     0.0637 C.2     
  13 C13           -0.5621    -6.3717    -0.1064 C.2     
  14 C14            0.7748    -6.3035    -0.2909 C.2     
  15 H15            3.0644    -0.5069     1.0238 H       
  16 H16           -0.6686    -0.5297    -1.0724 H       
  17 H17           -0.6190     1.9544    -1.0320 H       
  18 H18            1.2753     3.1050     0.0376 H       
  19 H19            2.0631    -2.5702    -0.0975 H       
  20 H20           -2.0445    -4.7489     0.2332 H       
  21 H21           -1.1627    -7.2692    -0.0918 H       
  22 H22            1.4313    -7.1458    -0.4515 H       
@<TRIPOS>BOND
   1    1    2 ar
   2    1    6 ar
   3    2    3 ar
   4    2   15 1
   5    3    4 ar
   6    3    7 1
   7    4    5 ar
   8    4   16 1
   9    5    6 ar
  10    5   17 1
  11    6   18 1
  12    7    8 am
  13    7   19 1
  14    8    9 2
  15    8   11 1
  16   10   11 1
  17   10   14 1
  18   11   12 2
  19   12   13 1
  20   12   20 1
  21   13   14 2
  22   13   21 1
  23   14   22 1

#	End of record

