#	Name: ASD03091720
#	Creating user name:	WinNT
#	Creation time:	15. 06. 2019 20:31

#	Modifying user name:	WinNT
#	Modification time:	15. 06. 2019 20:31

#	Program:	/corina/corina34_cracker 3.40 0067  02.08.2006

@<TRIPOS>MOLECULE
ASD03091720
  55   57    0    0    0
SMALL
NO_CHARGES


@<TRIPOS>ATOM
   1 C1            -0.0136     1.3101    -0.1969 C.2     
   2 C2            -0.0069    -0.0175     0.0449 C.2     
   3 N3            -1.1984    -0.5378     0.2438 N.2     
   4 C4            -2.2137     0.2707     0.1849 C.2     
   5 S5            -1.6855     1.8629    -0.1440 S.3     
   6 N6            -3.5328    -0.1024     0.3681 N.3     
   7 C7            -3.7170    -0.7662     1.6669 C.3     
   8 C8            -3.9930    -0.9666    -0.7285 C.3     
   9 C9            -5.4709    -1.3062    -0.5176 C.3     
  10 O10           -5.6352    -1.9222     0.7627 O.3     
  11 C11           -5.1976    -1.1078     1.8538 C.3     
  12 C12            1.1713     2.1517    -0.4539 C.ar    
  13 C13            1.1987     3.0474    -1.5313 C.ar    
  14 C14            2.2983     2.0818     0.3760 C.ar    
  15 C15            3.3823     2.8863     0.0992 C.ar    
  16 N16            3.3680     3.7134    -0.9297 N.ar    
  17 C17            2.3257     3.8142    -1.7337 C.ar    
  18 C18            1.2587    -0.8348     0.0836 C.3     
  19 C19            4.6009     2.8214     0.9835 C.3     
  20 N20            1.7141    -0.9644     1.4700 N.am    
  21 C21            2.8349    -1.6589     1.7490 C.2     
  22 C22            3.3033    -1.7922     3.1752 C.3     
  23 O23            3.4665    -2.1767     0.8524 O.2     
  24 C24            2.3711     4.7771    -2.8920 C.3     
  25 C25           -3.8221    -0.2353    -2.0615 C.3     
  26 C26            4.5881    -2.6220     3.2145 C.3     
  27 C27            3.5757    -0.4026     3.7545 C.3     
  28 H28           -3.1259    -1.6815     1.6949 H       
  29 H29           -3.3938    -0.0988     2.4658 H       
  30 H30           -3.4063    -1.8852    -0.7388 H       
  31 H31           -6.0640    -0.3928    -0.5608 H       
  32 H32           -5.8014    -1.9929    -1.2969 H       
  33 H33           -5.3305    -1.6509     2.7895 H       
  34 H34           -5.7828    -0.1886     1.8795 H       
  35 H35            0.3497     3.1351    -2.1930 H       
  36 H36            2.3168     1.4081     1.2199 H       
  37 H37            1.0646    -1.8248    -0.3291 H       
  38 H38            2.0293    -0.3396    -0.5071 H       
  39 H39            5.2891     2.0686     0.5990 H       
  40 H40            5.0944     3.7932     0.9940 H       
  41 H41            4.3006     2.5554     1.9970 H       
  42 H42            1.2089    -0.5504     2.1871 H       
  43 H43            2.5327    -2.2875     3.7659 H       
  44 H44            2.7724     4.2708    -3.7699 H       
  45 H45            1.3640     5.1343    -3.1073 H       
  46 H46            3.0097     5.6227    -2.6367 H       
  47 H47           -2.7703     0.0096    -2.2093 H       
  48 H48           -4.1635    -0.8765    -2.8741 H       
  49 H49           -4.4108     0.6820    -2.0507 H       
  50 H50            5.3587    -2.1268     2.6237 H       
  51 H51            4.9270    -2.7185     4.2460 H       
  52 H52            4.3941    -3.6120     2.8018 H       
  53 H53            2.6604     0.1885     3.7265 H       
  54 H54            3.9146    -0.4990     4.7860 H       
  55 H55            4.3463     0.0926     3.1637 H       
@<TRIPOS>BOND
   1    1    2 2
   2    1   12 1
   3    1    5 1
   4    2    3 1
   5    2   18 1
   6    3    4 2
   7    4    5 1
   8    4    6 1
   9    6    7 1
  10    6    8 1
  11    7   11 1
  12    7   28 1
  13    7   29 1
  14    8    9 1
  15    8   25 1
  16    8   30 1
  17    9   10 1
  18    9   31 1
  19    9   32 1
  20   10   11 1
  21   11   33 1
  22   11   34 1
  23   12   13 ar
  24   12   14 ar
  25   13   17 ar
  26   13   35 1
  27   14   15 ar
  28   14   36 1
  29   15   16 ar
  30   15   19 1
  31   16   17 ar
  32   17   24 1
  33   18   20 1
  34   18   37 1
  35   18   38 1
  36   19   39 1
  37   19   40 1
  38   19   41 1
  39   20   21 am
  40   20   42 1
  41   21   22 1
  42   21   23 2
  43   22   26 1
  44   22   27 1
  45   22   43 1
  46   24   44 1
  47   24   45 1
  48   24   46 1
  49   25   47 1
  50   25   48 1
  51   25   49 1
  52   26   50 1
  53   26   51 1
  54   26   52 1
  55   27   53 1
  56   27   54 1
  57   27   55 1

#	End of record

