#	Name: ASD01811637
#	Creating user name:	WinNT
#	Creation time:	15. 06. 2019 19:27

#	Modifying user name:	WinNT
#	Modification time:	15. 06. 2019 19:27

#	Program:	/corina/corina34_cracker 3.40 0067  02.08.2006

@<TRIPOS>MOLECULE
ASD01811637
  65   70    0    0    0
SMALL
NO_CHARGES


@<TRIPOS>ATOM
   1 C1             0.1407     1.1275     0.0277 C.ar    
   2 C2             0.2520    -0.2464     0.1352 C.ar    
   3 C3             1.4943    -0.8393     0.2288 C.ar    
   4 C4             2.6466    -0.0575     0.2151 C.ar    
   5 C5             2.5225     1.3248     0.1057 C.ar    
   6 C6             1.2808     1.9120     0.0132 C.ar    
   7 N7             3.9939    -0.4165     0.2955 N.am    
   8 C8             4.8089     0.6547     0.2459 C.2     
   9 C9             3.9243     1.8651     0.1188 C.3     
  10 C10            4.2369     2.6587    -1.1524 C.3     
  11 N11            4.5805     4.0342    -0.7220 N.3     
  12 C12            5.0725     3.9116     0.6750 C.3     
  13 C13            4.1390     2.8361     1.2905 C.3     
  14 C14            5.6096     4.6169    -1.5934 C.3     
  15 C15            5.0754     4.7060    -3.0243 C.3     
  16 C16            6.1473     5.3129    -3.9319 C.3     
  17 C17            6.5044     6.7144    -3.4327 C.3     
  18 C18            7.0386     6.6253    -2.0017 C.3     
  19 C19            5.9667     6.0183    -1.0941 C.3     
  20 F20            7.4845     7.2693    -4.2626 F       
  21 F21            5.3625     7.5223    -3.4548 F       
  22 O22            6.0207     0.6455     0.2952 O.2     
  23 C23            4.4659    -1.7978     0.4197 C.3     
  24 C24            4.6839    -2.3796    -0.9533 C.ar    
  25 C25            5.8421    -2.0823    -1.6534 C.ar    
  26 C26            6.0459    -2.6144    -2.9128 C.ar    
  27 C27            5.0845    -3.4499    -3.4764 C.ar    
  28 C28            3.9224    -3.7447    -2.7674 C.ar    
  29 C29            3.7302    -3.2128    -1.5080 C.ar    
  30 F30            6.7729    -1.2713    -1.1047 F       
  31 C31            5.2975    -4.0240    -4.8291 C.2     
  32 C32            6.4182    -3.8131    -5.6557 C.2     
  33 N33            6.2385    -4.4845    -6.7622 N.2     
  34 N34            5.0063    -5.1452    -6.6866 N.pl3   
  35 C35            4.4459    -4.8565    -5.4948 C.2     
  36 C36            4.4283    -6.0059    -7.7216 C.3     
  37 H37           -0.8336     1.5872    -0.0492 H       
  38 H38           -0.6378    -0.8584     0.1462 H       
  39 H39            1.5733    -1.9131     0.3132 H       
  40 H40            1.1964     2.9854    -0.0713 H       
  41 H41            5.0816     2.2093    -1.6745 H       
  42 H42            3.3632     2.6790    -1.8038 H       
  43 H43            6.1090     3.5744     0.6892 H       
  44 H44            4.9683     4.8590     1.2037 H       
  45 H45            3.1934     3.2786     1.6039 H       
  46 H46            4.6268     2.3327     2.1252 H       
  47 H47            6.4992     3.9874    -1.5762 H       
  48 H48            4.8210     3.7075    -3.3800 H       
  49 H49            4.1858     5.3355    -3.0415 H       
  50 H50            7.0369     4.6834    -3.9147 H       
  51 H51            5.7667     5.3764    -4.9514 H       
  52 H52            7.9282     5.9957    -1.9845 H       
  53 H53            7.2930     7.6237    -1.6461 H       
  54 H54            5.0771     6.6479    -1.1113 H       
  55 H55            6.3473     5.9549    -0.0747 H       
  56 H56            5.4044    -1.8126     0.9738 H       
  57 H57            3.7209    -2.3899     0.9511 H       
  58 H58            6.9484    -2.3825    -3.4587 H       
  59 H59            3.1741    -4.3918    -3.2009 H       
  60 H60            2.8292    -3.4417    -0.9581 H       
  61 H61            7.2763    -3.2024    -5.4169 H       
  62 H62            3.4925    -5.2143    -5.1349 H       
  63 H63            4.7477    -7.0352    -7.5582 H       
  64 H64            3.3407    -5.9511    -7.6741 H       
  65 H65            4.7664    -5.6719    -8.7025 H       
@<TRIPOS>BOND
   1    1    2 ar
   2    1    6 ar
   3    1   37 1
   4    2    3 ar
   5    2   38 1
   6    3    4 ar
   7    3   39 1
   8    4    5 ar
   9    4    7 1
  10    5    6 ar
  11    5    9 1
  12    6   40 1
  13    7    8 am
  14    7   23 1
  15    8    9 1
  16    8   22 2
  17    9   10 1
  18    9   13 1
  19   10   11 1
  20   10   41 1
  21   10   42 1
  22   11   12 1
  23   11   14 1
  24   12   13 1
  25   12   43 1
  26   12   44 1
  27   13   45 1
  28   13   46 1
  29   14   15 1
  30   14   19 1
  31   14   47 1
  32   15   16 1
  33   15   48 1
  34   15   49 1
  35   16   17 1
  36   16   50 1
  37   16   51 1
  38   17   18 1
  39   17   20 1
  40   17   21 1
  41   18   19 1
  42   18   52 1
  43   18   53 1
  44   19   54 1
  45   19   55 1
  46   23   24 1
  47   23   56 1
  48   23   57 1
  49   24   25 ar
  50   24   29 ar
  51   25   26 ar
  52   25   30 1
  53   26   27 ar
  54   26   58 1
  55   27   28 ar
  56   27   31 1
  57   28   29 ar
  58   28   59 1
  59   29   60 1
  60   31   32 1
  61   31   35 2
  62   32   33 2
  63   32   61 1
  64   33   34 1
  65   34   35 1
  66   34   36 1
  67   35   62 1
  68   36   63 1
  69   36   64 1
  70   36   65 1

#	End of record

