#	Name: ASD01230541
#	Creating user name:	WinNT
#	Creation time:	15. 06. 2019 19:14

#	Modifying user name:	WinNT
#	Modification time:	15. 06. 2019 19:14

#	Program:	/corina/corina34_cracker 3.40 0067  02.08.2006

@<TRIPOS>MOLECULE
ASD01230541
  41   44    0    0    0
SMALL
NO_CHARGES


@<TRIPOS>ATOM
   1 S1            -0.3017    -2.8634    -4.2515 S.o2    
   2 N2            -0.1908    -2.7189    -2.6072 N.am    
   3 C3             0.8325    -2.1389    -2.0212 C.2     
   4 N4             1.9059    -1.5940    -2.6638 N.pl3   
   5 C5             2.1051    -1.6432    -4.1144 C.3     
   6 C6             0.7658    -1.5135    -4.8458 C.3     
   7 C7             0.7825    -2.0940    -0.5923 C.2     
   8 C8             1.7717    -1.4782     0.1036 C.2     
   9 C9             2.8395    -0.8876    -0.5960 C.2     
  10 C10            2.8846    -0.9553    -1.9371 C.2     
  11 O11           -0.2572    -2.6685     0.0694 O.3     
  12 C12           -1.4870    -4.6423     0.5673 C.ar    
  13 C13           -0.3815    -4.0201     0.0112 C.ar    
  14 C14            0.5982    -4.7848    -0.6061 C.ar    
  15 C15            0.4606    -6.1554    -0.6625 C.ar    
  16 C16           -0.6492    -6.7789    -0.1061 C.ar    
  17 C17           -0.7364    -8.2791    -0.2129 C.3     
  18 C18           -1.7439    -8.8317     0.7931 C.3     
  19 C19           -3.0578    -8.0570     0.6375 C.3     
  20 C20           -2.8414    -6.6340     1.1484 C.3     
  21 C21           -1.6208    -6.0224     0.5116 C.ar    
  22 O22            0.2779    -4.1286    -4.5391 O.2     
  23 O23           -1.6660    -2.5931    -4.5430 O.2     
  24 H24            2.7598    -0.8254    -4.4154 H       
  25 H25            2.5701    -2.5922    -4.3815 H       
  26 H26            0.9190    -1.6070    -5.9210 H       
  27 H27            0.3091    -0.5506    -4.6170 H       
  28 H28            1.7391    -1.4417     1.1825 H       
  29 H29            3.6238    -0.3792    -0.0547 H       
  30 H30            3.7113    -0.4961    -2.4589 H       
  31 H31           -2.2486    -4.0491     1.0515 H       
  32 H32            1.4645    -4.3083    -1.0406 H       
  33 H33            1.2227    -6.7500    -1.1442 H       
  34 H34           -1.0498    -8.5499    -1.2211 H       
  35 H35            0.2443    -8.7112    -0.0138 H       
  36 H36           -1.9162    -9.8899     0.5965 H       
  37 H37           -1.3599    -8.7036     1.8052 H       
  38 H38           -3.3457    -8.0299    -0.4135 H       
  39 H39           -3.8409    -8.5413     1.2208 H       
  40 H40           -3.7147    -6.0285     0.9062 H       
  41 H41           -2.7092    -6.6567     2.2301 H       
@<TRIPOS>BOND
   1    1    2 am
   2    1    6 1
   3    1   22 2
   4    1   23 2
   5    2    3 2
   6    3    4 1
   7    3    7 1
   8    4    5 1
   9    4   10 1
  10    5    6 1
  11    5   24 1
  12    5   25 1
  13    6   26 1
  14    6   27 1
  15    7    8 2
  16    7   11 1
  17    8    9 1
  18    8   28 1
  19    9   10 2
  20    9   29 1
  21   10   30 1
  22   11   13 1
  23   12   13 ar
  24   12   21 ar
  25   12   31 1
  26   13   14 ar
  27   14   15 ar
  28   14   32 1
  29   15   16 ar
  30   15   33 1
  31   16   17 1
  32   16   21 ar
  33   17   18 1
  34   17   34 1
  35   17   35 1
  36   18   19 1
  37   18   36 1
  38   18   37 1
  39   19   20 1
  40   19   38 1
  41   19   39 1
  42   20   21 1
  43   20   40 1
  44   20   41 1

#	End of record

