#	Name: ASD02508266
#	Creating user name:	WinNT
#	Creation time:	15. 06. 2019 20:24

#	Modifying user name:	WinNT
#	Modification time:	15. 06. 2019 20:24

#	Program:	/corina/corina34_cracker 3.40 0067  02.08.2006

@<TRIPOS>MOLECULE
ASD02508266
  50   53    0    0    0
SMALL
NO_CHARGES


@<TRIPOS>ATOM
   1 C1            -0.0168     1.3904     0.0097 C.ar    
   2 C2             0.0021    -0.0041     0.0020 C.ar    
   3 C3            -1.1884    -0.7140     0.0096 C.ar    
   4 C4            -2.3921    -0.0368     0.0247 C.ar    
   5 C5            -2.4119     1.3472     0.0319 C.ar    
   6 C6            -1.2296     2.0613     0.0299 C.ar    
   7 S7            -3.9067    -0.9371     0.0343 S.o2    
   8 N8            -4.6559    -0.6207     1.4769 N.am    
   9 C9            -5.5870     0.5098     1.6119 C.3     
  10 O10            1.2720     1.8106    -0.0004 O.3     
  11 C11            2.0840     0.7419    -0.0139 C.2     
  12 N12            1.3438    -0.3844    -0.0128 N.am    
  13 O13           -4.7225    -0.3609    -0.9764 O.2     
  14 O14           -3.5550    -2.3137     0.0583 O.2     
  15 O15            3.2993     0.7835    -0.0252 O.2     
  16 C16            1.8550    -1.7572    -0.0255 C.3     
  17 C17           -6.8906    -0.0046     2.2319 C.3     
  18 N18           -6.5880    -0.7129     3.4827 N.3     
  19 C19           -5.7577    -1.8994     3.2359 C.3     
  20 C20           -4.4125    -1.4663     2.6554 C.3     
  21 C21           -7.7548    -1.0530     4.1574 C.ar    
  22 N22           -8.9300    -0.7275     3.6411 N.ar    
  23 C23           -7.6777    -1.7372     5.3660 C.ar    
  24 C24           -8.8467    -2.0694     6.0269 C.ar    
  25 C25          -10.0580    -1.7048     5.4545 C.ar    
  26 C26          -10.0608    -1.0315     4.2491 C.ar    
  27 C27           -3.7296     2.0783     0.0474 C.3     
  28 C28          -11.3566    -2.0462     6.1387 C.3     
  29 F29          -11.7189    -1.0036     6.9983 F       
  30 F30          -12.3567    -2.2269     5.1774 F       
  31 F31          -11.1995    -3.2250     6.8756 F       
  32 H32           -1.1748    -1.7939     0.0033 H       
  33 H33           -1.2502     3.1411     0.0359 H       
  34 H34           -5.1489     1.2698     2.2587 H       
  35 H35           -5.7917     0.9349     0.6293 H       
  36 H36            2.9448    -1.7389    -0.0366 H       
  37 H37            1.5095    -2.2818     0.8652 H       
  38 H38            1.4912    -2.2722    -0.9146 H       
  39 H39           -7.5508     0.8370     2.4410 H       
  40 H40           -7.3796    -0.6870     1.5366 H       
  41 H41           -5.5964    -2.4319     4.1732 H       
  42 H42           -6.2625    -2.5554     2.5266 H       
  43 H43           -3.8389    -2.3463     2.3644 H       
  44 H44           -3.8590    -0.8949     3.4006 H       
  45 H45           -6.7181    -2.0057     5.7827 H       
  46 H46           -8.8179    -2.6007     6.9667 H       
  47 H47          -11.0008    -0.7460     3.8003 H       
  48 H48           -4.0381     2.2493     1.0787 H       
  49 H49           -3.6202     3.0353    -0.4626 H       
  50 H50           -4.4837     1.4789    -0.4627 H       
@<TRIPOS>BOND
   1    1    2 ar
   2    1   10 1
   3    1    6 ar
   4    2    3 ar
   5    2   12 1
   6    3    4 ar
   7    3   32 1
   8    4    5 ar
   9    4    7 1
  10    5    6 ar
  11    5   27 1
  12    6   33 1
  13    7    8 am
  14    7   13 2
  15    7   14 2
  16    8    9 1
  17    8   20 1
  18    9   17 1
  19    9   34 1
  20    9   35 1
  21   10   11 1
  22   11   12 am
  23   11   15 2
  24   12   16 1
  25   16   36 1
  26   16   37 1
  27   16   38 1
  28   17   18 1
  29   17   39 1
  30   17   40 1
  31   18   19 1
  32   18   21 1
  33   19   20 1
  34   19   41 1
  35   19   42 1
  36   20   43 1
  37   20   44 1
  38   21   22 ar
  39   21   23 ar
  40   22   26 ar
  41   23   24 ar
  42   23   45 1
  43   24   25 ar
  44   24   46 1
  45   25   26 ar
  46   25   28 1
  47   26   47 1
  48   27   48 1
  49   27   49 1
  50   27   50 1
  51   28   29 1
  52   28   30 1
  53   28   31 1

#	End of record

