#	Name: ASD02610034
#	Creating user name:	WinNT
#	Creation time:	15. 06. 2019 20:25

#	Modifying user name:	WinNT
#	Modification time:	15. 06. 2019 20:25

#	Program:	/corina/corina34_cracker 3.40 0067  02.08.2006

@<TRIPOS>MOLECULE
ASD02610034
 112  114    0    0    0
SMALL
NO_CHARGES


@<TRIPOS>ATOM
   1 C1             0.3689     1.0879    -0.2542 C.3     
   2 C2             0.7036    -0.4157    -0.4065 C.3     
   3 C3             2.1170    -0.4407    -0.9396 C.2     
   4 C4             2.7082     0.7199    -0.7738 C.2     
   5 C5             1.7793     1.6871    -0.0964 C.3     
   6 C6             4.1023     1.0411    -1.2437 C.3     
   7 C7             4.7434     2.1047    -0.3781 C.3     
   8 C8             4.3239     3.5119    -0.6734 C.3     
   9 C9             3.0314     3.8903     0.0028 C.3     
  10 C10            1.8638     3.0976    -0.5619 C.3     
  11 O11           -0.2044    -1.0433    -1.3500 O.3     
  12 C12            2.7644    -1.6420    -1.5790 C.3     
  13 O13           -0.4368     1.3273     0.9298 O.3     
  14 H14            2.0189     1.6822     0.9670 H       
  15 O15            0.6319     3.7746    -0.1981 O.3     
  16 C16            1.9744     3.0964    -2.0879 C.3     
  17 O17            4.1653     3.6588    -2.0859 O.3     
  18 O18            4.9737    -0.0973    -1.1271 O.3     
  19 C19            6.3209     0.4176    -1.1199 C.3     
  20 C20            6.2525     1.8724    -0.6030 C.3     
  21 O21            4.4389     1.8240     0.9896 O.3     
  22 C22           -1.7699     1.3015     0.7751 C.2     
  23 C23           -2.6707     1.5413     1.9593 C.3     
  24 C24           -4.1320     1.4578     1.5137 C.3     
  25 C25           -5.0464     1.7013     2.7160 C.3     
  26 C26           -6.5077     1.6178     2.2704 C.3     
  27 C27           -7.4222     1.8613     3.4727 C.3     
  28 O28           -2.2478     1.0860    -0.3135 O.2     
  29 O29            6.7605     2.7792    -1.5836 O.3     
  30 C30           -8.8835     1.7778     3.0271 C.3     
  31 C31           -9.7979     2.0213     4.2293 C.3     
  32 C32            7.0210     2.0133     0.7125 C.3     
  33 C33            0.4818     5.0382    -0.6254 C.2     
  34 C34           -0.7316     5.8328    -0.2164 C.3     
  35 O35            1.3196     5.5385    -1.3379 O.2     
  36 H36            4.0733     1.3777    -2.2800 H       
  37 C37            6.8939     0.3958    -2.5384 C.3     
  38 O38            7.1375    -0.3693    -0.2505 O.3     
  39 C39           -0.4812    -2.3425    -1.1573 C.2     
  40 C40           -1.4153    -3.0612    -2.0964 C.3     
  41 O41            0.0186    -2.9357    -0.2310 O.2     
  42 C42           -1.5587    -4.5195    -1.6561 C.3     
  43 C43           -2.5072    -5.2491    -2.6095 C.3     
  44 C44           -2.6506    -6.7074    -2.1692 C.3     
  45 C45           -3.5990    -7.4371    -3.1226 C.3     
  46 C46           -3.7424    -8.8953    -2.6823 C.3     
  47 C47           -4.6908    -9.6250    -3.6357 C.3     
  48 C48           -4.8342   -11.0833    -3.1954 C.3     
  49 C49           -5.7826   -11.8129    -4.1488 C.3     
  50 C50           -5.9260   -13.2712    -3.7085 C.3     
  51 N51           -6.8366   -13.9718    -4.6239 N.3     
  52 H52           -0.1239     1.4731    -1.1469 H       
  53 H53            0.6534    -0.9160     0.5606 H       
  54 H54            5.1082     4.1903    -0.3375 H       
  55 H55            3.1153     3.6910     1.0712 H       
  56 H56            2.8473     4.9541    -0.1479 H       
  57 H57            2.0575    -2.4716    -1.5924 H       
  58 H58            3.0565    -1.3970    -2.6001 H       
  59 H59            3.6475    -1.9264    -1.0068 H       
  60 H60            1.0287     2.7695    -2.5204 H       
  61 H61            2.2045     4.1032    -2.4363 H       
  62 H62            2.7686     2.4155    -2.3941 H       
  63 H63            3.8936     4.5451    -2.3612 H       
  64 H64            4.6873     0.9334     1.2730 H       
  65 H65           -2.4792     0.7849     2.7205 H       
  66 H66           -2.4726     2.5304     2.3721 H       
  67 H67           -4.3234     2.2141     0.7526 H       
  68 H68           -4.3300     0.4686     1.1010 H       
  69 H69           -4.8549     0.9449     3.4772 H       
  70 H70           -4.8483     2.6905     3.1287 H       
  71 H71           -6.6992     2.3742     1.5092 H       
  72 H72           -6.7058     0.6286     1.8577 H       
  73 H73           -7.2307     1.1050     4.2338 H       
  74 H74           -7.2241     2.8505     3.8854 H       
  75 H75            7.7050     2.6759    -1.7630 H       
  76 H76           -9.0750     2.5342     2.2659 H       
  77 H77           -9.0816     0.7887     2.6143 H       
  78 H78           -9.6064     1.2650     4.9905 H       
  79 H79           -9.5999     3.0105     4.6421 H       
  80 H80          -10.8390     1.9619     3.9119 H       
  81 H81            6.6536     1.2782     1.4285 H       
  82 H82            8.0830     1.8459     0.5325 H       
  83 H83            6.8741     3.0161     1.1135 H       
  84 H84           -0.5217     6.3646     0.7117 H       
  85 H85           -0.9764     6.5508    -0.9991 H       
  86 H86           -1.5741     5.1579    -0.0659 H       
  87 H87            6.2615     0.9933    -3.1950 H       
  88 H88            7.9021     0.8100    -2.5294 H       
  89 H89            6.9264    -0.6315    -2.9014 H       
  90 H90            7.2117    -1.2969    -0.5134 H       
  91 H91           -2.3923    -2.5782    -2.0773 H       
  92 H92           -1.0119    -3.0252    -3.1083 H       
  93 H93           -0.5818    -5.0025    -1.6752 H       
  94 H94           -1.9622    -4.5555    -0.6441 H       
  95 H95           -3.4841    -4.7661    -2.5904 H       
  96 H96           -2.1037    -5.2131    -3.6214 H       
  97 H97           -1.6736    -7.1904    -2.1883 H       
  98 H98           -3.0540    -6.7434    -1.1573 H       
  99 H99           -4.5759    -6.9540    -3.1035 H       
 100 H100          -3.1956    -7.4011    -4.1346 H       
 101 H101          -2.7654    -9.3784    -2.7014 H       
 102 H102          -4.1458    -8.9313    -1.6704 H       
 103 H103          -5.6677    -9.1420    -3.6166 H       
 104 H104          -4.2874    -9.5890    -4.6477 H       
 105 H105          -3.8573   -11.5663    -3.2145 H       
 106 H106          -5.2376   -11.1193    -2.1835 H       
 107 H107          -6.7596   -11.3299    -4.1297 H       
 108 H108          -5.3792   -11.7769    -5.1608 H       
 109 H109          -4.9491   -13.7542    -3.7276 H       
 110 H110          -6.3294   -13.3072    -2.6966 H       
 111 H111          -6.9480   -14.9377    -4.3542 H       
 112 H112          -7.7297   -13.5048    -4.6731 H       
@<TRIPOS>BOND
   1    1    2 1
   2    1    5 1
   3    1   13 1
   4    1   52 1
   5    2    3 1
   6    2   11 1
   7    2   53 1
   8    3    4 2
   9    3   12 1
  10    4    5 1
  11    4    6 1
  12    5   10 1
  13    5   14 1
  14    6    7 1
  15    6   18 1
  16    6   36 1
  17    7   20 1
  18    7   21 1
  19    7    8 1
  20    8    9 1
  21    8   17 1
  22    8   54 1
  23    9   10 1
  24    9   55 1
  25    9   56 1
  26   10   15 1
  27   10   16 1
  28   11   39 1
  29   12   57 1
  30   12   58 1
  31   12   59 1
  32   13   22 1
  33   15   33 1
  34   16   60 1
  35   16   61 1
  36   16   62 1
  37   17   63 1
  38   18   19 1
  39   19   20 1
  40   19   37 1
  41   19   38 1
  42   20   29 1
  43   20   32 1
  44   21   64 1
  45   22   23 1
  46   22   28 2
  47   23   24 1
  48   23   65 1
  49   23   66 1
  50   24   25 1
  51   24   67 1
  52   24   68 1
  53   25   26 1
  54   25   69 1
  55   25   70 1
  56   26   27 1
  57   26   71 1
  58   26   72 1
  59   27   30 1
  60   27   73 1
  61   27   74 1
  62   29   75 1
  63   30   31 1
  64   30   76 1
  65   30   77 1
  66   31   78 1
  67   31   79 1
  68   31   80 1
  69   32   81 1
  70   32   82 1
  71   32   83 1
  72   33   34 1
  73   33   35 2
  74   34   84 1
  75   34   85 1
  76   34   86 1
  77   37   87 1
  78   37   88 1
  79   37   89 1
  80   38   90 1
  81   39   40 1
  82   39   41 2
  83   40   42 1
  84   40   91 1
  85   40   92 1
  86   42   43 1
  87   42   93 1
  88   42   94 1
  89   43   44 1
  90   43   95 1
  91   43   96 1
  92   44   45 1
  93   44   97 1
  94   44   98 1
  95   45   46 1
  96   45   99 1
  97   45  100 1
  98   46   47 1
  99   46  101 1
 100   46  102 1
 101   47   48 1
 102   47  103 1
 103   47  104 1
 104   48   49 1
 105   48  105 1
 106   48  106 1
 107   49   50 1
 108   49  107 1
 109   49  108 1
 110   50   51 1
 111   50  109 1
 112   50  110 1
 113   51  111 1
 114   51  112 1

#	End of record

