#	Name: ASD01810718
#	Creating user name:	WinNT
#	Creation time:	15. 06. 2019 19:25

#	Modifying user name:	WinNT
#	Modification time:	15. 06. 2019 19:25

#	Program:	/corina/corina34_cracker 3.40 0067  02.08.2006

@<TRIPOS>MOLECULE
ASD01810718
  44   47    0    0    0
SMALL
NO_CHARGES


@<TRIPOS>ATOM
   1 N1            -0.0153     1.2758     0.0091 N.pl3   
   2 N2             0.0021    -0.0041     0.0020 N.2     
   3 C3             1.0990    -0.7288    -0.0124 C.2     
   4 C4             2.4108    -0.0540    -0.0213 C.2     
   5 C5             2.3835     1.4204    -0.0131 C.ar    
   6 C6             3.5482     2.1832    -0.0197 C.ar    
   7 C7             3.4600     3.5483    -0.0111 C.ar    
   8 C8             2.2207     4.1742     0.0040 C.ar    
   9 C9             1.0569     3.4371     0.0108 C.ar    
  10 C10            1.1218     2.0463     0.0023 C.ar    
  11 C11            1.0188    -2.1998    -0.0191 C.2     
  12 O12            2.0366    -2.8637    -0.0324 O.2     
  13 O13           -0.1832    -2.8093    -0.0104 O.3     
  14 C14           -1.3141     1.9533     0.0188 C.3     
  15 C15           -2.5273     1.2465    -2.0579 C.ar    
  16 C16           -1.7661     2.1934    -1.3987 C.ar    
  17 C17           -1.4223     3.3676    -2.0541 C.ar    
  18 C18           -1.8573     3.5500    -3.3549 C.ar    
  19 C19           -2.6220     2.5534    -3.9592 C.ar    
  20 N20           -2.9291     1.4445    -3.2972 N.ar    
  21 S21           -4.1776     2.4291    -7.6146 S.3     
  22 C22           -3.2962     3.8523    -7.2701 C.2     
  23 N23           -2.8275     3.8138    -6.0716 N.2     
  24 C24           -3.0962     2.7334    -5.3517 C.2     
  25 C25           -3.8398     1.8124    -5.9993 C.2     
  26 O26            3.4567    -0.6790    -0.0343 O.2     
  27 C27           -0.1862    -4.2613    -0.0177 C.3     
  28 C28           -1.6297    -4.7684    -0.0061 C.3     
  29 H29            4.5143     1.7006    -0.0312 H       
  30 H30            4.3610     4.1437    -0.0158 H       
  31 H31            2.1685     5.2529     0.0110 H       
  32 H32            0.0989     3.9356     0.0229 H       
  33 H33           -2.0455     1.3295     0.5326 H       
  34 H34           -1.2222     2.9077     0.5374 H       
  35 H35           -2.7925     0.3299    -1.5520 H       
  36 H36           -0.8287     4.1223    -1.5597 H       
  37 H37           -1.6083     4.4519    -3.8942 H       
  38 H38           -3.1526     4.6697    -7.9612 H       
  39 H39           -4.1694     0.8652    -5.5985 H       
  40 H40            0.3181    -4.6211    -0.9145 H       
  41 H41            0.3356    -4.6301     0.8654 H       
  42 H42           -1.6319    -5.8583    -0.0116 H       
  43 H43           -2.1340    -4.4085     0.8907 H       
  44 H44           -2.1514    -4.3995    -0.8892 H       
@<TRIPOS>BOND
   1    1    2 1
   2    1   10 1
   3    1   14 1
   4    2    3 2
   5    3    4 1
   6    3   11 1
   7    4    5 1
   8    4   26 2
   9    5    6 ar
  10    5   10 ar
  11    6    7 ar
  12    6   29 1
  13    7    8 ar
  14    7   30 1
  15    8    9 ar
  16    8   31 1
  17    9   10 ar
  18    9   32 1
  19   11   12 2
  20   11   13 1
  21   13   27 1
  22   14   16 1
  23   14   33 1
  24   14   34 1
  25   15   16 ar
  26   15   20 ar
  27   15   35 1
  28   16   17 ar
  29   17   18 ar
  30   17   36 1
  31   18   19 ar
  32   18   37 1
  33   19   20 ar
  34   19   24 1
  35   21   22 1
  36   21   25 1
  37   22   23 2
  38   22   38 1
  39   23   24 1
  40   24   25 2
  41   25   39 1
  42   27   28 1
  43   27   40 1
  44   27   41 1
  45   28   42 1
  46   28   43 1
  47   28   44 1

#	End of record

