#	Name: ASD03570009
#	Creating user name:	WinNT
#	Creation time:	15. 06. 2019 20:43

#	Modifying user name:	WinNT
#	Modification time:	15. 06. 2019 20:43

#	Program:	/corina/corina34_cracker 3.40 0067  02.08.2006

@<TRIPOS>MOLECULE
ASD03570009
  28   29    0    0    0
SMALL
NO_CHARGES


@<TRIPOS>ATOM
   1 C1            -0.0168     1.3862     0.0097 C.ar    
   2 C2             0.0021    -0.0041     0.0020 C.ar    
   3 C3             1.1969    -0.6897    -0.0127 C.ar    
   4 C4             2.3982     0.0136    -0.0204 C.ar    
   5 C5             2.3760     1.4222    -0.0131 C.ar    
   6 C6             1.1476     2.0967     0.0024 C.ar    
   7 N7             3.7163    -0.3769    -0.0348 N.pl3   
   8 C8             4.5145     0.7516    -0.0366 C.2     
   9 C9             3.7229     1.8569    -0.0236 C.2     
  10 C10            4.1949     3.2880    -0.0208 C.3     
  11 C11            4.3416     3.7795    -1.4623 C.3     
  12 Br12          -1.6278    -0.9629     0.0125 Br      
  13 C13            4.8136     5.2106    -1.4596 C.2     
  14 O14            5.0123     5.7792    -0.4121 O.2     
  15 O15            5.0134     5.8537    -2.6207 O.3     
  16 C16            5.9831     0.7559    -0.0496 C.2     
  17 O17            6.5879     1.8105    -0.0496 O.2     
  18 O18            6.6607    -0.4099    -0.0616 O.3     
  19 H19           -0.9621     1.9084     0.0170 H       
  20 H20            1.2016    -1.7697    -0.0178 H       
  21 H21            1.1230     3.1764     0.0077 H       
  22 H22            4.0338    -1.2934    -0.0419 H       
  23 H23            3.4681     3.9093     0.5026 H       
  24 H24            5.1585     3.3519     0.4847 H       
  25 H25            5.0684     3.1582    -1.9858 H       
  26 H26            3.3781     3.7156    -1.9678 H       
  27 H27            5.3163     6.7705    -2.5683 H       
  28 H28            7.6262    -0.3565    -0.0699 H       
@<TRIPOS>BOND
   1    1    2 ar
   2    1    6 ar
   3    1   19 1
   4    2    3 ar
   5    2   12 1
   6    3    4 ar
   7    3   20 1
   8    4    5 ar
   9    4    7 1
  10    5    6 ar
  11    5    9 1
  12    6   21 1
  13    7    8 1
  14    7   22 1
  15    8    9 2
  16    8   16 1
  17    9   10 1
  18   10   11 1
  19   10   23 1
  20   10   24 1
  21   11   13 1
  22   11   25 1
  23   11   26 1
  24   13   14 2
  25   13   15 1
  26   15   27 1
  27   16   17 2
  28   16   18 1
  29   18   28 1

#	End of record

