#	Name: ASD07930921
#	Creating user name:	WinNT
#	Creation time:	15. 06. 2019 21:13

#	Modifying user name:	WinNT
#	Modification time:	15. 06. 2019 21:13

#	Program:	/corina/corina34_cracker 3.40 0067  02.08.2006

@<TRIPOS>MOLECULE
ASD07930921
  13   13    0    0    0
SMALL
NO_CHARGES


@<TRIPOS>ATOM
   1 C1            -0.0144     1.2088     0.0087 C.2     
   2 O2             0.0021    -0.0041     0.0020 O.2     
   3 C3             1.2523     1.9633     0.0006 C.ar    
   4 C4             2.4697     1.2755    -0.0147 C.ar    
   5 C5             3.6531     2.0022    -0.0225 C.ar    
   6 C6             3.5787     3.3860    -0.0148 C.ar    
   7 C7             2.3342     4.0019     0.0004 C.ar    
   8 N8             1.2286     3.2925     0.0025 N.ar    
   9 F9             2.4942    -0.0752    -0.0213 F       
  10 Br10           5.1578     4.4263    -0.0244 Br      
  11 Cl11          -1.5294     2.0562     0.0205 Cl      
  12 H12            4.6094     1.5004    -0.0340 H       
  13 H13            2.2744     5.0802     0.0068 H       
@<TRIPOS>BOND
   1    1    2 2
   2    1    3 1
   3    1   11 1
   4    3    4 ar
   5    3    8 ar
   6    4    5 ar
   7    4    9 1
   8    5    6 ar
   9    5   12 1
  10    6    7 ar
  11    6   10 1
  12    7    8 ar
  13    7   13 1

#	End of record

