#	Name: ASD05730094
#	Creating user name:	WinNT
#	Creation time:	15. 06. 2019 21:02

#	Modifying user name:	WinNT
#	Modification time:	15. 06. 2019 21:02

#	Program:	/corina/corina34_cracker 3.40 0067  02.08.2006

@<TRIPOS>MOLECULE
ASD05730094
  67   71    0    0    0
SMALL
NO_CHARGES


@<TRIPOS>ATOM
   1 N1            -1.2265     0.4416    -1.0467 N.3     
   2 C2            -1.0281    -0.9271    -0.8331 C.ar    
   3 C3            -2.0206    -1.8349    -1.1787 C.ar    
   4 C4            -1.8246    -3.1853    -0.9683 C.ar    
   5 C5            -0.6350    -3.6358    -0.4113 C.ar    
   6 C6             0.3575    -2.7281    -0.0658 C.ar    
   7 C7             0.1637    -1.3781    -0.2809 C.ar    
   8 N8            -0.4364    -5.0058    -0.1975 N.pl3   
   9 C9             0.8274    -5.5484    -0.3240 C.ar    
  10 N10            1.0094    -6.8218    -0.0086 N.ar    
  11 C11            2.2102    -7.3789    -0.1176 C.ar    
  12 C12            3.2859    -6.5874    -0.5755 C.ar    
  13 C13            3.0414    -5.2437    -0.8967 C.ar    
  14 N14            1.8148    -4.7752    -0.7626 N.ar    
  15 N15            2.4080    -8.6970     0.2078 N.am    
  16 C16            3.6281    -9.2566     0.0967 C.2     
  17 C17            4.7653    -8.4636    -0.3752 C.2     
  18 C18            4.5771    -7.1479    -0.7040 C.2     
  19 C19            1.2807    -9.5040     0.6814 C.3     
  20 C20            0.5896   -10.1652    -0.5127 C.3     
  21 O21            3.7866   -10.4280     0.3906 O.2     
  22 C22            6.1072    -9.0799    -0.4966 C.ar    
  23 C23            6.5287    -9.6057    -1.7184 C.ar    
  24 C24            6.9564    -9.1316     0.6084 C.ar    
  25 C25            8.2049    -9.7068     0.4893 C.ar    
  26 C26            8.6158   -10.2314    -0.7233 C.ar    
  27 C27            7.7810   -10.1789    -1.8247 C.ar    
  28 C28           -0.0566     1.2175    -0.6121 C.3     
  29 C29           -0.2802     2.6968    -0.9348 C.3     
  30 N30           -1.4990     3.1639    -0.2594 N.3     
  31 C31           -2.6689     2.3881    -0.6941 C.3     
  32 C32           -2.4452     0.9088    -0.3714 C.3     
  33 Cl33           5.4816    -9.5403    -3.1015 Cl      
  34 C34           -1.7072     4.6007    -0.4837 C.3     
  35 S35            6.4363    -8.4633     2.1535 S.o2    
  36 O36            5.1449    -9.0195     2.3589 O.2     
  37 O37            7.5085    -8.7536     3.0397 O.2     
  38 C38            6.3204    -6.6773     1.8581 C.3     
  39 H39           -2.9460    -1.4845    -1.6116 H       
  40 H40           -2.5967    -3.8913    -1.2367 H       
  41 H41            1.2827    -3.0785     0.3674 H       
  42 H42            0.9357    -0.6722    -0.0122 H       
  43 H43           -1.1865    -5.5734     0.0394 H       
  44 H44            3.8392    -4.6073    -1.2501 H       
  45 H45            5.4033    -6.5467    -1.0538 H       
  46 H46            1.6452   -10.2734     1.3620 H       
  47 H47            0.5698    -8.8639     1.2039 H       
  48 H48            1.3005   -10.8053    -1.0352 H       
  49 H49           -0.2492   -10.7656    -0.1604 H       
  50 H50            0.2250    -9.3958    -1.1933 H       
  51 H51            8.8632    -9.7472     1.3446 H       
  52 H52            9.5944   -10.6799    -0.8113 H       
  53 H53            8.1071   -10.5904    -2.7684 H       
  54 H54            0.0813     1.0965     0.4624 H       
  55 H55            0.8309     0.8613    -1.1353 H       
  56 H56            0.5738     3.2780    -0.5871 H       
  57 H57           -0.3909     2.8213    -2.0120 H       
  58 H58           -3.5563     2.7442    -0.1709 H       
  59 H59           -2.8067     2.5090    -1.7686 H       
  60 H60           -3.2992     0.3275    -0.7191 H       
  61 H61           -2.3345     0.7843     0.7058 H       
  62 H62           -1.8050     4.7912    -1.5524 H       
  63 H63           -2.6157     4.9202     0.0269 H       
  64 H64           -0.8555     5.1568    -0.0919 H       
  65 H65            5.5127    -6.4771     1.1541 H       
  66 H66            6.1174    -6.1658     2.7990 H       
  67 H67            7.2615    -6.3157     1.4437 H       
@<TRIPOS>BOND
   1    1    2 1
   2    1   28 1
   3    1   32 1
   4    2    3 ar
   5    2    7 ar
   6    3    4 ar
   7    3   39 1
   8    4    5 ar
   9    4   40 1
  10    5    6 ar
  11    5    8 1
  12    6    7 ar
  13    6   41 1
  14    7   42 1
  15    8    9 1
  16    8   43 1
  17    9   10 ar
  18    9   14 ar
  19   10   11 ar
  20   11   12 ar
  21   11   15 1
  22   12   13 ar
  23   12   18 1
  24   13   14 ar
  25   13   44 1
  26   15   16 am
  27   15   19 1
  28   16   17 1
  29   16   21 2
  30   17   18 2
  31   17   22 1
  32   18   45 1
  33   19   20 1
  34   19   46 1
  35   19   47 1
  36   20   48 1
  37   20   49 1
  38   20   50 1
  39   22   24 ar
  40   22   23 ar
  41   23   33 1
  42   23   27 ar
  43   24   25 ar
  44   24   35 1
  45   25   26 ar
  46   25   51 1
  47   26   27 ar
  48   26   52 1
  49   27   53 1
  50   28   29 1
  51   28   54 1
  52   28   55 1
  53   29   30 1
  54   29   56 1
  55   29   57 1
  56   30   31 1
  57   30   34 1
  58   31   32 1
  59   31   58 1
  60   31   59 1
  61   32   60 1
  62   32   61 1
  63   34   62 1
  64   34   63 1
  65   34   64 1
  66   35   36 2
  67   35   37 2
  68   35   38 1
  69   38   65 1
  70   38   66 1
  71   38   67 1

#	End of record

