#	Name: ASD01870646
#	Creating user name:	WinNT
#	Creation time:	15. 06. 2019 19:39

#	Modifying user name:	WinNT
#	Modification time:	15. 06. 2019 19:39

#	Program:	/corina/corina34_cracker 3.40 0067  02.08.2006

@<TRIPOS>MOLECULE
ASD01870646
  46   49    0    0    0
SMALL
NO_CHARGES


@<TRIPOS>ATOM
   1 C1             0.5046     1.3611    -1.4453 C.ar    
   2 C2             0.5290    -0.0183    -1.4323 C.ar    
   3 C3             1.4818    -0.6893    -0.6868 C.ar    
   4 C4             2.4163     0.0170     0.0499 C.ar    
   5 C5             2.4031     1.3962     0.0456 C.ar    
   6 C6             1.4443     2.0796    -0.7046 C.ar    
   7 C7             1.4244     3.5576    -0.7143 C.2     
   8 O8             0.5883     4.1500    -1.3684 O.2     
   9 N9             2.3332     4.2485     0.0021 N.am    
  10 C10            2.3754     5.6449    -0.0816 C.ar    
  11 C11            1.2395     7.7458    -0.2984 C.ar    
  12 C12            1.1976     6.3686    -0.2164 C.ar    
  13 C13            3.5947     6.3076    -0.0241 C.ar    
  14 C14            3.6360     7.6849    -0.1062 C.ar    
  15 C15            2.4589     8.4077    -0.2462 C.ar    
  16 N16            2.5012     9.8077    -0.3301 N.am    
  17 C17            2.3213    11.9620    -1.1913 C.3     
  18 C18            2.1638    10.4776    -1.4390 C.2     
  19 C19            2.8769    10.5838     0.6940 C.2     
  20 C20            2.8098    12.0347     0.2698 C.3     
  21 C21            1.4517    12.6221    -0.1194 C.3     
  22 C22            1.3263    14.1466    -0.1534 C.3     
  23 C23            0.2007    11.8684     0.3364 C.3     
  24 O24            1.7914     9.9746    -2.4773 O.2     
  25 O25            3.2167    10.1871     1.7880 O.2     
  26 C26           -0.4849    -0.7958    -2.2315 C.3     
  27 H27            2.7617    12.5654    -1.9850 H       
  28 H28            3.6214    12.6928     0.5803 H       
  29 H29           -0.2372     1.8838    -2.0310 H       
  30 H30            1.4960    -1.7692    -0.6795 H       
  31 H31            3.1575    -0.5129     0.6297 H       
  32 H32            3.1328     1.9463     0.6212 H       
  33 H33            2.9581     3.7779     0.5757 H       
  34 H34            0.3237     8.3086    -0.4033 H       
  35 H35            0.2491     5.8537    -0.2574 H       
  36 H36            4.5104     5.7455     0.0852 H       
  37 H37            4.5840     8.2004    -0.0611 H       
  38 H38            0.8941    14.4544    -1.1055 H       
  39 H39            0.6821    14.4764     0.6616 H       
  40 H40            2.3134    14.5949    -0.0406 H       
  41 H41            0.4895    10.9034     0.7531 H       
  42 H42           -0.3182    12.4519     1.0969 H       
  43 H43           -0.4605    11.7127    -0.5160 H       
  44 H44           -0.0948    -0.9797    -3.2326 H       
  45 H45           -0.6837    -1.7474    -1.7386 H       
  46 H46           -1.4094    -0.2227    -2.3014 H       
@<TRIPOS>BOND
   1    1    2 ar
   2    1    6 ar
   3    1   29 1
   4    2    3 ar
   5    2   26 1
   6    3    4 ar
   7    3   30 1
   8    4    5 ar
   9    4   31 1
  10    5    6 ar
  11    5   32 1
  12    6    7 1
  13    7    8 2
  14    7    9 am
  15    9   10 1
  16    9   33 1
  17   10   13 ar
  18   10   12 ar
  19   11   12 ar
  20   11   15 ar
  21   11   34 1
  22   12   35 1
  23   13   14 ar
  24   13   36 1
  25   14   15 ar
  26   14   37 1
  27   15   16 1
  28   16   19 am
  29   16   18 am
  30   17   18 1
  31   17   20 1
  32   17   21 1
  33   17   27 1
  34   18   24 2
  35   19   20 1
  36   19   25 2
  37   20   28 1
  38   20   21 1
  39   21   22 1
  40   21   23 1
  41   22   38 1
  42   22   39 1
  43   22   40 1
  44   23   41 1
  45   23   42 1
  46   23   43 1
  47   26   44 1
  48   26   45 1
  49   26   46 1

#	End of record

