#	Name: ASD03330396
#	Creating user name:	WinNT
#	Creation time:	15. 06. 2019 20:37

#	Modifying user name:	WinNT
#	Modification time:	15. 06. 2019 20:37

#	Program:	/corina/corina34_cracker 3.40 0067  02.08.2006

@<TRIPOS>MOLECULE
ASD03330396
  57   59    0    0    0
SMALL
NO_CHARGES


@<TRIPOS>ATOM
   1 C1             1.1862     1.4387     0.6754 C.3     
   2 N2             1.1123    -0.0297     0.6399 N.am    
   3 C3             1.4363    -0.7100    -0.6287 C.3     
   4 C4             2.6618    -0.0317    -1.1898 C.2     
   5 N5             3.1790     1.1316    -0.7049 N.pl3   
   6 C6             2.6333     1.8801     0.4297 C.3     
   7 C7             3.4450    -0.4219    -2.2270 C.2     
   8 N8             4.4231     0.5007    -2.3716 N.2     
   9 C9             4.2688     1.4366    -1.4633 C.2     
  10 C10            5.1339     2.6245    -1.2926 C.ar    
  11 C11            6.0199     2.9967    -2.3042 C.ar    
  12 C12            3.2631    -1.6327    -3.0470 C.2     
  13 O13            2.3398    -2.3901    -2.8167 O.2     
  14 C14            3.9391    -3.1045    -4.8674 C.3     
  15 N15            4.1199    -1.9008    -4.0522 N.am    
  16 C16            0.7596    -0.7333     1.7340 C.2     
  17 O17            0.7043    -1.9461     1.6847 O.2     
  18 C18            6.8242     4.1052    -2.1395 C.ar    
  19 C19            6.7534     4.8481    -0.9731 C.ar    
  20 C20            5.8760     4.4835     0.0341 C.ar    
  21 C21            5.0628     3.3802    -0.1219 C.ar    
  22 O22            0.4684    -0.0922     2.8816 O.3     
  23 C23            0.0964    -0.9138     4.0195 C.3     
  24 C24            6.0384    -2.4769    -6.0679 C.3     
  25 C25            4.5755    -2.8898    -6.2421 C.3     
  26 C26            4.5048    -4.1900    -7.0455 C.3     
  27 C27            4.6080    -4.2941    -4.1759 C.3     
  28 Cl28           7.7690     6.2417    -0.7726 Cl      
  29 O29            6.0120    -4.0523    -4.0641 O.3     
  30 C30            3.8199    -1.7879    -6.9875 C.3     
  31 H31            0.5425     1.8541    -0.0999 H       
  32 H32            0.8577     1.7959     1.6515 H       
  33 H33            1.6461    -1.7634    -0.4431 H       
  34 H34            0.6046    -0.6124    -1.3263 H       
  35 H35            2.6559     2.9468     0.2069 H       
  36 H36            3.2310     1.6803     1.3190 H       
  37 H37            6.0762     2.4177    -3.2142 H       
  38 H38            2.8745    -3.3056    -4.9873 H       
  39 H39            4.8563    -1.2968    -4.2359 H       
  40 H40            7.5106     4.3940    -2.9217 H       
  41 H41            5.8250     5.0666     0.9418 H       
  42 H42            4.3788     3.0966     0.6644 H       
  43 H43           -0.1120    -0.2740     4.8770 H       
  44 H44           -0.7936    -1.4933     3.7738 H       
  45 H45            0.9153    -1.5910     4.2620 H       
  46 H46            6.6167    -3.3295    -5.7118 H       
  47 H47            6.4377    -2.1415    -7.0251 H       
  48 H48            6.1031    -1.6657    -5.3428 H       
  49 H49            5.0431    -4.9750    -6.5145 H       
  50 H50            3.4626    -4.4842    -7.1696 H       
  51 H51            4.9582    -4.0371    -8.0249 H       
  52 H52            4.1813    -4.4232    -3.1812 H       
  53 H53            4.4405    -5.1970    -4.7631 H       
  54 H54            6.5012    -4.7671    -3.6342 H       
  55 H55            4.2733    -1.6350    -7.9669 H       
  56 H56            2.7777    -2.0821    -7.1116 H       
  57 H57            3.8703    -0.8617    -6.4151 H       
@<TRIPOS>BOND
   1    1    2 1
   2    1    6 1
   3    1   31 1
   4    1   32 1
   5    2    3 1
   6    2   16 am
   7    3    4 1
   8    3   33 1
   9    3   34 1
  10    4    5 1
  11    4    7 2
  12    5    6 1
  13    5    9 1
  14    6   35 1
  15    6   36 1
  16    7    8 1
  17    7   12 1
  18    8    9 2
  19    9   10 1
  20   10   11 ar
  21   10   21 ar
  22   11   18 ar
  23   11   37 1
  24   12   13 2
  25   12   15 am
  26   14   15 1
  27   14   27 1
  28   14   25 1
  29   14   38 1
  30   15   39 1
  31   16   17 2
  32   16   22 1
  33   18   19 ar
  34   18   40 1
  35   19   20 ar
  36   19   28 1
  37   20   21 ar
  38   20   41 1
  39   21   42 1
  40   22   23 1
  41   23   43 1
  42   23   44 1
  43   23   45 1
  44   24   25 1
  45   24   46 1
  46   24   47 1
  47   24   48 1
  48   25   30 1
  49   25   26 1
  50   26   49 1
  51   26   50 1
  52   26   51 1
  53   27   29 1
  54   27   52 1
  55   27   53 1
  56   29   54 1
  57   30   55 1
  58   30   56 1
  59   30   57 1

#	End of record

