#	Name: ASD03091086
#	Creating user name:	WinNT
#	Creation time:	15. 06. 2019 20:30

#	Modifying user name:	WinNT
#	Modification time:	15. 06. 2019 20:30

#	Program:	/corina/corina34_cracker 3.40 0067  02.08.2006

@<TRIPOS>MOLECULE
ASD03091086
  64   66    0    0    0
SMALL
NO_CHARGES


@<TRIPOS>ATOM
   1 C1             0.0527     1.0473    -0.6339 C.3     
   2 N2             0.3522    -0.3963    -0.8681 N.am    
   3 C3             0.7212    -0.9585     0.4488 C.3     
   4 C4             0.5682     0.2251     1.4537 C.3     
   5 N5             1.7098     1.1348     1.1216 N.3     
   6 C6             1.4300     1.6623    -0.2357 C.3     
   7 C7            -0.6286     0.9876     0.7801 C.3     
   8 C8             0.2974    -1.0545    -2.0429 C.2     
   9 O9            -0.0237    -0.4645    -3.0554 O.2     
  10 O10            0.5983    -2.3658    -2.0946 O.3     
  11 C11            2.9244     0.4450     1.1502 C.ar    
  12 C12            3.9986     0.9009     0.4008 C.ar    
  13 C13            5.2088     0.2087     0.4329 C.ar    
  14 C14            5.3308    -0.9386     1.2191 C.ar    
  15 C15            4.2561    -1.3841     1.9610 C.ar    
  16 C16            3.0581    -0.6949     1.9340 C.ar    
  17 N17            6.6129    -1.6774     1.2562 N.pl3   
  18 O18            6.6368    -2.8688     1.0043 O.2     
  19 O19            7.6440    -1.0939     1.5388 O.2     
  20 C20            6.3587     0.6879    -0.3636 C.2     
  21 N21            6.2821     1.8636    -1.0179 N.am    
  22 O22            7.3732     0.0214    -0.4281 O.2     
  23 C23            7.4214     2.3384    -1.8070 C.3     
  24 C24            7.0808     3.6665    -2.4323 C.2     
  25 O25            5.9934     4.1672    -2.2380 O.2     
  26 N26            7.9846     4.2980    -3.2075 N.am    
  27 C27            7.6535     5.5891    -3.8154 C.3     
  28 C28            8.9411     6.3680    -4.0916 C.3     
  29 C29            6.9059     5.3571    -5.1300 C.3     
  30 C30            0.5179    -3.0099    -3.3934 C.3     
  31 C31            1.4860    -2.3274    -4.3619 C.3     
  32 C32            0.8922    -4.4868    -3.2543 C.3     
  33 C33           -0.9092    -2.8940    -3.9327 C.3     
  34 H34           -0.4920     1.5592    -1.4272 H       
  35 H35            0.0459    -1.7714     0.7159 H       
  36 H36            1.7524    -1.3116     0.4340 H       
  37 H37            0.4589    -0.0451     2.5040 H       
  38 H38            2.2037     1.3416    -0.9334 H       
  39 H39            1.3666     2.7502    -0.2135 H       
  40 H40           -0.7826     1.9781     1.2082 H       
  41 H41           -1.5452     0.3978     0.7742 H       
  42 H42            3.8982     1.7888    -0.2057 H       
  43 H43            4.3527    -2.2719     2.5685 H       
  44 H44            2.2218    -1.0459     2.5204 H       
  45 H45            5.4725     2.3954    -0.9665 H       
  46 H46            8.2897     2.4542    -1.1583 H       
  47 H47            7.6473     1.6151    -2.5906 H       
  48 H48            8.8543     3.8975    -3.3630 H       
  49 H49            7.0224     6.1601    -3.1344 H       
  50 H50            9.5722     5.7970    -4.7726 H       
  51 H51            8.6948     7.3286    -4.5439 H       
  52 H52            9.4737     6.5333    -3.1550 H       
  53 H53            5.9886     4.8022    -4.9333 H       
  54 H54            6.6595     6.3178    -5.5823 H       
  55 H55            7.5370     4.7861    -5.8110 H       
  56 H56            2.5027    -2.4099    -3.9778 H       
  57 H57            1.4256    -2.8109    -5.3370 H       
  58 H58            1.2193    -1.2752    -4.4610 H       
  59 H59            0.2026    -4.9730    -2.5644 H       
  60 H60            0.8319    -4.9703    -4.2294 H       
  61 H61            1.9090    -4.5693    -2.8702 H       
  62 H62           -1.1759    -1.8418    -4.0318 H       
  63 H63           -0.9696    -3.3775    -4.9077 H       
  64 H64           -1.5989    -3.3802    -3.2427 H       
@<TRIPOS>BOND
   1    1    2 1
   2    1    6 1
   3    1    7 1
   4    1   34 1
   5    2    3 1
   6    2    8 am
   7    3    4 1
   8    3   35 1
   9    3   36 1
  10    4    5 1
  11    4    7 1
  12    4   37 1
  13    5    6 1
  14    5   11 1
  15    6   38 1
  16    6   39 1
  17    7   40 1
  18    7   41 1
  19    8    9 2
  20    8   10 1
  21   10   30 1
  22   11   12 ar
  23   11   16 ar
  24   12   13 ar
  25   12   42 1
  26   13   14 ar
  27   13   20 1
  28   14   15 ar
  29   14   17 1
  30   15   16 ar
  31   15   43 1
  32   16   44 1
  33   17   18 2
  34   17   19 2
  35   20   21 am
  36   20   22 2
  37   21   23 1
  38   21   45 1
  39   23   24 1
  40   23   46 1
  41   23   47 1
  42   24   25 2
  43   24   26 am
  44   26   27 1
  45   26   48 1
  46   27   28 1
  47   27   29 1
  48   27   49 1
  49   28   50 1
  50   28   51 1
  51   28   52 1
  52   29   53 1
  53   29   54 1
  54   29   55 1
  55   30   31 1
  56   30   33 1
  57   30   32 1
  58   31   56 1
  59   31   57 1
  60   31   58 1
  61   32   59 1
  62   32   60 1
  63   32   61 1
  64   33   62 1
  65   33   63 1
  66   33   64 1

#	End of record

