#	Name: ASD01881382
#	Creating user name:	WinNT
#	Creation time:	15. 06. 2019 19:42

#	Modifying user name:	WinNT
#	Modification time:	15. 06. 2019 19:42

#	Program:	/corina/corina34_cracker 3.40 0067  02.08.2006

@<TRIPOS>MOLECULE
ASD01881382
  55   58    0    0    0
SMALL
NO_CHARGES


@<TRIPOS>ATOM
   1 C1            -0.0170     1.4038     0.0098 C.ar    
   2 C2             0.0021    -0.0041     0.0020 C.ar    
   3 C3             1.1843     2.1087     0.0021 C.ar    
   4 C4             2.3729     1.4395    -0.0129 C.ar    
   5 C5             2.4048     0.0396    -0.0212 C.ar    
   6 C6             1.2187    -0.6842    -0.0128 C.ar    
   7 C7             3.7044    -0.6706    -0.0379 C.2     
   8 C8             4.5761    -0.5719     1.0369 C.2     
   9 C9             4.0751    -1.4650    -1.1468 C.2     
  10 C10            5.2633    -2.1053    -1.1456 C.2     
  11 N11            6.1143    -1.9990    -0.0908 N.am    
  12 C12            5.7985    -1.2578     0.9872 C.2     
  13 C13            7.3952    -2.7091    -0.1254 C.3     
  14 C14            8.4609    -1.8085    -0.7532 C.3     
  15 C15            9.7986    -2.5502    -0.7893 C.3     
  16 C16           10.8643    -1.6496    -1.4171 C.3     
  17 Cl17           4.1600     0.3870     2.4230 Cl      
  18 O18            6.5801    -1.1782     1.9219 O.2     
  19 C19           -1.8069     3.1781     0.0285 C.3     
  20 C20           -2.6381     3.4266     1.2888 C.3     
  21 C21           -3.1286     4.8758     1.2987 C.3     
  22 C22           -3.9907     5.1309     0.0607 C.3     
  23 O23           -4.4489     6.4844     0.0700 O.3     
  24 C24           -1.4006    -0.4283     0.0127 C.2     
  25 C25           -2.1467     0.6872     0.0255 C.2     
  26 N26           -1.3372     1.7905     0.0189 N.pl3   
  27 C27           -2.6690     3.4333    -1.2095 C.3     
  28 C28           -3.1596     4.8825    -1.1996 C.3     
  29 H29            1.1747     3.1886     0.0076 H       
  30 H30            3.2990     1.9952    -0.0187 H       
  31 H31            1.2392    -1.7640    -0.0189 H       
  32 H32            3.4096    -1.5595    -1.9921 H       
  33 H33            5.5419    -2.7114    -1.9950 H       
  34 H34            7.6930    -2.9710     0.8899 H       
  35 H35            7.2913    -3.6173    -0.7192 H       
  36 H36            8.1631    -1.5466    -1.7685 H       
  37 H37            8.5649    -0.9004    -0.1594 H       
  38 H38           10.0964    -2.8121     0.2260 H       
  39 H39            9.6947    -3.4583    -1.3831 H       
  40 H40           10.5665    -1.3877    -2.4324 H       
  41 H41           10.9683    -0.7414    -0.8233 H       
  42 H42           11.8173    -2.1779    -1.4429 H       
  43 H43           -0.9501     3.8518     0.0196 H       
  44 H44           -3.4949     2.7529     1.2976 H       
  45 H45           -2.0239     3.2448     2.1707 H       
  46 H46           -3.7208     5.0528     2.1966 H       
  47 H47           -2.2718     5.5495     1.2899 H       
  48 H48           -4.8476     4.4572     0.0695 H       
  49 H49           -5.0028     6.7174    -0.6876 H       
  50 H50           -1.7646    -1.4451     0.0102 H       
  51 H51           -3.2264     0.7107     0.0350 H       
  52 H52           -2.0769     3.2563    -2.1074 H       
  53 H53           -3.5259     2.7596    -1.2007 H       
  54 H54           -3.7738     5.0642    -2.0815 H       
  55 H55           -2.3028     5.5561    -1.2084 H       
@<TRIPOS>BOND
   1    1    2 ar
   2    1    3 ar
   3    1   26 1
   4    2   24 1
   5    2    6 ar
   6    3    4 ar
   7    3   29 1
   8    4    5 ar
   9    4   30 1
  10    5    6 ar
  11    5    7 1
  12    6   31 1
  13    7    8 2
  14    7    9 1
  15    8   17 1
  16    8   12 1
  17    9   10 2
  18    9   32 1
  19   10   11 1
  20   10   33 1
  21   11   12 am
  22   11   13 1
  23   12   18 2
  24   13   14 1
  25   13   34 1
  26   13   35 1
  27   14   15 1
  28   14   36 1
  29   14   37 1
  30   15   16 1
  31   15   38 1
  32   15   39 1
  33   16   40 1
  34   16   41 1
  35   16   42 1
  36   19   20 1
  37   19   26 1
  38   19   27 1
  39   19   43 1
  40   20   21 1
  41   20   44 1
  42   20   45 1
  43   21   22 1
  44   21   46 1
  45   21   47 1
  46   22   23 1
  47   22   28 1
  48   22   48 1
  49   23   49 1
  50   24   25 2
  51   24   50 1
  52   25   26 1
  53   25   51 1
  54   27   28 1
  55   27   52 1
  56   27   53 1
  57   28   54 1
  58   28   55 1

#	End of record

