#	Name: ASD01883239
#	Creating user name:	WinNT
#	Creation time:	15. 06. 2019 19:46

#	Modifying user name:	WinNT
#	Modification time:	15. 06. 2019 19:46

#	Program:	/corina/corina34_cracker 3.40 0067  02.08.2006

@<TRIPOS>MOLECULE
ASD01883239
  50   52    0    0    0
SMALL
NO_CHARGES


@<TRIPOS>ATOM
   1 N1            -0.3269     1.8588     0.1382 N.am    
   2 C2            -0.2166     0.5277    -0.0269 C.2     
   3 C3            -1.3796    -0.2808    -0.0463 C.2     
   4 C4            -2.6337     0.3370     0.1093 C.2     
   5 C5            -2.6827     1.7351     0.2783 C.2     
   6 C6            -1.5377     2.4539     0.2940 C.2     
   7 O7             0.8831     0.0182    -0.1600 O.2     
   8 C8            -1.2807    -1.6986    -0.2215 C.1     
   9 N9            -1.2021    -2.8233    -0.3604 N.1     
  10 C10            0.8847     2.6822     0.1563 C.3     
  11 C11            1.2125     3.1384    -1.2669 C.3     
  12 C12            2.4778     3.9983    -1.2480 C.3     
  13 C13            2.8763     4.3509    -2.6826 C.3     
  14 C14            2.2093     5.2836    -0.4628 C.3     
  15 C15           -3.8747    -0.4639     0.0954 C.ar    
  16 C16           -4.6670    -0.5475     1.2437 C.ar    
  17 C17           -5.8230    -1.2947     1.2276 C.ar    
  18 C18           -6.2028    -1.9670     0.0694 C.ar    
  19 C19           -5.4155    -1.8860    -1.0757 C.ar    
  20 C20           -4.2619    -1.1350    -1.0678 C.ar    
  21 N21           -7.3724    -2.7223     0.0564 N.pl3   
  22 C22           -8.0971    -2.8675    -1.1291 C.ar    
  23 C23           -8.8350    -4.0224    -1.3571 C.ar    
  24 C24           -9.5505    -4.1624    -2.5299 C.ar    
  25 C25           -9.5331    -3.1547    -3.4769 C.ar    
  26 C26           -8.7993    -2.0040    -3.2534 C.ar    
  27 C27           -8.0861    -1.8550    -2.0803 C.ar    
  28 H28           -3.6341     2.2317     0.3993 H       
  29 H29           -1.5876     3.5249     0.4242 H       
  30 H30            0.7216     3.5547     0.7890 H       
  31 H31            1.7156     2.0974     0.5509 H       
  32 H32            1.3756     2.2659    -1.8996 H       
  33 H33            0.3816     3.7232    -1.6615 H       
  34 H34            3.2868     3.4440    -0.7721 H       
  35 H35            2.0673     4.9051    -3.1585 H       
  36 H36            3.7777     4.9635    -2.6691 H       
  37 H37            3.0676     3.4352    -3.2420 H       
  38 H38            1.9254     5.0325     0.5592 H       
  39 H39            3.1107     5.8963    -0.4493 H       
  40 H40            1.4004     5.8379    -0.9387 H       
  41 H41           -4.3725    -0.0266     2.1428 H       
  42 H42           -6.4357    -1.3596     2.1146 H       
  43 H43           -5.7126    -2.4090    -1.9727 H       
  44 H44           -3.6515    -1.0725    -1.9565 H       
  45 H45           -7.6840    -3.1478     0.8706 H       
  46 H46           -8.8487    -4.8099    -0.6182 H       
  47 H47          -10.1241    -5.0600    -2.7080 H       
  48 H48          -10.0936    -3.2668    -4.3932 H       
  49 H49           -8.7873    -1.2193    -3.9954 H       
  50 H50           -7.5132    -0.9561    -1.9064 H       
@<TRIPOS>BOND
   1    1    2 am
   2    1   10 1
   3    1    6 1
   4    2    3 1
   5    2    7 2
   6    3    4 2
   7    3    8 1
   8    4    5 1
   9    4   15 1
  10    5    6 2
  11    5   28 1
  12    6   29 1
  13    8    9 3
  14   10   11 1
  15   10   30 1
  16   10   31 1
  17   11   12 1
  18   11   32 1
  19   11   33 1
  20   12   13 1
  21   12   14 1
  22   12   34 1
  23   13   35 1
  24   13   36 1
  25   13   37 1
  26   14   38 1
  27   14   39 1
  28   14   40 1
  29   15   16 ar
  30   15   20 ar
  31   16   17 ar
  32   16   41 1
  33   17   18 ar
  34   17   42 1
  35   18   19 ar
  36   18   21 1
  37   19   20 ar
  38   19   43 1
  39   20   44 1
  40   21   22 1
  41   21   45 1
  42   22   23 ar
  43   22   27 ar
  44   23   24 ar
  45   23   46 1
  46   24   25 ar
  47   24   47 1
  48   25   26 ar
  49   25   48 1
  50   26   27 ar
  51   26   49 1
  52   27   50 1

#	End of record

