#	Name: ASD01948269
#	Creating user name:	WinNT
#	Creation time:	15. 06. 2019 20:14

#	Modifying user name:	WinNT
#	Modification time:	15. 06. 2019 20:14

#	Program:	/corina/corina34_cracker 3.40 0067  02.08.2006

@<TRIPOS>MOLECULE
ASD01948269
  55   59    0    0    0
SMALL
NO_CHARGES


@<TRIPOS>ATOM
   1 C1            -0.4704     2.1384     0.8926 C.ar    
   2 C2            -0.5618     0.7759     1.1171 C.ar    
   3 C3             0.5816    -0.0014     1.1472 C.ar    
   4 C4             1.8202     0.5796     0.9531 C.ar    
   5 C5             1.9170     1.9460     0.7274 C.ar    
   6 C6             0.7652     2.7264     0.6976 C.ar    
   7 C7             4.1730     0.4539    -0.1835 C.ar    
   8 C8             4.3046     1.7320     0.3560 C.ar    
   9 N9             3.1689     2.5368     0.5307 N.pl3   
  10 C10            5.2832    -0.3459    -0.3595 C.ar    
  11 C11            6.5479     0.1276     0.0051 C.ar    
  12 C12            6.6811     1.4131     0.5483 C.ar    
  13 C13            5.5563     2.2125     0.7222 C.ar    
  14 N14            5.6850     3.5004     1.2653 N.am    
  15 I15           -2.4365    -0.1112     1.4129 I       
  16 F16            5.1491    -1.5843    -0.8826 F       
  17 F17            0.8546     4.0564     0.4780 F       
  18 F18            2.9513    -0.0064    -0.5307 F       
  19 O19            7.9997     1.5844     0.7959 O.3     
  20 C20            8.6432     0.4656     0.4254 C.2     
  21 N21            7.8003    -0.4042    -0.0431 N.2     
  22 S22            7.0459     3.9080     2.1162 S.o2    
  23 O23            6.6651     5.0608     2.8548 O.2     
  24 O24            7.4201     2.7061     2.7755 O.2     
  25 C25            8.2631     4.3413     0.8429 C.3     
  26 C26            9.6175     4.8756     1.3130 C.3     
  27 C27            9.5118     3.4642     0.7318 C.3     
  28 C28            7.6868     4.9180    -0.4518 C.3     
  29 O29            6.4985     4.2063    -0.8029 O.3     
  30 C30            5.9281     4.6069    -2.0503 C.3     
  31 C31            4.6410     3.8569    -2.2782 C.ar    
  32 C32            3.4468     4.3770    -1.8154 C.ar    
  33 C33            2.2662     3.6891    -2.0244 C.ar    
  34 C34            2.2797     2.4812    -2.6965 C.ar    
  35 C35            3.4738     1.9615    -3.1601 C.ar    
  36 C36            4.6539     2.6516    -2.9549 C.ar    
  37 H37           -1.3656     2.7420     0.8653 H       
  38 H38            0.5064    -1.0644     1.3231 H       
  39 H39            2.7122    -0.0287     0.9772 H       
  40 H40            3.2522     3.5031     0.5149 H       
  41 H41            4.9767     4.1516     1.1422 H       
  42 H42            9.7091     0.3112     0.5055 H       
  43 H43           10.0982     5.6378     0.6997 H       
  44 H44            9.7771     4.9668     2.3874 H       
  45 H45            9.6020     2.6269     1.4239 H       
  46 H46            9.9230     3.2979    -0.2638 H       
  47 H47            7.4495     5.9718    -0.3061 H       
  48 H48            8.4201     4.8180    -1.2520 H       
  49 H49            5.7260     5.6778    -2.0301 H       
  50 H50            6.6262     4.3841    -2.8573 H       
  51 H51            3.4362     5.3207    -1.2903 H       
  52 H52            1.3332     4.0951    -1.6622 H       
  53 H53            1.3574     1.9433    -2.8591 H       
  54 H54            3.4845     1.0177    -3.6849 H       
  55 H55            5.5869     2.2456    -3.3171 H       
@<TRIPOS>BOND
   1    1    2 ar
   2    1    6 ar
   3    1   37 1
   4    2    3 ar
   5    2   15 1
   6    3    4 ar
   7    3   38 1
   8    4    5 ar
   9    4   39 1
  10    5    6 ar
  11    5    9 1
  12    6   17 1
  13    7    8 ar
  14    7   10 ar
  15    7   18 1
  16    8    9 1
  17    8   13 ar
  18    9   40 1
  19   10   11 ar
  20   10   16 1
  21   11   12 ar
  22   11   21 1
  23   12   13 ar
  24   12   19 1
  25   13   14 1
  26   14   22 am
  27   14   41 1
  28   19   20 1
  29   20   21 2
  30   20   42 1
  31   22   23 2
  32   22   24 2
  33   22   25 1
  34   25   26 1
  35   25   28 1
  36   25   27 1
  37   26   27 1
  38   26   43 1
  39   26   44 1
  40   27   45 1
  41   27   46 1
  42   28   29 1
  43   28   47 1
  44   28   48 1
  45   29   30 1
  46   30   31 1
  47   30   49 1
  48   30   50 1
  49   31   32 ar
  50   31   36 ar
  51   32   33 ar
  52   32   51 1
  53   33   34 ar
  54   33   52 1
  55   34   35 ar
  56   34   53 1
  57   35   36 ar
  58   35   54 1
  59   36   55 1

#	End of record

