#	Name: ASD01410065
#	Creating user name:	WinNT
#	Creation time:	15. 06. 2019 19:16

#	Modifying user name:	WinNT
#	Modification time:	15. 06. 2019 19:16

#	Program:	/corina/corina34_cracker 3.40 0067  02.08.2006

@<TRIPOS>MOLECULE
ASD01410065
  70   74    0    0    0
SMALL
NO_CHARGES


@<TRIPOS>ATOM
   1 C1            -0.0169     1.3986     0.0097 C.ar    
   2 C2             0.0021    -0.0041     0.0020 C.ar    
   3 C3            -1.1621    -0.7094     0.0098 C.ar    
   4 C4            -2.3912    -0.0347     0.0256 C.ar    
   5 C5            -2.4204     1.3751     0.0335 C.ar    
   6 C6            -1.2305     2.0850     0.0308 C.ar    
   7 C7            -3.7374    -0.4722     0.0366 C.2     
   8 C8            -4.5317     0.6283     0.0504 C.2     
   9 N9            -3.7465     1.7566     0.0487 N.pl3   
  10 C10           -6.0103     0.6156     0.0650 C.ar    
  11 C11           -6.7099     1.4583     0.9300 C.ar    
  12 C12           -8.0893     1.4419     0.9383 C.ar    
  13 C13           -8.7792     0.5924     0.0917 C.ar    
  14 C14           -8.0917    -0.2456    -0.7682 C.ar    
  15 C15           -6.7122    -0.2351    -0.7902 C.ar    
  16 C16           -4.2054    -1.9047     0.0331 C.3     
  17 C17           -3.6903    -2.6064    -1.2251 C.3     
  18 C18           -4.1654    -4.0608    -1.2287 C.3     
  19 C19           -3.6262    -4.7765     0.0115 C.3     
  20 C20           -4.1413    -4.0748     1.2697 C.3     
  21 C21           -3.6662    -2.6204     1.2732 C.3     
  22 C22            1.2513     2.1499     0.0017 C.2     
  23 O23            2.4258     1.4892    -0.0131 O.3     
  24 C24           -4.2368     3.1371     0.0614 C.3     
  25 C25           -4.3904     3.6025     1.4865 C.2     
  26 N26           -4.8314     4.8497     1.7443 N.am    
  27 O27            1.2377     3.3650     0.0083 O.2     
  28 O28           -4.1172     2.8547     2.4014 O.2     
  29 C29           -4.9860     5.3171     3.1290 C.3     
  30 C30           -4.1758     6.6075     3.3040 C.3     
  31 N31           -4.5101     7.5246     2.2054 N.am    
  32 C32           -4.3555     7.0572     0.8207 C.3     
  33 C33           -5.1604     5.7687     0.6456 C.3     
  34 S34           -5.0519     9.0571     2.5221 S.o2    
  35 O35           -5.8245     9.3988     1.3795 O.2     
  36 O36           -5.6492     8.9589     3.8077 O.2     
  37 C37           -3.5447    10.0639     2.5957 C.3     
  38 H38            0.9465    -0.5277    -0.0105 H       
  39 H39           -1.1391    -1.7891     0.0034 H       
  40 H40           -1.2430     3.1649     0.0368 H       
  41 H41           -6.1725     2.1216     1.5916 H       
  42 H42           -8.6319     2.0932     1.6074 H       
  43 H43           -9.8591     0.5831     0.1024 H       
  44 H44           -8.6361    -0.9063    -1.4265 H       
  45 H45           -6.1767    -0.8894    -1.4621 H       
  46 H46           -5.2951    -1.9310     0.0434 H       
  47 H47           -4.0744    -2.0965    -2.1086 H       
  48 H48           -2.6006    -2.5801    -1.2354 H       
  49 H49           -5.2550    -4.0871    -1.2183 H       
  50 H50           -3.7984    -4.5607    -2.1250 H       
  51 H51           -3.9646    -5.8126     0.0089 H       
  52 H52           -2.5365    -4.7502     0.0011 H       
  53 H53           -5.2309    -4.1011     1.2800 H       
  54 H54           -3.7572    -4.5846     2.1531 H       
  55 H55           -2.5766    -2.5941     1.2629 H       
  56 H56           -4.0332    -2.1205     2.1696 H       
  57 H57            3.2308     2.0250    -0.0179 H       
  58 H58           -3.5251     3.7802    -0.4561 H       
  59 H59           -5.2023     3.1844    -0.4423 H       
  60 H60           -6.0383     5.5154     3.3328 H       
  61 H61           -4.6149     4.5562     3.8155 H       
  62 H62           -4.4282     7.0714     4.2575 H       
  63 H63           -3.1107     6.3772     3.2770 H       
  64 H64           -4.7265     7.8182     0.1341 H       
  65 H65           -3.3032     6.8589     0.6169 H       
  66 H66           -4.9070     5.3059    -0.3082 H       
  67 H67           -6.2260     5.9965     0.6729 H       
  68 H68           -3.0223    10.0062     1.6409 H       
  69 H69           -3.8101    11.1006     2.8027 H       
  70 H70           -2.8962     9.6897     3.3879 H       
@<TRIPOS>BOND
   1    1    2 ar
   2    1   22 1
   3    1    6 ar
   4    2    3 ar
   5    2   38 1
   6    3    4 ar
   7    3   39 1
   8    4    5 ar
   9    4    7 1
  10    5    6 ar
  11    5    9 1
  12    6   40 1
  13    7    8 2
  14    7   16 1
  15    8    9 1
  16    8   10 1
  17    9   24 1
  18   10   11 ar
  19   10   15 ar
  20   11   12 ar
  21   11   41 1
  22   12   13 ar
  23   12   42 1
  24   13   14 ar
  25   13   43 1
  26   14   15 ar
  27   14   44 1
  28   15   45 1
  29   16   17 1
  30   16   21 1
  31   16   46 1
  32   17   18 1
  33   17   47 1
  34   17   48 1
  35   18   19 1
  36   18   49 1
  37   18   50 1
  38   19   20 1
  39   19   51 1
  40   19   52 1
  41   20   21 1
  42   20   53 1
  43   20   54 1
  44   21   55 1
  45   21   56 1
  46   22   23 1
  47   22   27 2
  48   23   57 1
  49   24   25 1
  50   24   58 1
  51   24   59 1
  52   25   26 am
  53   25   28 2
  54   26   29 1
  55   26   33 1
  56   29   30 1
  57   29   60 1
  58   29   61 1
  59   30   31 1
  60   30   62 1
  61   30   63 1
  62   31   32 1
  63   31   34 am
  64   32   33 1
  65   32   64 1
  66   32   65 1
  67   33   66 1
  68   33   67 1
  69   34   35 2
  70   34   36 2
  71   34   37 1
  72   37   68 1
  73   37   69 1
  74   37   70 1

#	End of record

