#	Name: ASD08070304
#	Creating user name:	WinNT
#	Creation time:	15. 06. 2019 21:14

#	Modifying user name:	WinNT
#	Modification time:	15. 06. 2019 21:14

#	Program:	/corina/corina34_cracker 3.40 0067  02.08.2006

@<TRIPOS>MOLECULE
ASD08070304
  36   38    0    0    0
SMALL
NO_CHARGES


@<TRIPOS>ATOM
   1 C1            -0.0369     1.3990    -0.2568 C.2     
   2 C2            -0.0058    -0.0097    -0.1042 C.2     
   3 N3             2.3372     0.0513    -0.4347 N.2     
   4 C4             2.2916     1.3467    -0.5731 C.2     
   5 N5             1.1293     2.0418    -0.4894 N.am    
   6 N6            -0.9447    -0.9556     0.1308 N.2     
   7 C7            -0.3744    -2.1248     0.1822 C.2     
   8 N8             0.9673    -1.9930    -0.0179 N.pl3   
   9 C9             1.2268    -0.6626    -0.2018 C.2     
  10 C10            1.9516    -3.0779    -0.0335 C.3     
  11 O11            1.4147    -4.2533     0.6114 O.3     
  12 C12            0.5381    -4.8563    -0.3653 C.3     
  13 C13            1.2891    -4.7180    -1.7082 C.3     
  14 C14            2.2404    -3.5211    -1.4849 C.3     
  15 O15            2.0344    -5.9043    -1.9895 O.3     
  16 O16            1.9401    -2.4654    -2.4000 O.3     
  17 C17            0.3065    -6.3319    -0.0340 C.3     
  18 O18           -0.4258    -6.4364     1.1886 O.3     
  19 P19           -0.8473    -7.8469     1.8405 P.3     
  20 O20            0.3577    -8.6871     2.0200 O.2     
  21 O21           -1.5412    -7.5911     3.2706 O.3     
  22 O22           -1.8859    -8.5990     0.8669 O.3     
  23 O23           -1.0872     2.0135    -0.1851 O.2     
  24 H24           -2.7010    -8.1049     0.7043 H       
  25 H25            3.2094     1.8846    -0.7594 H       
  26 H26            1.1351     3.0057    -0.5976 H       
  27 H27           -0.8874    -3.0589     0.3574 H       
  28 H28            2.8715    -2.7618     0.4586 H       
  29 H29           -0.4110    -4.3218    -0.4045 H       
  30 H30            0.5898    -4.5044    -2.5166 H       
  31 H31            3.2792    -3.8343    -1.5891 H       
  32 H32            2.5257    -5.8721    -2.8218 H       
  33 H33            2.0463    -2.7088    -3.3298 H       
  34 H34           -0.2606    -6.8002    -0.8385 H       
  35 H35            1.2674    -6.8352     0.0738 H       
  36 H36           -1.8214    -8.3991     3.7219 H       
@<TRIPOS>BOND
   1    1    2 1
   2    1    5 am
   3    1   23 2
   4    2    6 1
   5    2    9 2
   6    3    4 2
   7    3    9 1
   8    4    5 1
   9    4   25 1
  10    5   26 1
  11    6    7 2
  12    7    8 1
  13    7   27 1
  14    8    9 1
  15    8   10 1
  16   10   11 1
  17   10   14 1
  18   10   28 1
  19   11   12 1
  20   12   13 1
  21   12   17 1
  22   12   29 1
  23   13   14 1
  24   13   15 1
  25   13   30 1
  26   14   16 1
  27   14   31 1
  28   15   32 1
  29   16   33 1
  30   17   18 1
  31   17   34 1
  32   17   35 1
  33   18   19 1
  34   19   20 2
  35   19   21 1
  36   19   22 1
  37   21   36 1
  38   22   24 1

#	End of record

