#	Name: ASD06660165
#	Creating user name:	WinNT
#	Creation time:	15. 06. 2019 21:08

#	Modifying user name:	WinNT
#	Modification time:	15. 06. 2019 21:08

#	Program:	/corina/corina34_cracker 3.40 0067  02.08.2006

@<TRIPOS>MOLECULE
ASD06660165
  45   46    0    0    0
SMALL
NO_CHARGES


@<TRIPOS>ATOM
   1 C1            -0.0161     1.3435     0.0105 C.2     
   2 N2             0.0021    -0.0041     0.0020 N.am    
   3 O3             1.0277     1.9653    -0.0002 O.2     
   4 O4            -1.1910     2.0009     0.0251 O.3     
   5 C5             1.2746    -0.7187    -0.1257 C.3     
   6 N6             4.0295    -1.3168     2.2226 N.am    
   7 C7             3.1375    -1.8353     1.1788 C.3     
   8 C8             1.8576    -0.9746     1.2655 C.3     
   9 C9             2.3989     0.3334     1.8878 C.3     
  10 C10            3.6414    -0.0978     2.6353 C.2     
  11 O11            4.2052     0.5604     3.4837 O.2     
  12 C12           -1.1900    -0.7180     0.1148 C.ar    
  13 C13           -1.9489    -0.9753    -1.0214 C.ar    
  14 C14           -3.1299    -1.6849    -0.8954 C.ar    
  15 C15           -3.5129    -2.1145     0.3682 C.ar    
  16 C16           -2.7103    -1.8234     1.4532 C.ar    
  17 N17           -1.5862    -1.1492     1.3017 N.ar    
  18 C18           -3.9816    -1.9842    -2.1020 C.3     
  19 C19           -1.1346     3.4517     0.0335 C.3     
  20 C20           -0.4054     3.9410    -1.2194 C.3     
  21 C21           -2.5561     4.0173     0.0498 C.3     
  22 C22           -0.3828     3.9257     1.2789 C.3     
  23 H23            1.1078    -1.6703    -0.6304 H       
  24 H24            1.9727    -0.1165    -0.7071 H       
  25 H25            4.7980    -1.7942     2.5726 H       
  26 H26            3.6004    -1.7252     0.1982 H       
  27 H27            2.9017    -2.8822     1.3700 H       
  28 H28            1.1178    -1.4401     1.9168 H       
  29 H29            2.6528     1.0507     1.1074 H       
  30 H30            1.6685     0.7594     2.5757 H       
  31 H31           -1.6212    -0.6257    -1.9893 H       
  32 H32           -4.4292    -2.6704     0.5009 H       
  33 H33           -3.0042    -2.1552     2.4380 H       
  34 H34           -3.6742    -2.9353    -2.5368 H       
  35 H35           -5.0280    -2.0429    -1.8026 H       
  36 H36           -3.8586    -1.1910    -2.8394 H       
  37 H37           -0.9410     3.6034    -2.1067 H       
  38 H38           -0.3631     5.0302    -1.2131 H       
  39 H39            0.6073     3.5381    -1.2310 H       
  40 H40           -3.0756     3.6687     0.9424 H       
  41 H41           -2.5138     5.1065     0.0561 H       
  42 H42           -3.0917     3.6797    -0.8374 H       
  43 H43            0.6299     3.5228     1.2673 H       
  44 H44           -0.3405     5.0149     1.2852 H       
  45 H45           -0.9023     3.5771     2.1715 H       
@<TRIPOS>BOND
   1    1    2 am
   2    1    3 2
   3    1    4 1
   4    2    5 1
   5    2   12 1
   6    4   19 1
   7    5    8 1
   8    5   23 1
   9    5   24 1
  10    6    7 1
  11    6   10 am
  12    6   25 1
  13    7    8 1
  14    7   26 1
  15    7   27 1
  16    8    9 1
  17    8   28 1
  18    9   10 1
  19    9   29 1
  20    9   30 1
  21   10   11 2
  22   12   13 ar
  23   12   17 ar
  24   13   14 ar
  25   13   31 1
  26   14   15 ar
  27   14   18 1
  28   15   16 ar
  29   15   32 1
  30   16   17 ar
  31   16   33 1
  32   18   34 1
  33   18   35 1
  34   18   36 1
  35   19   20 1
  36   19   22 1
  37   19   21 1
  38   20   37 1
  39   20   38 1
  40   20   39 1
  41   21   40 1
  42   21   41 1
  43   21   42 1
  44   22   43 1
  45   22   44 1
  46   22   45 1

#	End of record

