#	Name: ASD08178043
#	Creating user name:	WinNT
#	Creation time:	15. 06. 2019 21:18

#	Modifying user name:	WinNT
#	Modification time:	15. 06. 2019 21:18

#	Program:	/corina/corina34_cracker 3.40 0067  02.08.2006

@<TRIPOS>MOLECULE
ASD08178043
  55   58    0    0    0
SMALL
NO_CHARGES


@<TRIPOS>ATOM
   1 N1            -0.0155     1.2947     0.0092 N.2     
   2 C2             0.0021    -0.0041     0.0020 C.2     
   3 N3            -1.1168    -0.8300     0.0076 N.am    
   4 N4             1.0945     1.8960     0.0018 N.2     
   5 C5             2.1557     1.1534    -0.0123 C.2     
   6 S6             1.6320    -0.5310    -0.0164 S.3     
   7 C7             3.5816     1.6410    -0.0241 C.3     
   8 C8             4.0787     1.7984     1.4143 C.3     
   9 C9             6.1989     2.5079     3.1644 C.3     
  10 C10            7.6391     2.9988     3.3250 C.3     
  11 C11            7.9746     3.1008     4.7906 C.2     
  12 N12            8.4834     2.1629     5.5249 N.2     
  13 N13            8.6933     2.4459     6.7372 N.2     
  14 C14            8.3839     3.6414     7.1397 C.2     
  15 S15            7.7520     4.5212     5.8126 S.3     
  16 N16            8.5433     4.1281     8.4328 N.am    
  17 C17            9.0592     3.3348     9.3925 C.2     
  18 O18            9.3844     2.1966     9.1285 O.2     
  19 C19            9.2319     3.8621    10.7936 C.3     
  20 C20           -2.3521    -0.2911     0.0220 C.2     
  21 O21           -2.4879     0.9140     0.0301 O.2     
  22 C22           -3.5646    -1.1861     0.0280 C.3     
  23 S23            5.7950     2.3852     1.4002 S.3     
  24 C24           -3.6104    -1.9975     1.3373 C.3     
  25 C25           -4.9674    -1.6123     1.9751 C.3     
  26 C26           -5.7610    -1.0815     0.7542 C.3     
  27 O27           -4.7602    -0.3897    -0.0232 O.3     
  28 O28            9.7164     2.8200    11.6487 O.3     
  29 C29           11.0061     3.1749    12.1723 C.3     
  30 C30           11.0521     4.7228    12.1200 C.3     
  31 C31           10.2793     4.9963    10.8009 C.3     
  32 H32           -1.0082    -1.7939     0.0010 H       
  33 H33            4.2081     0.9191    -0.5480 H       
  34 H34            3.6324     2.6033    -0.5334 H       
  35 H35            3.4522     2.5202     1.9383 H       
  36 H36            4.0279     0.8360     1.9237 H       
  37 H37            6.0951     1.5278     3.6299 H       
  38 H38            5.5194     3.2120     3.6446 H       
  39 H39            8.3186     2.2947     2.8448 H       
  40 H40            7.7429     3.9790     2.8595 H       
  41 H41            8.2832     5.0384     8.6439 H       
  42 H42            8.2787     4.2348    11.1685 H       
  43 H43           -3.5301    -1.8624    -0.8262 H       
  44 H44           -3.5783    -3.0662     1.1251 H       
  45 H45           -2.7867    -1.7126     1.9917 H       
  46 H46           -5.4562    -2.4857     2.4068 H       
  47 H47           -4.8374    -0.8311     2.7240 H       
  48 H48           -6.1865    -1.9075     0.1843 H       
  49 H49           -6.5423    -0.3922     1.0744 H       
  50 H50           11.1054     2.8279    13.2008 H       
  51 H51           11.7959     2.7517    11.5515 H       
  52 H52           10.5368     5.1602    12.9751 H       
  53 H53           12.0787     5.0833    12.0558 H       
  54 H54           10.9424     4.9175     9.9394 H       
  55 H55            9.7943     5.9720    10.8307 H       
@<TRIPOS>BOND
   1    1    2 2
   2    1    4 1
   3    2    3 1
   4    2    6 1
   5    3   20 am
   6    3   32 1
   7    4    5 2
   8    5    6 1
   9    5    7 1
  10    7    8 1
  11    7   33 1
  12    7   34 1
  13    8   23 1
  14    8   35 1
  15    8   36 1
  16    9   10 1
  17    9   23 1
  18    9   37 1
  19    9   38 1
  20   10   11 1
  21   10   39 1
  22   10   40 1
  23   11   12 2
  24   11   15 1
  25   12   13 1
  26   13   14 2
  27   14   15 1
  28   14   16 1
  29   16   17 am
  30   16   41 1
  31   17   18 2
  32   17   19 1
  33   19   28 1
  34   19   31 1
  35   19   42 1
  36   20   21 2
  37   20   22 1
  38   22   24 1
  39   22   27 1
  40   22   43 1
  41   24   25 1
  42   24   44 1
  43   24   45 1
  44   25   26 1
  45   25   46 1
  46   25   47 1
  47   26   27 1
  48   26   48 1
  49   26   49 1
  50   28   29 1
  51   29   30 1
  52   29   50 1
  53   29   51 1
  54   30   31 1
  55   30   52 1
  56   30   53 1
  57   31   54 1
  58   31   55 1

#	End of record

