#	Name: ASD01917359
#	Creating user name:	WinNT
#	Creation time:	15. 06. 2019 20:09

#	Modifying user name:	WinNT
#	Modification time:	15. 06. 2019 20:09

#	Program:	/corina/corina34_cracker 3.40 0067  02.08.2006

@<TRIPOS>MOLECULE
ASD01917359
  51   54    0    0    0
SMALL
NO_CHARGES


@<TRIPOS>ATOM
   1 C1            -0.0186     1.5351     0.0103 C.3     
   2 C2            -0.0014    -0.0035     0.0087 C.3     
   3 C3             1.0306    -0.4916     1.0272 C.3     
   4 C4             0.7302     0.0904     2.4098 C.3     
   5 C5             0.6815     1.6250     2.3081 C.3     
   6 C6             1.8996     2.0720     1.4673 C.3     
   7 C7             1.4513     2.0145    -0.0042 C.3     
   8 C8            -0.5327     1.9734     1.4071 C.3     
   9 C9            -0.8261     2.1050    -1.1273 C.2     
  10 O10           -0.2998     2.8395    -1.9362 O.2     
  11 N11           -2.1332     1.7984    -1.2458 N.am    
  12 C12           -2.9056     2.4088    -2.2328 C.ar    
  13 C13           -4.2271     2.0159    -2.4274 C.ar    
  14 N14           -2.3853     3.3689    -2.9852 N.ar    
  15 N15           -4.9551     2.5965    -3.3624 N.ar    
  16 C16           -4.4308     3.5501    -4.1138 C.ar    
  17 C17           -3.1208     3.9459    -3.9200 C.ar    
  18 C18           -2.5303     5.0374    -4.7750 C.3     
  19 C19            1.6266     2.0711     4.5092 C.2     
  20 C20            1.5782     2.7257     5.8340 C.ar    
  21 C21            2.6051     2.5181     6.7563 C.ar    
  22 C22            2.5536     3.1323     7.9916 C.ar    
  23 C23            1.4858     3.9524     8.3159 C.ar    
  24 C24            0.4655     4.1616     7.4057 C.ar    
  25 C25            0.5084     3.5584     6.1655 C.ar    
  26 O26            2.5621     1.3504     4.2213 O.2     
  27 N27            0.6335     2.2736     3.6208 N.am    
  28 Cl28           3.8294     2.8759     9.1406 Cl      
  29 H29           -0.9878    -0.3795     0.2802 H       
  30 H30            0.2673    -0.3642    -0.9842 H       
  31 H31            0.9991    -1.5799     1.0794 H       
  32 H32            2.0254    -0.1770     0.7118 H       
  33 H33           -0.2319    -0.2825     2.7613 H       
  34 H34            1.5140    -0.2042     3.1077 H       
  35 H35            2.1846     3.0901     1.7326 H       
  36 H36            2.7369     1.3935     1.6306 H       
  37 H37            2.0703     1.3080    -0.5571 H       
  38 H38            1.5180     3.0046    -0.4551 H       
  39 H39           -0.7414     3.0430     1.4289 H       
  40 H40           -1.4125     1.3992     1.6977 H       
  41 H41           -2.5364     1.1530    -0.6444 H       
  42 H42           -4.6555     1.2370    -1.8141 H       
  43 H43           -5.0290     4.0234    -4.8784 H       
  44 H44           -2.0742     4.5975    -5.6619 H       
  45 H45           -3.3172     5.7289    -5.0761 H       
  46 H46           -1.7723     5.5751    -4.2054 H       
  47 H47            3.4378     1.8781     6.5043 H       
  48 H48            1.4493     4.4303     9.2837 H       
  49 H49           -0.3647     4.8020     7.6649 H       
  50 H50           -0.2869     3.7264     5.4543 H       
  51 H51           -0.1130     2.8488     3.8506 H       
@<TRIPOS>BOND
   1    1    2 1
   2    1    7 1
   3    1    8 1
   4    1    9 1
   5    2    3 1
   6    2   29 1
   7    2   30 1
   8    3    4 1
   9    3   31 1
  10    3   32 1
  11    4    5 1
  12    4   33 1
  13    4   34 1
  14    5    6 1
  15    5    8 1
  16    5   27 1
  17    6    7 1
  18    6   35 1
  19    6   36 1
  20    7   37 1
  21    7   38 1
  22    8   39 1
  23    8   40 1
  24    9   10 2
  25    9   11 am
  26   11   12 1
  27   11   41 1
  28   12   13 ar
  29   12   14 ar
  30   13   15 ar
  31   13   42 1
  32   14   17 ar
  33   15   16 ar
  34   16   17 ar
  35   16   43 1
  36   17   18 1
  37   18   44 1
  38   18   45 1
  39   18   46 1
  40   19   20 1
  41   19   26 2
  42   19   27 am
  43   20   21 ar
  44   20   25 ar
  45   21   22 ar
  46   21   47 1
  47   22   23 ar
  48   22   28 1
  49   23   24 ar
  50   23   48 1
  51   24   25 ar
  52   24   49 1
  53   25   50 1
  54   27   51 1

#	End of record

