#	Name: ASD03082426
#	Creating user name:	WinNT
#	Creation time:	15. 06. 2019 20:27

#	Modifying user name:	WinNT
#	Modification time:	15. 06. 2019 20:27

#	Program:	/corina/corina34_cracker 3.40 0067  02.08.2006

@<TRIPOS>MOLECULE
ASD03082426
  45   48    0    0    0
SMALL
NO_CHARGES


@<TRIPOS>ATOM
   1 C1             1.0994     3.4392    -0.4838 C.ar    
   2 C2             0.0441     4.0516    -1.1472 C.ar    
   3 C3            -0.0055     5.4290    -1.2459 C.ar    
   4 C4             0.9965     6.2030    -0.6835 C.ar    
   5 C5             2.0560     5.5920    -0.0172 C.ar    
   6 N6             1.1490     2.0442    -0.3853 N.pl3   
   7 C7             2.3836     1.3929    -0.2959 C.2     
   8 C8             2.5760     0.0172    -0.0809 C.2     
   9 N9             3.5624     1.9597    -0.4039 N.2     
  10 N10            4.5404     0.9678    -0.2557 N.pl3   
  11 C11            3.9070    -0.2179    -0.0582 C.2     
  12 C12            5.9239     1.1628    -0.3060 C.ar    
  13 C13            6.7461     0.2753    -0.9972 C.ar    
  14 C14            6.5157     2.2532     0.3292 C.ar    
  15 C15            7.8844     2.4101     0.2560 C.ar    
  16 N16            8.6301     1.5443    -0.4041 N.ar    
  17 C17            8.1069     0.5030    -1.0229 C.ar    
  18 C18            8.5361     3.5852     0.9382 C.3     
  19 H19            8.7524    -0.1825    -1.5519 H       
  20 C20            2.1082     4.2112     0.0766 C.ar    
  21 O21            1.1779     7.5565    -0.6419 O.3     
  22 C22            2.1395     7.7832     0.4055 C.3     
  23 O23            2.9005     6.5615     0.4414 O.3     
  24 F24            2.9649     8.8674     0.0888 F       
  25 F25            1.4937     7.9961     1.6281 F       
  26 C26            4.5695    -1.5554     0.1493 C.3     
  27 C27            4.6199    -2.2997    -1.1601 C.2     
  28 O28            5.1706    -3.5225    -1.2163 O.3     
  29 C29            5.1846    -4.1803    -2.5106 C.3     
  30 O30            4.1645    -1.7957    -2.1593 O.2     
  31 H31           -0.7384     3.4507    -1.5866 H       
  32 H32           -0.8268     5.9031    -1.7629 H       
  33 H33            0.3272     1.5290    -0.3790 H       
  34 H34            1.7980    -0.7213     0.0444 H       
  35 H35            6.3243    -0.5792    -1.5054 H       
  36 H36            5.9111     2.9656     0.8709 H       
  37 H37            8.8029     3.3108     1.9588 H       
  38 H38            9.4352     3.8699     0.3916 H       
  39 H39            7.8415     4.4251     0.9576 H       
  40 H40            2.9287     3.7354     0.5933 H       
  41 H41            5.5831    -1.4050     0.5210 H       
  42 H42            3.9987    -2.1349     0.8749 H       
  43 H43            4.1617    -4.3032    -2.8668 H       
  44 H44            5.7461    -3.5733    -3.2207 H       
  45 H45            5.6563    -5.1584    -2.4160 H       
@<TRIPOS>BOND
   1    1    2 ar
   2    1    6 1
   3    1   20 ar
   4    2    3 ar
   5    2   31 1
   6    3    4 ar
   7    3   32 1
   8    4    5 ar
   9    4   21 1
  10    5   20 ar
  11    5   23 1
  12    6    7 1
  13    6   33 1
  14    7    8 1
  15    7    9 2
  16    8   11 2
  17    8   34 1
  18    9   10 1
  19   10   11 1
  20   10   12 1
  21   11   26 1
  22   12   13 ar
  23   12   14 ar
  24   13   17 ar
  25   13   35 1
  26   14   15 ar
  27   14   36 1
  28   15   16 ar
  29   15   18 1
  30   16   17 ar
  31   17   19 1
  32   18   37 1
  33   18   38 1
  34   18   39 1
  35   20   40 1
  36   21   22 1
  37   22   23 1
  38   22   24 1
  39   22   25 1
  40   26   27 1
  41   26   41 1
  42   26   42 1
  43   27   28 1
  44   27   30 2
  45   28   29 1
  46   29   43 1
  47   29   44 1
  48   29   45 1

#	End of record

