#	Name: ASD03330665
#	Creating user name:	WinNT
#	Creation time:	15. 06. 2019 20:37

#	Modifying user name:	WinNT
#	Modification time:	15. 06. 2019 20:37

#	Program:	/corina/corina34_cracker 3.40 0067  02.08.2006

@<TRIPOS>MOLECULE
ASD03330665
  63   64    0    0    0
SMALL
NO_CHARGES


@<TRIPOS>ATOM
   1 C1            -0.2706     2.2881    -0.9260 C.2     
   2 N2            -0.5505     1.0573    -1.4304 N.pl3   
   3 C3             1.0859     2.3923    -0.8526 C.2     
   4 N4             1.6145     1.2430    -1.3243 N.2     
   5 C5             0.6399     0.4363    -1.6795 C.2     
   6 C6             0.8039    -0.9111    -2.2509 C.2     
   7 C7             1.8415     3.5531    -0.3490 C.2     
   8 O8             1.2492     4.5371     0.0511 O.2     
   9 C9             3.9399     4.6780     0.1690 C.3     
  10 N10            3.1888     3.5241    -0.3317 N.am    
  11 C11            4.0645     4.5840     1.6910 C.3     
  12 C12            4.8166     3.3046     2.0631 C.3     
  13 C13            4.8331     5.7984     2.2158 C.3     
  14 C14            2.6683     4.5549     2.3162 C.3     
  15 C15            5.3148     4.6885    -0.4478 C.2     
  16 N16            6.0450     5.8213    -0.4474 N.am    
  17 O17            5.7642     3.6776    -0.9447 O.2     
  18 C18            7.3356     5.8612    -1.1394 C.3     
  19 C19           -1.8937     0.5121    -1.6450 C.3     
  20 C20           -2.7549     1.5624    -2.3536 C.3     
  21 C21           -3.4127     2.4719    -1.3209 C.3     
  22 N22           -2.5404     2.6698    -0.1615 N.3     
  23 C23           -1.2856     3.3341    -0.5440 C.3     
  24 C24           -3.2320     3.4195     0.8957 C.3     
  25 C25            1.4292    -1.0685    -3.4124 C.2     
  26 C26            0.2625    -2.1114    -1.5179 C.3     
  27 C27            1.8571     0.1381    -4.2074 C.3     
  28 C28            1.7106    -2.4537    -3.9350 C.3     
  29 H29            3.4155     5.5959    -0.0966 H       
  30 H30            3.6612     2.7393    -0.6507 H       
  31 H31            5.8112     3.3253     1.6177 H       
  32 H32            4.9054     3.2376     3.1474 H       
  33 H33            4.2690     2.4395     1.6893 H       
  34 H34            4.2388     6.6990     2.0615 H       
  35 H35            5.0304     5.6713     3.2802 H       
  36 H36            5.7776     5.8900     1.6796 H       
  37 H37            2.1208     3.6898     1.9424 H       
  38 H38            2.7571     4.4880     3.4005 H       
  39 H39            2.1325     5.4664     2.0512 H       
  40 H40            5.7160     6.6102     0.0112 H       
  41 H41            8.0036     5.1171    -0.7055 H       
  42 H42            7.1876     5.6438    -2.1971 H       
  43 H43            7.7759     6.8523    -1.0303 H       
  44 H44           -1.8290    -0.3833    -2.2632 H       
  45 H45           -2.3428     0.2609    -0.6841 H       
  46 H46           -2.1272     2.1595    -3.0151 H       
  47 H47           -3.5260     1.0630    -2.9403 H       
  48 H48           -3.6241     3.4384    -1.7784 H       
  49 H49           -4.3486     2.0208    -0.9914 H       
  50 H50           -0.9100     3.9161     0.2976 H       
  51 H51           -1.4664     3.9937    -1.3928 H       
  52 H52           -4.1162     2.8672     1.2138 H       
  53 H53           -2.5616     3.5524     1.7448 H       
  54 H54           -3.5312     4.3952     0.5129 H       
  55 H55           -0.1648    -1.7940    -0.5667 H       
  56 H56           -0.5095    -2.5882    -2.1219 H       
  57 H57            1.0701    -2.8202    -1.3349 H       
  58 H58            2.8862     0.3935    -3.9547 H       
  59 H59            1.7891    -0.0855    -5.2721 H       
  60 H60            1.2054     0.9791    -3.9705 H       
  61 H61            1.4110    -3.1909    -3.1901 H       
  62 H62            1.1479    -2.6166    -4.8542 H       
  63 H63            2.7766    -2.5556    -4.1387 H       
@<TRIPOS>BOND
   1    1    2 1
   2    1    3 2
   3    1   23 1
   4    2   19 1
   5    2    5 1
   6    3    4 1
   7    3    7 1
   8    4    5 2
   9    5    6 1
  10    6   25 2
  11    6   26 1
  12    7    8 2
  13    7   10 am
  14    9   10 1
  15    9   11 1
  16    9   15 1
  17    9   29 1
  18   10   30 1
  19   11   12 1
  20   11   13 1
  21   11   14 1
  22   12   31 1
  23   12   32 1
  24   12   33 1
  25   13   34 1
  26   13   35 1
  27   13   36 1
  28   14   37 1
  29   14   38 1
  30   14   39 1
  31   15   16 am
  32   15   17 2
  33   16   18 1
  34   16   40 1
  35   18   41 1
  36   18   42 1
  37   18   43 1
  38   19   20 1
  39   19   44 1
  40   19   45 1
  41   20   21 1
  42   20   46 1
  43   20   47 1
  44   21   22 1
  45   21   48 1
  46   21   49 1
  47   22   23 1
  48   22   24 1
  49   23   50 1
  50   23   51 1
  51   24   52 1
  52   24   53 1
  53   24   54 1
  54   25   27 1
  55   25   28 1
  56   26   55 1
  57   26   56 1
  58   26   57 1
  59   27   58 1
  60   27   59 1
  61   27   60 1
  62   28   61 1
  63   28   62 1
  64   28   63 1

#	End of record

