#	Name: ASD00170390
#	Creating user name:	WinNT
#	Creation time:	15. 06. 2019 18:32

#	Modifying user name:	WinNT
#	Modification time:	15. 06. 2019 18:32

#	Program:	/corina/corina34_cracker 3.40 0067  02.08.2006

@<TRIPOS>MOLECULE
ASD00170390
  27   29    0    0    0
SMALL
NO_CHARGES


@<TRIPOS>ATOM
   1 C1            -0.0084     1.3310     0.2797 C.2     
   2 C2             0.0196    -0.0129     0.3576 C.2     
   3 S3            -1.6261    -0.6179     0.5413 S.3     
   4 C4            -2.2385     1.0305     0.4976 C.2     
   5 N5            -1.2526     1.8519     0.3646 N.2     
   6 N6            -3.5725     1.3912     0.5956 N.pl3   
   7 C7             1.3883     1.8446     0.1242 C.ar    
   8 C8             2.2780     0.7782     0.1085 C.ar    
   9 C9             1.4565    -0.4765     0.2569 C.3     
  10 C10            1.8716     3.1482     0.0026 C.ar    
  11 C11            3.2275     3.3683    -0.1321 C.ar    
  12 C12            4.1098     2.3039    -0.1477 C.ar    
  13 C13            3.6358     1.0036    -0.0267 C.ar    
  14 O14            4.5030    -0.0430    -0.0420 O.3     
  15 C15            4.7171    -0.6398    -1.2255 C.2     
  16 O16            4.0862    -0.2978    -2.1976 O.2     
  17 C17            5.7444    -1.7363    -1.3415 C.3     
  18 H18           -4.2535     0.7079     0.6975 H       
  19 H19           -3.8257     2.3270     0.5623 H       
  20 H20            1.7444    -1.0104     1.1626 H       
  21 H21            1.5855    -1.1168    -0.6157 H       
  22 H22            1.1862     3.9828     0.0136 H       
  23 H23            3.6012     4.3772    -0.2261 H       
  24 H24            5.1694     2.4836    -0.2541 H       
  25 H25            6.2072    -1.9049    -0.3691 H       
  26 H26            5.2605    -2.6535    -1.6774 H       
  27 H27            6.5084    -1.4438    -2.0617 H       
@<TRIPOS>BOND
   1    1    2 2
   2    1    7 1
   3    1    5 1
   4    2    3 1
   5    2    9 1
   6    3    4 1
   7    4    5 2
   8    4    6 1
   9    6   18 1
  10    6   19 1
  11    7    8 ar
  12    7   10 ar
  13    8    9 1
  14    8   13 ar
  15    9   20 1
  16    9   21 1
  17   10   11 ar
  18   10   22 1
  19   11   12 ar
  20   11   23 1
  21   12   13 ar
  22   12   24 1
  23   13   14 1
  24   14   15 1
  25   15   16 2
  26   15   17 1
  27   17   25 1
  28   17   26 1
  29   17   27 1

#	End of record

