#	Name: ASD01900865
#	Creating user name:	WinNT
#	Creation time:	15. 06. 2019 19:52

#	Modifying user name:	WinNT
#	Modification time:	15. 06. 2019 19:52

#	Program:	/corina/corina34_cracker 3.40 0067  02.08.2006

@<TRIPOS>MOLECULE
ASD01900865
  29   31    0    0    0
SMALL
NO_CHARGES


@<TRIPOS>ATOM
   1 C1            -0.0596     1.3164    -0.3317 C.ar    
   2 C2            -0.0214    -0.0603    -0.1526 C.ar    
   3 N3             1.1181    -0.7119    -0.1020 N.ar    
   4 C4             2.2843    -0.0816    -0.2206 C.ar    
   5 C5             2.3212     1.3138    -0.4049 C.ar    
   6 C6             1.1209     2.0213    -0.4605 C.ar    
   7 C7             3.6799    -0.5261    -0.2050 C.2     
   8 N8             4.4352     0.5278    -0.3666 N.2     
   9 N9             3.6406     1.6719    -0.4924 N.pl3   
  10 N10            4.1242    -1.8424    -0.0458 N.pl3   
  11 C11            5.4846    -2.1401    -0.1656 C.ar    
  12 C12            6.0269    -3.2332     0.4976 C.ar    
  13 N13            7.3092    -3.5204     0.3890 N.ar    
  14 C14            8.1257    -2.7909    -0.3461 C.ar    
  15 C15            7.6593    -1.6809    -1.0398 C.ar    
  16 C16            6.3136    -1.3479    -0.9562 C.ar    
  17 O17            8.5079    -0.9342    -1.7948 O.3     
  18 Cl18           9.8041    -3.2223    -0.4478 Cl      
  19 C19            7.9502     0.1909    -2.4769 C.3     
  20 H20           -1.0075     1.8322    -0.3745 H       
  21 H21           -0.9478    -0.6064    -0.0524 H       
  22 H22            1.1146     3.0921    -0.6013 H       
  23 H23            3.9709     2.5747    -0.6216 H       
  24 H24            3.4883    -2.5489     0.1477 H       
  25 H25            5.3908    -3.8552     1.1099 H       
  26 H26            5.9214    -0.4913    -1.4843 H       
  27 H27            7.1714    -0.1479    -3.1600 H       
  28 H28            7.5212     0.8804    -1.7499 H       
  29 H29            8.7328     0.6982    -3.0410 H       
@<TRIPOS>BOND
   1    1    2 ar
   2    1    6 ar
   3    1   20 1
   4    2    3 ar
   5    2   21 1
   6    3    4 ar
   7    4    5 ar
   8    4    7 1
   9    5    6 ar
  10    5    9 1
  11    6   22 1
  12    7    8 2
  13    7   10 1
  14    8    9 1
  15    9   23 1
  16   10   11 1
  17   10   24 1
  18   11   12 ar
  19   11   16 ar
  20   12   13 ar
  21   12   25 1
  22   13   14 ar
  23   14   15 ar
  24   14   18 1
  25   15   16 ar
  26   15   17 1
  27   16   26 1
  28   17   19 1
  29   19   27 1
  30   19   28 1
  31   19   29 1

#	End of record

