#	Name: ASD01811534
#	Creating user name:	WinNT
#	Creation time:	15. 06. 2019 19:26

#	Modifying user name:	WinNT
#	Modification time:	15. 06. 2019 19:26

#	Program:	/corina/corina34_cracker 3.40 0067  02.08.2006

@<TRIPOS>MOLECULE
ASD01811534
  59   63    0    0    0
SMALL
NO_CHARGES


@<TRIPOS>ATOM
   1 C1            -7.5952     2.1174     1.2885 C.1     
   2 C2            -6.4620     2.9877     1.1934 C.ar    
   3 C3            -5.2029     2.5471     1.6062 C.ar    
   4 C4            -4.1155     3.3907     1.5119 C.ar    
   5 C5            -4.2704     4.6708     1.0102 C.ar    
   6 C6            -5.5152     5.1139     0.5997 C.ar    
   7 C7            -6.6099     4.2786     0.6822 C.ar    
   8 N8            -8.4943     1.4271     1.3639 N.1     
   9 N9            -1.7466     8.0628     1.2227 N.am    
  10 C10           -2.1932     7.6812    -0.1240 C.3     
  11 C11           -3.4186     6.7705     0.0025 C.3     
  12 C12           -3.0779     5.5868     0.9107 C.3     
  13 C13           -2.7116     6.1003     2.3051 C.3     
  14 C14           -1.4783     7.0033     2.2046 C.3     
  15 F15           -1.9940     4.8841     0.3735 F       
  16 C16           -1.5807     9.3598     1.5493 C.2     
  17 C17           -1.2267     9.7337     2.9354 C.ar    
  18 C18           -2.0305    10.6273     3.6465 C.ar    
  19 C19           -1.7001    10.9764     4.9402 C.ar    
  20 C20           -0.5739    10.4449     5.5389 C.ar    
  21 C21            0.2362     9.5521     4.8395 C.ar    
  22 C22           -0.0930     9.1909     3.5376 C.ar    
  23 O23           -1.7222    10.2222     0.7044 O.2     
  24 N24            2.9638     7.6019     6.1896 N.2     
  25 N25            3.2602     8.7962     6.5612 N.pl3   
  26 N26            2.3762     9.6382     6.1574 N.2     
  27 C27            1.4458     8.9827     5.4858 C.2     
  28 C28            1.8410     7.6328     5.5106 C.2     
  29 C29           -3.2601    11.2116     3.0001 C.3     
  30 C30           -0.2204    10.8320     6.9518 C.3     
  31 C31           -0.0836    12.3497     7.1588 C.3     
  32 C32           -0.7952    12.1506     8.5074 C.3     
  33 C33           -1.4329    10.8919     7.8958 C.3     
  34 H34           -5.0807     1.5484     1.9988 H       
  35 H35           -3.1411     3.0513     1.8309 H       
  36 H36           -5.6292     6.1144     0.2094 H       
  37 H37           -7.5801     4.6240     0.3570 H       
  38 H38           -2.4591     8.5753    -0.6879 H       
  39 H39           -1.3930     7.1478    -0.6370 H       
  40 H40           -4.2469     7.3330     0.4333 H       
  41 H41           -3.7019     6.4027    -0.9837 H       
  42 H42           -3.5466     6.6691     2.7142 H       
  43 H43           -2.4918     5.2554     2.9577 H       
  44 H44           -0.6197     6.4146     1.8816 H       
  45 H45           -1.2724     7.4502     3.1773 H       
  46 H46           -2.3241    11.6680     5.4867 H       
  47 H47            0.5294     8.4957     2.9939 H       
  48 H48            4.0464     9.0312     7.0783 H       
  49 H49            1.3271     6.7951     5.0628 H       
  50 H50           -4.0941    10.5190     3.1136 H       
  51 H51           -3.5069    12.1591     3.4791 H       
  52 H52           -3.0686    11.3792     1.9403 H       
  53 H53            0.6172    10.2597     7.3505 H       
  54 H54            0.9488    12.6859     7.2553 H       
  55 H55           -0.6575    12.9412     6.4454 H       
  56 H56           -0.1154    11.9386     9.3327 H       
  57 H57           -1.5149    12.9350     8.7414 H       
  58 H58           -2.3757    11.0849     7.3839 H       
  59 H59           -1.4899    10.0513     8.5873 H       
@<TRIPOS>BOND
   1    1    2 1
   2    1    8 3
   3    2    3 ar
   4    2    7 ar
   5    3    4 ar
   6    3   34 1
   7    4    5 ar
   8    4   35 1
   9    5    6 ar
  10    5   12 1
  11    6    7 ar
  12    6   36 1
  13    7   37 1
  14    9   10 1
  15    9   14 1
  16    9   16 am
  17   10   11 1
  18   10   38 1
  19   10   39 1
  20   11   12 1
  21   11   40 1
  22   11   41 1
  23   12   13 1
  24   12   15 1
  25   13   14 1
  26   13   42 1
  27   13   43 1
  28   14   44 1
  29   14   45 1
  30   16   17 1
  31   16   23 2
  32   17   18 ar
  33   17   22 ar
  34   18   19 ar
  35   18   29 1
  36   19   20 ar
  37   19   46 1
  38   20   21 ar
  39   20   30 1
  40   21   22 ar
  41   21   27 1
  42   22   47 1
  43   24   25 1
  44   24   28 2
  45   25   26 1
  46   25   48 1
  47   26   27 2
  48   27   28 1
  49   28   49 1
  50   29   50 1
  51   29   51 1
  52   29   52 1
  53   30   31 1
  54   30   33 1
  55   30   53 1
  56   31   32 1
  57   31   54 1
  58   31   55 1
  59   32   33 1
  60   32   56 1
  61   32   57 1
  62   33   58 1
  63   33   59 1

#	End of record

