#	Name: ASD03091423
#	Creating user name:	WinNT
#	Creation time:	15. 06. 2019 20:30

#	Modifying user name:	WinNT
#	Modification time:	15. 06. 2019 20:30

#	Program:	/corina/corina34_cracker 3.40 0067  02.08.2006

@<TRIPOS>MOLECULE
ASD03091423
  32   34    0    0    0
SMALL
NO_CHARGES


@<TRIPOS>ATOM
   1 C1             0.0383     1.7089    -0.0455 C.3     
   2 C2            -0.0048     0.1808    -0.1107 C.3     
   3 N3             0.6489    -0.3798     1.0788 N.3     
   4 C4            -0.0506     0.0205     2.3064 C.3     
   5 C5            -0.0095     1.5436     2.4455 C.3     
   6 C6             1.4494     2.0066     2.5205 C.3     
   7 N7             2.1094     1.6962     1.2451 N.am    
   8 C8             1.4980     2.1736    -0.0027 C.3     
   9 C9            -0.6765     2.1824     1.2236 C.3     
  10 C10            3.2546     0.9861     1.2201 C.2     
  11 O11            3.8115     0.6927     2.2618 O.2     
  12 O12            3.2465     0.6956    -1.2718 O.3     
  13 C13            3.8292     0.5673    -0.0612 C.2     
  14 C14            5.0497    -0.0212    -0.2403 C.2     
  15 C15            5.1891    -0.2484    -1.6194 C.2     
  16 C16            4.0635     0.2050    -2.2130 C.2     
  17 Br17           6.3070    -0.4461     1.1068 Br      
  18 H18           -0.4521     2.1260    -0.9251 H       
  19 H19           -1.0421    -0.1521    -0.1459 H       
  20 H20            0.5162    -0.1593    -1.0057 H       
  21 H21            0.7185    -1.3843     1.0135 H       
  22 H22           -1.0875    -0.3119     2.2583 H       
  23 H23            0.4373    -0.4361     3.1676 H       
  24 H24           -0.5344     1.8418     3.3531 H       
  25 H25            1.4831     3.0817     2.6973 H       
  26 H26            1.9574     1.4846     3.3314 H       
  27 H27            2.0378     1.7614    -0.8552 H       
  28 H28            1.5360     3.2624    -0.0351 H       
  29 H29           -0.6077     3.2677     1.2970 H       
  30 H30           -1.7244     1.8851     1.1838 H       
  31 H31            6.0369    -0.7006    -2.1126 H       
  32 H32            3.8563     0.1765    -3.2725 H       
@<TRIPOS>BOND
   1    1    2 1
   2    1    8 1
   3    1    9 1
   4    1   18 1
   5    2    3 1
   6    2   19 1
   7    2   20 1
   8    3    4 1
   9    3   21 1
  10    4    5 1
  11    4   22 1
  12    4   23 1
  13    5    6 1
  14    5    9 1
  15    5   24 1
  16    6    7 1
  17    6   25 1
  18    6   26 1
  19    7    8 1
  20    7   10 am
  21    8   27 1
  22    8   28 1
  23    9   29 1
  24    9   30 1
  25   10   11 2
  26   10   13 1
  27   12   13 1
  28   12   16 1
  29   13   14 2
  30   14   15 1
  31   14   17 1
  32   15   16 2
  33   15   31 1
  34   16   32 1

#	End of record

