#	Name: ASD03950021
#	Creating user name:	WinNT
#	Creation time:	15. 06. 2019 20:48

#	Modifying user name:	WinNT
#	Modification time:	15. 06. 2019 20:48

#	Program:	/corina/corina34_cracker 3.40 0067  02.08.2006

@<TRIPOS>MOLECULE
ASD03950021
  67   71    0    0    0
SMALL
NO_CHARGES


@<TRIPOS>ATOM
   1 N1            -0.0207     1.4207     0.0211 N.pl3   
   2 N2            -0.0064     0.0457     0.2757 N.2     
   3 C3             1.2211    -0.3774     0.3749 C.2     
   4 C4             2.1032     0.7703     0.1777 C.ar    
   5 C5             3.4911     0.9326     0.1711 C.ar    
   6 C6             4.0399     2.1877    -0.0521 C.ar    
   7 C7             3.2137     3.2916    -0.2705 C.ar    
   8 C8             1.8319     3.1468    -0.2665 C.ar    
   9 C9             1.2642     1.8789    -0.0417 C.ar    
  10 C10            0.9637     4.3170    -0.4968 C.2     
  11 O11           -0.2453     4.1873    -0.4928 O.2     
  12 N12            1.5106     5.5300    -0.7118 N.am    
  13 N13            1.1864    -4.5398     1.1455 N.am    
  14 C14            1.5582    -3.6825     2.2793 C.3     
  15 C15            1.0879    -2.2532     1.9916 C.3     
  16 C16            1.6538    -1.7954     0.6454 C.3     
  17 C17            1.1319    -2.7086    -0.4663 C.3     
  18 C18            1.6027    -4.1430    -0.2065 C.3     
  19 S19            0.3206    -5.9305     1.3877 S.o2    
  20 O20            0.5942    -6.7722     0.2760 O.2     
  21 O21            0.5554    -6.3201     2.7339 O.2     
  22 C22           -3.3502    -5.1462     0.4639 C.2     
  23 N23           -2.1335    -5.5143     0.1688 N.2     
  24 C24           -1.3865    -5.5070     1.2828 C.2     
  25 C25           -2.1702    -5.1197     2.3072 C.2     
  26 N26           -3.4160    -4.8907     1.7883 N.pl3   
  27 C27           -4.4912    -5.0209    -0.5125 C.3     
  28 C28           -4.5996    -4.4506     2.5310 C.3     
  29 C29            5.5141     2.3573    -0.0582 C.ar    
  30 C30            6.0709     3.6153    -0.2818 C.ar    
  31 C31            7.4409     3.7707    -0.2865 C.ar    
  32 C32            8.2664     2.6743    -0.0686 C.ar    
  33 C33            7.7134     1.4191     0.1545 C.ar    
  34 C34            6.3438     1.2600     0.1654 C.ar    
  35 N35            9.6558     2.8342    -0.0743 N.am    
  36 C36           10.2065     3.9611     0.4190 C.2     
  37 O37            9.4958     4.8712     0.7900 O.2     
  38 C38           11.7052     4.0902     0.5097 C.3     
  39 H39           -0.8168     1.9622    -0.0964 H       
  40 H40            4.1358     0.0826     0.3397 H       
  41 H41            3.6511     4.2638    -0.4432 H       
  42 H42            2.4751     5.6335    -0.7150 H       
  43 H43            0.9397     6.2994    -0.8633 H       
  44 H44            1.0791    -4.0491     3.1871 H       
  45 H45            2.6408    -3.6925     2.4054 H       
  46 H46           -0.0012    -2.2289     1.9557 H       
  47 H47            1.4413    -1.5884     2.7798 H       
  48 H48            2.7424    -1.8438     0.6737 H       
  49 H49            0.0424    -2.6800    -0.4792 H       
  50 H50            1.5166    -2.3679    -1.4276 H       
  51 H51            2.6890    -4.1906    -0.2831 H       
  52 H52            1.1529    -4.8135    -0.9389 H       
  53 H53           -1.8729    -5.0110     3.3398 H       
  54 H54           -5.0215    -5.9711    -0.5756 H       
  55 H55           -5.1764    -4.2443    -0.1728 H       
  56 H56           -4.1010    -4.7567    -1.4953 H       
  57 H57           -5.1468    -5.3215     2.8917 H       
  58 H58           -4.2901    -3.8393     3.3787 H       
  59 H59           -5.2425    -3.8635     1.8752 H       
  60 H60            5.4297     4.4677    -0.4516 H       
  61 H61            7.8728     4.7453    -0.4601 H       
  62 H62            8.3568     0.5682     0.3233 H       
  63 H63            5.9144     0.2851     0.3429 H       
  64 H64           10.2231     2.1341    -0.4333 H       
  65 H65           12.1717     3.1800     0.1329 H       
  66 H66           12.0334     4.9408    -0.0876 H       
  67 H67           11.9944     4.2431     1.5494 H       
@<TRIPOS>BOND
   1    1    2 1
   2    1    9 1
   3    1   39 1
   4    2    3 2
   5    3    4 1
   6    3   16 1
   7    4    5 ar
   8    4    9 ar
   9    5    6 ar
  10    5   40 1
  11    6    7 ar
  12    6   29 1
  13    7    8 ar
  14    7   41 1
  15    8    9 ar
  16    8   10 1
  17   10   11 2
  18   10   12 am
  19   12   42 1
  20   12   43 1
  21   13   14 1
  22   13   18 1
  23   13   19 am
  24   14   15 1
  25   14   44 1
  26   14   45 1
  27   15   16 1
  28   15   46 1
  29   15   47 1
  30   16   17 1
  31   16   48 1
  32   17   18 1
  33   17   49 1
  34   17   50 1
  35   18   51 1
  36   18   52 1
  37   19   20 2
  38   19   21 2
  39   19   24 1
  40   22   23 2
  41   22   26 1
  42   22   27 1
  43   23   24 1
  44   24   25 2
  45   25   26 1
  46   25   53 1
  47   26   28 1
  48   27   54 1
  49   27   55 1
  50   27   56 1
  51   28   57 1
  52   28   58 1
  53   28   59 1
  54   29   30 ar
  55   29   34 ar
  56   30   31 ar
  57   30   60 1
  58   31   32 ar
  59   31   61 1
  60   32   33 ar
  61   32   35 1
  62   33   34 ar
  63   33   62 1
  64   34   63 1
  65   35   36 am
  66   35   64 1
  67   36   37 2
  68   36   38 1
  69   38   65 1
  70   38   66 1
  71   38   67 1

#	End of record

