#	Name: ASD01883776
#	Creating user name:	WinNT
#	Creation time:	15. 06. 2019 19:47

#	Modifying user name:	WinNT
#	Modification time:	15. 06. 2019 19:47

#	Program:	/corina/corina34_cracker 3.40 0067  02.08.2006

@<TRIPOS>MOLECULE
ASD01883776
  57   61    0    0    0
SMALL
NO_CHARGES


@<TRIPOS>ATOM
   1 C1            -0.0168     1.3856     0.0097 C.ar    
   2 C2             0.0021    -0.0041     0.0020 C.ar    
   3 C3             1.2157    -0.6846    -0.0128 C.ar    
   4 C4             2.3947     0.0184    -0.0203 C.ar    
   5 C5             2.3848     1.4172    -0.0132 C.ar    
   6 C6             1.1631     2.0958     0.0022 C.ar    
   7 C7             3.8447    -0.3969    -0.0365 C.3     
   8 N8             4.6266     0.8448    -0.0379 N.am    
   9 C9             3.7803     1.8889    -0.0244 C.2     
  10 O10            4.1185     3.0567    -0.0214 O.2     
  11 C11            6.0889     0.9321    -0.0517 C.3     
  12 C12            6.5598     1.6913    -1.3045 C.3     
  13 C13            7.3221     2.9360    -0.8049 C.3     
  14 C14            7.7856     2.5503     0.6218 C.3     
  15 C15            6.5814     1.7418     1.1655 C.3     
  16 O16           -1.1642    -0.6979     0.0095 O.3     
  17 C17           -2.3727     0.0646     0.0252 C.3     
  18 C18           -3.5557    -0.8689     0.0315 C.ar    
  19 C19           -4.0849    -1.3020     1.2301 C.ar    
  20 C20           -5.1791    -2.1649     1.2345 C.ar    
  21 C21           -5.7328    -2.5856     0.0273 C.ar    
  22 C22           -5.1954    -2.1461    -1.1659 C.ar    
  23 C23           -4.1127    -1.2857    -1.1643 C.ar    
  24 C24           -5.7522    -2.6343     2.5204 C.ar    
  25 C25           -5.1961    -2.2123     3.7278 C.ar    
  26 C26           -5.7261    -2.6473     4.9264 C.ar    
  27 C27           -6.8111    -3.5030     4.9385 C.ar    
  28 C28           -7.3776    -3.9327     3.7344 C.ar    
  29 C29           -6.8476    -3.4908     2.5226 C.ar    
  30 C30           -8.5371    -4.8471     3.7460 C.2     
  31 O31           -9.0812    -5.2597     2.5848 O.3     
  32 O32           -9.0002    -5.2272     4.8028 O.2     
  33 Cl33          -7.4709    -4.0455     6.4498 Cl      
  34 H34           -0.9605     1.9106     0.0170 H       
  35 H35            1.2300    -1.7645    -0.0180 H       
  36 H36            1.1443     3.1757     0.0075 H       
  37 H37            4.0762    -0.9844     0.8519 H       
  38 H38            4.0588    -0.9754    -0.9352 H       
  39 H39            6.5225    -0.0678    -0.0361 H       
  40 H40            7.2227     1.0602    -1.8964 H       
  41 H41            5.7004     1.9948    -1.9022 H       
  42 H42            8.1818     3.1386    -1.4435 H       
  43 H43            6.6594     3.8007    -0.7700 H       
  44 H44            8.6811     1.9301     0.5826 H       
  45 H45            7.9573     3.4410     1.2262 H       
  46 H46            5.7991     2.4137     1.5186 H       
  47 H47            6.9006     1.0730     1.9648 H       
  48 H48           -2.3972     0.6883     0.9188 H       
  49 H49           -2.4142     0.6978    -0.8611 H       
  50 H50           -3.6515    -0.9731     2.1631 H       
  51 H51           -6.5806    -3.2545     0.0250 H       
  52 H52           -5.6237    -2.4719    -2.1023 H       
  53 H53           -3.6956    -0.9440    -2.1001 H       
  54 H54           -4.3480    -1.5436     3.7253 H       
  55 H55           -5.2907    -2.3176     5.8582 H       
  56 H56           -7.2809    -3.8192     1.5894 H       
  57 H57           -9.8388    -5.8579     2.6430 H       
@<TRIPOS>BOND
   1    1    2 ar
   2    1    6 ar
   3    1   34 1
   4    2    3 ar
   5    2   16 1
   6    3    4 ar
   7    3   35 1
   8    4    5 ar
   9    4    7 1
  10    5    6 ar
  11    5    9 1
  12    6   36 1
  13    7    8 1
  14    7   37 1
  15    7   38 1
  16    8    9 am
  17    8   11 1
  18    9   10 2
  19   11   12 1
  20   11   15 1
  21   11   39 1
  22   12   13 1
  23   12   40 1
  24   12   41 1
  25   13   14 1
  26   13   42 1
  27   13   43 1
  28   14   15 1
  29   14   44 1
  30   14   45 1
  31   15   46 1
  32   15   47 1
  33   16   17 1
  34   17   18 1
  35   17   48 1
  36   17   49 1
  37   18   19 ar
  38   18   23 ar
  39   19   20 ar
  40   19   50 1
  41   20   21 ar
  42   20   24 1
  43   21   22 ar
  44   21   51 1
  45   22   23 ar
  46   22   52 1
  47   23   53 1
  48   24   25 ar
  49   24   29 ar
  50   25   26 ar
  51   25   54 1
  52   26   27 ar
  53   26   55 1
  54   27   28 ar
  55   27   33 1
  56   28   29 ar
  57   28   30 1
  58   29   56 1
  59   30   31 1
  60   30   32 2
  61   31   57 1

#	End of record

