#	Name: ASD04012004
#	Creating user name:	WinNT
#	Creation time:	15. 06. 2019 20:48

#	Modifying user name:	WinNT
#	Modification time:	15. 06. 2019 20:48

#	Program:	/corina/corina34_cracker 3.40 0067  02.08.2006

@<TRIPOS>MOLECULE
ASD04012004
  33   35    0    0    0
SMALL
NO_CHARGES


@<TRIPOS>ATOM
   1 N1            -0.6628     1.1696    -0.3650 N.pl3   
   2 C2             0.6428     1.3122     0.0211 C.2     
   3 N3             1.1497     2.5311     0.2496 N.2     
   4 C4             0.4108     3.6099     0.1094 C.2     
   5 C5            -0.9244     3.5067    -0.2822 C.2     
   6 C6            -1.4553     2.2700    -0.5238 C.2     
   7 N7            -0.8851    -0.2045    -0.5227 N.2     
   8 C8             0.2502    -0.8128    -0.2368 C.2     
   9 N9             1.1705     0.0989     0.0906 N.2     
  10 O10           -2.7461     2.1384    -0.9046 O.3     
  11 C11           -1.7699     4.7439    -0.4420 C.3     
  12 C12           -2.3837     5.1077     0.8853 C.ar    
  13 C13            1.0102     4.9670     0.3739 C.3     
  14 C14           -1.7830     6.0606     1.6866 C.ar    
  15 C15           -2.3460     6.3943     2.9042 C.ar    
  16 C16           -3.5100     5.7755     3.3203 C.ar    
  17 C17           -4.1112     4.8233     2.5186 C.ar    
  18 C18           -3.5505     4.4927     1.2991 C.ar    
  19 C19            0.4699    -2.2760    -0.2726 C.2     
  20 O20           -0.4386    -3.0189    -0.5848 O.2     
  21 O21            1.6775    -2.7835     0.0409 O.3     
  22 H22           -3.0220     1.2230    -1.0497 H       
  23 H23           -1.1470     5.5670    -0.7921 H       
  24 H24           -2.5605     4.5524    -1.1676 H       
  25 H25            2.0763     4.8605     0.5744 H       
  26 H26            0.8665     5.6041    -0.4989 H       
  27 H27            0.5214     5.4181     1.2374 H       
  28 H28           -0.8736     6.5441     1.3615 H       
  29 H29           -1.8763     7.1383     3.5306 H       
  30 H30           -3.9495     6.0357     4.2719 H       
  31 H31           -5.0204     4.3396     2.8439 H       
  32 H32           -4.0203     3.7488     0.6727 H       
  33 H33            1.7727    -3.7451     0.0032 H       
@<TRIPOS>BOND
   1    1    7 1
   2    1    2 1
   3    1    6 1
   4    2    3 1
   5    2    9 2
   6    3    4 2
   7    4    5 1
   8    4   13 1
   9    5    6 2
  10    5   11 1
  11    6   10 1
  12    7    8 2
  13    8    9 1
  14    8   19 1
  15   10   22 1
  16   11   12 1
  17   11   23 1
  18   11   24 1
  19   12   14 ar
  20   12   18 ar
  21   13   25 1
  22   13   26 1
  23   13   27 1
  24   14   15 ar
  25   14   28 1
  26   15   16 ar
  27   15   29 1
  28   16   17 ar
  29   16   30 1
  30   17   18 ar
  31   17   31 1
  32   18   32 1
  33   19   20 2
  34   19   21 1
  35   21   33 1

#	End of record

