#	Name: ASD08390003
#	Creating user name:	WinNT
#	Creation time:	15. 06. 2019 21:19

#	Modifying user name:	WinNT
#	Modification time:	15. 06. 2019 21:19

#	Program:	/corina/corina34_cracker 3.40 0067  02.08.2006

@<TRIPOS>MOLECULE
ASD08390003
  63   67    0    0    0
SMALL
NO_CHARGES


@<TRIPOS>ATOM
   1 C1            -0.3642     1.4564    -0.2018 C.2     
   2 N2            -0.1494     0.2430     0.1865 N.2     
   3 C3            -1.4218    -0.4814     0.3098 C.3     
   4 C4            -2.4856     0.5596    -0.0916 C.3     
   5 N5            -1.6876     1.7602    -0.3914 N.pl3   
   6 C6            -1.4528    -1.6581    -0.6313 C.2     
   7 O7            -0.7239    -1.6356    -1.7582 O.3     
   8 O8            -2.1338    -2.6217    -0.3714 O.2     
   9 C9            -0.8023    -2.8035    -2.6173 C.3     
  10 C10           -2.2166     3.0552    -0.8268 C.3     
  11 C11            0.0757    -2.5986    -3.8249 C.ar    
  12 C12            1.3989    -2.9973    -3.7931 C.ar    
  13 C13           -0.4437    -2.0171    -4.9664 C.ar    
  14 C14            0.3616    -1.8291    -6.0741 C.ar    
  15 C15            1.6864    -2.2222    -6.0402 C.ar    
  16 C16            2.2042    -2.8093    -4.9008 C.ar    
  17 C17            0.7248     2.4364    -0.4176 C.ar    
  18 C18            1.7803     2.5212     0.4899 C.ar    
  19 C19            2.7921     3.4365     0.2835 C.ar    
  20 C20            2.7607     4.2692    -0.8208 C.ar    
  21 C21            1.7161     4.1902    -1.7242 C.ar    
  22 C22            0.7019     3.2744    -1.5322 C.ar    
  23 C23           -1.6377    -0.9442     1.7520 C.3     
  24 C24           -3.2444     0.1015    -1.3105 C.ar    
  25 C25           -4.4941    -0.4728    -1.1712 C.ar    
  26 C26           -5.1900    -0.8930    -2.2892 C.ar    
  27 C27           -4.6365    -0.7385    -3.5465 C.ar    
  28 C28           -3.3872    -0.1634    -3.6858 C.ar    
  29 C29           -2.6931     0.2607    -2.5681 C.ar    
  30 C30           -2.6253     3.8618     0.3788 C.ar    
  31 C31           -1.7477     4.7782     0.9272 C.ar    
  32 C32           -2.1226     5.5181     2.0331 C.ar    
  33 C33           -3.3753     5.3418     2.5902 C.ar    
  34 C34           -4.2533     4.4260     2.0413 C.ar    
  35 C35           -3.8800     3.6893     0.9328 C.ar    
  36 H36           -3.1671     0.7522     0.7370 H       
  37 H37           -0.4649    -3.6822    -2.0677 H       
  38 H38           -1.8336    -2.9497    -2.9385 H       
  39 H39           -1.4479     3.5939    -1.3808 H       
  40 H40           -3.0831     2.8964    -1.4686 H       
  41 H41            1.8036    -3.4553    -2.9027 H       
  42 H42           -1.4788    -1.7099    -4.9929 H       
  43 H43           -0.0444    -1.3754    -6.9662 H       
  44 H44            2.3155    -2.0757    -6.9058 H       
  45 H45            3.2393    -3.1164    -4.8743 H       
  46 H46            1.8056     1.8721     1.3527 H       
  47 H47            3.6101     3.5031     0.9855 H       
  48 H48            3.5547     4.9842    -0.9779 H       
  49 H49            1.6968     4.8432    -2.5842 H       
  50 H50           -0.1105     3.2100    -2.2409 H       
  51 H51           -1.6328    -0.0796     2.4157 H       
  52 H52           -2.5968    -1.4563     1.8295 H       
  53 H53           -0.8374    -1.6266     2.0383 H       
  54 H54           -4.9265    -0.5934    -0.1890 H       
  55 H55           -6.1661    -1.3423    -2.1804 H       
  56 H56           -5.1800    -1.0675    -4.4199 H       
  57 H57           -2.9546    -0.0431    -4.6680 H       
  58 H58           -1.7187     0.7135    -2.6772 H       
  59 H59           -0.7689     4.9159     0.4919 H       
  60 H60           -1.4366     6.2335     2.4620 H       
  61 H61           -3.6680     5.9194     3.4546 H       
  62 H62           -5.2320     4.2881     2.4768 H       
  63 H63           -4.5673     2.9765     0.5016 H       
@<TRIPOS>BOND
   1    1    2 2
   2    1   17 1
   3    1    5 1
   4    2    3 1
   5    3    6 1
   6    3   23 1
   7    3    4 1
   8    4    5 1
   9    4   24 1
  10    4   36 1
  11    5   10 1
  12    6    7 1
  13    6    8 2
  14    7    9 1
  15    9   11 1
  16    9   37 1
  17    9   38 1
  18   10   30 1
  19   10   39 1
  20   10   40 1
  21   11   12 ar
  22   11   13 ar
  23   12   16 ar
  24   12   41 1
  25   13   14 ar
  26   13   42 1
  27   14   15 ar
  28   14   43 1
  29   15   16 ar
  30   15   44 1
  31   16   45 1
  32   17   18 ar
  33   17   22 ar
  34   18   19 ar
  35   18   46 1
  36   19   20 ar
  37   19   47 1
  38   20   21 ar
  39   20   48 1
  40   21   22 ar
  41   21   49 1
  42   22   50 1
  43   23   51 1
  44   23   52 1
  45   23   53 1
  46   24   25 ar
  47   24   29 ar
  48   25   26 ar
  49   25   54 1
  50   26   27 ar
  51   26   55 1
  52   27   28 ar
  53   27   56 1
  54   28   29 ar
  55   28   57 1
  56   29   58 1
  57   30   31 ar
  58   30   35 ar
  59   31   32 ar
  60   31   59 1
  61   32   33 ar
  62   32   60 1
  63   33   34 ar
  64   33   61 1
  65   34   35 ar
  66   34   62 1
  67   35   63 1

#	End of record

