#	Name: ASD03731816
#	Creating user name:	WinNT
#	Creation time:	15. 06. 2019 20:46

#	Modifying user name:	WinNT
#	Modification time:	15. 06. 2019 20:46

#	Program:	/corina/corina34_cracker 3.40 0067  02.08.2006

@<TRIPOS>MOLECULE
ASD03731816
  34   35    0    0    0
SMALL
NO_CHARGES


@<TRIPOS>ATOM
   1 C1             0.1203     1.4720    -0.0164 C.2     
   2 C2             0.1039    -0.0039    -0.0176 C.ar    
   3 C3             1.2950    -0.7176    -0.1766 C.ar    
   4 C4             1.2753    -2.0953    -0.1766 C.ar    
   5 C5             0.0718    -2.7752    -0.0187 C.ar    
   6 C6            -1.1140    -2.0683     0.1395 C.ar    
   7 C7            -1.1015    -0.6909     0.1459 C.ar    
   8 O8             1.1709     2.0684    -0.1538 O.2     
   9 N9            -1.0300     2.1586     0.1314 N.am    
  10 S10           -1.0116     3.8145     0.1328 S.o2    
  11 O11           -2.3702     4.1800     0.3324 O.2     
  12 O12           -0.0141     4.1531     1.0866 O.2     
  13 C13           -0.4710     4.2626    -1.5399 C.3     
  14 O14            0.0558    -4.1323    -0.0197 O.3     
  15 C15            0.2833    -4.7729     1.1547 C.ar    
  16 C16            0.2133    -6.1720     1.2189 C.ar    
  17 C17            0.4499    -6.8198     2.4334 C.ar    
  18 C18            0.7503    -6.0822     3.5588 C.ar    
  19 C19            0.8180    -4.7008     3.4912 C.ar    
  20 C20            0.5918    -4.0476     2.2951 C.ar    
  21 C21           -0.0996    -6.9320     0.0463 C.1     
  22 N22           -0.3478    -7.5349    -0.8840 N.1     
  23 Cl23           2.7537    -2.9835    -0.3745 Cl      
  24 H24            2.2293    -0.1901    -0.2995 H       
  25 H25           -2.0463    -2.5996     0.2615 H       
  26 H26           -2.0232    -0.1426     0.2735 H       
  27 H27           -1.8687     1.6829     0.2371 H       
  28 H28           -1.1768     3.8641    -2.2687 H       
  29 H29           -0.4299     5.3480    -1.6298 H       
  30 H30            0.5183     3.8448    -1.7261 H       
  31 H31            0.3974    -7.8970     2.4909 H       
  32 H32            0.9331    -6.5840     4.4975 H       
  33 H33            1.0536    -4.1308     4.3778 H       
  34 H34            0.6509    -2.9702     2.2494 H       
@<TRIPOS>BOND
   1    1    2 1
   2    1    8 2
   3    1    9 am
   4    2    3 ar
   5    2    7 ar
   6    3    4 ar
   7    3   24 1
   8    4    5 ar
   9    4   23 1
  10    5    6 ar
  11    5   14 1
  12    6    7 ar
  13    6   25 1
  14    7   26 1
  15    9   10 am
  16    9   27 1
  17   10   11 2
  18   10   12 2
  19   10   13 1
  20   13   28 1
  21   13   29 1
  22   13   30 1
  23   14   15 1
  24   15   16 ar
  25   15   20 ar
  26   16   17 ar
  27   16   21 1
  28   17   18 ar
  29   17   31 1
  30   18   19 ar
  31   18   32 1
  32   19   20 ar
  33   19   33 1
  34   20   34 1
  35   21   22 3

#	End of record

