#	Name: ASD01811416
#	Creating user name:	WinNT
#	Creation time:	15. 06. 2019 19:26

#	Modifying user name:	WinNT
#	Modification time:	15. 06. 2019 19:26

#	Program:	/corina/corina34_cracker 3.40 0067  02.08.2006

@<TRIPOS>MOLECULE
ASD01811416
  62   65    0    0    0
SMALL
NO_CHARGES


@<TRIPOS>ATOM
   1 N1             1.8554     5.0024     1.5865 N.am    
   2 C2             2.6497     5.0770     2.6728 C.2     
   3 O3             3.4144     4.1675     2.9304 O.2     
   4 N4             2.5964     6.1598     3.4736 N.am    
   5 C5             3.4597     6.2408     4.6543 C.3     
   6 C6             3.2036     7.5611     5.3838 C.3     
   7 C7             1.7732     7.5747     5.9266 C.3     
   8 C8             4.1907     7.7026     6.5441 C.3     
   9 C9             0.8695     3.4431     0.0185 C.ar    
  10 C10            1.9801     3.9254     0.7007 C.ar    
  11 C11            3.2162     3.3253     0.4921 C.ar    
  12 C12            3.2885     2.2526    -0.4034 C.ar    
  13 C13            2.1246     1.8307    -1.0472 C.ar    
  14 N14            0.9744     2.4300    -0.8189 N.ar    
  15 C15           -0.4758     4.0839     0.2435 C.3     
  16 C16            4.5777     1.5772    -0.6638 C.2     
  17 O17            4.6374     0.3632    -0.6702 O.2     
  18 C18            7.5632     3.7861    -2.3967 C.3     
  19 O19            8.4745     4.1123    -1.3355 O.3     
  20 C20            9.7564     4.2479    -1.9772 C.3     
  21 C21            9.4678     4.6877    -3.3941 C.ar    
  22 C22           10.2520     5.2645    -4.3677 C.ar    
  23 C23            9.7003     5.5684    -5.6144 C.ar    
  24 C24            8.3560     5.2844    -5.8640 C.ar    
  25 C25            7.5811     4.7057    -4.8799 C.ar    
  26 C26            8.1323     4.4067    -3.6488 C.ar    
  27 N27            5.6867     2.3077    -0.8940 N.am    
  28 C28            6.9522     1.6531    -1.2529 C.3     
  29 C29            7.4732     2.2695    -2.5556 C.3     
  30 C30            6.1848     4.3717    -2.0972 C.3     
  31 C31            5.6518     3.7729    -0.7911 C.3     
  32 C32           10.5095     6.1688    -6.6319 C.1     
  33 N33           11.1514     6.6452    -7.4390 N.1     
  34 H34            1.1946     5.6929     1.4205 H       
  35 H35            1.9863     6.8854     3.2681 H       
  36 H36            3.2405     5.4081     5.3226 H       
  37 H37            4.5038     6.1933     4.3450 H       
  38 H38            3.3369     8.3913     4.6901 H       
  39 H39            1.5907     8.5153     6.4462 H       
  40 H40            1.0699     7.4739     5.0999 H       
  41 H41            1.6399     6.7446     6.6203 H       
  42 H42            5.2098     7.6929     6.1574 H       
  43 H43            4.0082     8.6432     7.0638 H       
  44 H44            4.0574     6.8724     7.2378 H       
  45 H45            4.0976     3.6778     1.0072 H       
  46 H46            2.1676     1.0038    -1.7406 H       
  47 H47           -0.6149     4.8967    -0.4693 H       
  48 H48           -1.2604     3.3401     0.1041 H       
  49 H49           -0.5253     4.4783     1.2585 H       
  50 H50           10.3551     5.0010    -1.4649 H       
  51 H51           10.2781     3.2908    -1.9800 H       
  52 H52           11.2909     5.4818    -4.1678 H       
  53 H53            7.9234     5.5177    -6.8257 H       
  54 H54            6.5413     4.4862    -5.0722 H       
  55 H55            7.6818     1.8075    -0.4580 H       
  56 H56            6.7840     0.5856    -1.3953 H       
  57 H57            6.7904     2.0290    -3.3705 H       
  58 H58            8.4618     1.8678    -2.7782 H       
  59 H59            6.2638     5.4541    -1.9955 H       
  60 H60            5.5025     4.1314    -2.9126 H       
  61 H61            4.6258     4.1036    -0.6295 H       
  62 H62            6.2774     4.0958     0.0410 H       
@<TRIPOS>BOND
   1    1    2 am
   2    1   10 1
   3    1   34 1
   4    2    3 2
   5    2    4 am
   6    4    5 1
   7    4   35 1
   8    5    6 1
   9    5   36 1
  10    5   37 1
  11    6    7 1
  12    6    8 1
  13    6   38 1
  14    7   39 1
  15    7   40 1
  16    7   41 1
  17    8   42 1
  18    8   43 1
  19    8   44 1
  20    9   10 ar
  21    9   14 ar
  22    9   15 1
  23   10   11 ar
  24   11   12 ar
  25   11   45 1
  26   12   13 ar
  27   12   16 1
  28   13   14 ar
  29   13   46 1
  30   15   47 1
  31   15   48 1
  32   15   49 1
  33   16   17 2
  34   16   27 am
  35   18   19 1
  36   18   26 1
  37   18   29 1
  38   18   30 1
  39   19   20 1
  40   20   21 1
  41   20   50 1
  42   20   51 1
  43   21   22 ar
  44   21   26 ar
  45   22   23 ar
  46   22   52 1
  47   23   24 ar
  48   23   32 1
  49   24   25 ar
  50   24   53 1
  51   25   26 ar
  52   25   54 1
  53   27   28 1
  54   27   31 1
  55   28   29 1
  56   28   55 1
  57   28   56 1
  58   29   57 1
  59   29   58 1
  60   30   31 1
  61   30   59 1
  62   30   60 1
  63   31   61 1
  64   31   62 1
  65   32   33 3

#	End of record

