#	Name: ASD04400002
#	Creating user name:	WinNT
#	Creation time:	15. 06. 2019 20:49

#	Modifying user name:	WinNT
#	Modification time:	15. 06. 2019 20:49

#	Program:	/corina/corina34_cracker 3.40 0067  02.08.2006

@<TRIPOS>MOLECULE
ASD04400002
  78   82    0    0    0
SMALL
NO_CHARGES


@<TRIPOS>ATOM
   1 C1            -0.0184     1.5028     0.0103 C.3     
   2 C2             0.0021    -0.0041     0.0020 C.2     
   3 O3             0.0202    -0.6134     1.0444 O.2     
   4 C4            -0.0002    -0.7505    -1.3071 C.3     
   5 C5             1.4153    -0.7662    -1.8877 C.3     
   6 C6             1.3913    -1.4041    -3.2528 C.2     
   7 O7             0.3491    -1.8051    -3.7140 O.2     
   8 O8             2.5279    -1.5269    -3.9563 O.3     
   9 N9            -0.4518    -2.1262    -1.0842 N.am    
  10 C10           -1.7695    -2.4087    -1.0690 C.2     
  11 O11           -2.5814    -1.5241    -1.2399 O.2     
  12 C12           -2.2341    -3.8239    -0.8396 C.3     
  13 C13           -1.7465    -4.3126     0.5054 C.2     
  14 C14           -2.4108    -4.0979     1.6091 C.2     
  15 C15           -1.8515    -4.6204     2.9074 C.3     
  16 C16           -1.0480    -3.5163     3.5975 C.3     
  17 C17           -0.5851    -4.0053     4.9714 C.3     
  18 C18            0.2185    -2.9013     5.6616 C.3     
  19 C19            1.4384    -2.5489     4.8080 C.3     
  20 C20            0.9755    -2.0599     3.4342 C.3     
  21 C21            0.1719    -3.1639     2.7440 C.3     
  22 C22           -3.7206    -3.3433     1.6306 C.3     
  23 N23           -4.4194    -3.6369     0.3761 N.am    
  24 N24           -3.6990    -3.8700    -0.8209 N.am    
  25 C25           -4.5932    -4.1065    -1.7794 C.2     
  26 O26           -4.3432    -4.3491    -2.9438 O.2     
  27 N27           -5.8265    -4.0303    -1.2322 N.am    
  28 C28           -7.0870    -4.2278    -1.9524 C.3     
  29 C29           -7.4782    -5.7060    -1.8997 C.3     
  30 N30           -8.7386    -5.9035    -2.6199 N.am    
  31 C31           -9.2799    -7.1348    -2.7057 C.2     
  32 O32           -8.7223    -8.0816    -2.1855 O.2     
  33 C33          -10.5505    -7.3338    -3.4316 C.ar    
  34 C34          -11.1914    -6.2413    -4.0303 C.ar    
  35 C35          -12.3661    -6.4123    -4.7035 C.ar    
  36 C36          -12.9376    -7.6759    -4.8006 C.ar    
  37 N37          -14.0825    -8.1633    -5.3928 N.pl3   
  38 C38          -14.1242    -9.5029    -5.1562 C.2     
  39 N39          -13.0865    -9.8675    -4.4620 N.2     
  40 C40          -12.3072    -8.7844    -4.2057 C.ar    
  41 C41          -11.1047    -8.6070    -3.5238 C.ar    
  42 C42           -5.7144    -3.7442     0.0838 C.2     
  43 O43           -6.6356    -3.6073     0.8649 O.2     
  44 H44            1.0042     1.8801     0.0026 H       
  45 H45           -0.5455     1.8639    -0.8728 H       
  46 H46           -0.5286     1.8543     0.9071 H       
  47 H47           -0.6742    -0.2556    -2.0064 H       
  48 H48            1.7853     0.2557    -1.9707 H       
  49 H49            2.0711    -1.3378    -1.2310 H       
  50 H50            2.4626    -1.9427    -4.8269 H       
  51 H51            0.1976    -2.8337    -0.9475 H       
  52 H52           -1.8524    -4.4712    -1.6292 H       
  53 H53           -0.8162    -4.8590     0.5552 H       
  54 H54           -2.6699    -4.9335     3.5556 H       
  55 H55           -1.2011    -5.4716     2.7064 H       
  56 H56           -1.6744    -2.6325     3.7185 H       
  57 H57           -1.4542    -4.2564     5.5795 H       
  58 H58            0.0413    -4.8891     4.8504 H       
  59 H59           -0.4079    -2.0175     5.7826 H       
  60 H60            0.5482    -3.2497     6.6403 H       
  61 H61            2.0108    -1.7623     5.2997 H       
  62 H62            2.0648    -3.4327     4.6871 H       
  63 H63            0.3491    -1.1761     3.5552 H       
  64 H64            1.8446    -1.8088     2.8261 H       
  65 H65            0.7983    -4.0477     2.6230 H       
  66 H66           -0.1578    -2.8155     1.7652 H       
  67 H67           -4.3240    -3.6733     2.4763 H       
  68 H68           -3.5299    -2.2728     1.7063 H       
  69 H69           -7.8692    -3.6281    -1.4869 H       
  70 H70           -6.9638    -3.9213    -2.9911 H       
  71 H71           -6.6960    -6.3057    -2.3652 H       
  72 H72           -7.6014    -6.0125    -0.8610 H       
  73 H73           -9.1836    -5.1481    -3.0349 H       
  74 H74          -10.7530    -5.2570    -3.9583 H       
  75 H75          -12.8530    -5.5640    -5.1615 H       
  76 H76          -14.7381    -7.6467    -5.8869 H       
  77 H77          -14.9057   -10.1667    -5.4954 H       
  78 H78          -10.6090    -9.4505    -3.0664 H       
@<TRIPOS>BOND
   1    1    2 1
   2    1   44 1
   3    1   45 1
   4    1   46 1
   5    2    3 2
   6    2    4 1
   7    4    5 1
   8    4    9 1
   9    4   47 1
  10    5    6 1
  11    5   48 1
  12    5   49 1
  13    6    7 2
  14    6    8 1
  15    8   50 1
  16    9   10 am
  17    9   51 1
  18   10   11 2
  19   10   12 1
  20   12   13 1
  21   12   24 1
  22   12   52 1
  23   13   14 2
  24   13   53 1
  25   14   15 1
  26   14   22 1
  27   15   16 1
  28   15   54 1
  29   15   55 1
  30   16   17 1
  31   16   21 1
  32   16   56 1
  33   17   18 1
  34   17   57 1
  35   17   58 1
  36   18   19 1
  37   18   59 1
  38   18   60 1
  39   19   20 1
  40   19   61 1
  41   19   62 1
  42   20   21 1
  43   20   63 1
  44   20   64 1
  45   21   65 1
  46   21   66 1
  47   22   23 1
  48   22   67 1
  49   22   68 1
  50   23   24 1
  51   23   42 am
  52   24   25 am
  53   25   26 2
  54   25   27 am
  55   27   28 1
  56   27   42 am
  57   28   29 1
  58   28   69 1
  59   28   70 1
  60   29   30 1
  61   29   71 1
  62   29   72 1
  63   30   31 am
  64   30   73 1
  65   31   32 2
  66   31   33 1
  67   33   34 ar
  68   33   41 ar
  69   34   35 ar
  70   34   74 1
  71   35   36 ar
  72   35   75 1
  73   36   37 1
  74   36   40 ar
  75   37   38 1
  76   37   76 1
  77   38   39 2
  78   38   77 1
  79   39   40 1
  80   40   41 ar
  81   41   78 1
  82   42   43 2

#	End of record

