#	Name: ASD03091568
#	Creating user name:	WinNT
#	Creation time:	15. 06. 2019 20:31

#	Modifying user name:	WinNT
#	Modification time:	15. 06. 2019 20:31

#	Program:	/corina/corina34_cracker 3.40 0067  02.08.2006

@<TRIPOS>MOLECULE
ASD03091568
  41   43    0    0    0
SMALL
NO_CHARGES


@<TRIPOS>ATOM
   1 C1            -0.0195     1.3497     0.0164 C.2     
   2 C2            -0.0036     0.0113     0.1886 C.2     
   3 N3            -1.1902    -0.5545     0.1446 N.2     
   4 C4            -2.2099     0.2254    -0.0548 C.2     
   5 S5            -1.6948     1.8486    -0.2036 S.3     
   6 N6            -3.5248    -0.1965    -0.1298 N.3     
   7 C7            -3.6218    -1.6527     0.0470 C.3     
   8 C8            -4.3602     0.5047     0.8560 C.3     
   9 C9            -5.8143     0.0525     0.6985 C.3     
  10 O10           -5.8846    -1.3687     0.8424 O.3     
  11 C11           -5.0833    -2.0833    -0.1023 C.3     
  12 C12           -5.2026    -3.5860     0.1598 C.3     
  13 C13           -6.6757     0.7181     1.7736 C.3     
  14 C14            1.1582     2.2393     0.0183 C.ar    
  15 C15            2.2828     1.9473    -0.7651 C.ar    
  16 C16            1.1808     3.4028     0.7990 C.ar    
  17 C17            2.3010     4.2047     0.7700 C.ar    
  18 N18            3.3414     3.8897     0.0207 N.ar    
  19 C19            3.3601     2.8060    -0.7331 C.ar    
  20 C20            1.2662    -0.7689     0.4125 C.3     
  21 N21            1.6149    -0.7377     1.8392 N.3     
  22 H22           -3.0161    -2.1523    -0.7090 H       
  23 H23           -3.2622    -1.9236     1.0397 H       
  24 H24           -4.0124     0.2684     1.8616 H       
  25 H25           -4.2934     1.5800     0.6904 H       
  26 H26           -6.1790     0.3368    -0.2886 H       
  27 H27           -5.4268    -1.8611    -1.1127 H       
  28 H28           -6.2439    -3.8912     0.0571 H       
  29 H29           -4.5917    -4.1301    -0.5605 H       
  30 H30           -4.8571    -3.8072     1.1697 H       
  31 H31           -6.6186     1.8013     1.6658 H       
  32 H32           -7.7108     0.3957     1.6610 H       
  33 H33           -6.3112     0.4315     2.7601 H       
  34 H34            2.3050     1.0626    -1.3842 H       
  35 H35            0.3331     3.6671     1.4137 H       
  36 H36            2.3282     5.1035     1.3681 H       
  37 H37            4.2332     2.5874    -1.3300 H       
  38 H38            1.1184    -1.8017     0.0971 H       
  39 H39            2.0736    -0.3234    -0.1686 H       
  40 H40            2.4635    -1.2544     2.0154 H       
  41 H41            1.6940     0.2117     2.1715 H       
@<TRIPOS>BOND
   1    1    2 2
   2    1   14 1
   3    1    5 1
   4    2    3 1
   5    2   20 1
   6    3    4 2
   7    4    5 1
   8    4    6 1
   9    6    7 1
  10    6    8 1
  11    7   11 1
  12    7   22 1
  13    7   23 1
  14    8    9 1
  15    8   24 1
  16    8   25 1
  17    9   10 1
  18    9   13 1
  19    9   26 1
  20   10   11 1
  21   11   12 1
  22   11   27 1
  23   12   28 1
  24   12   29 1
  25   12   30 1
  26   13   31 1
  27   13   32 1
  28   13   33 1
  29   14   15 ar
  30   14   16 ar
  31   15   19 ar
  32   15   34 1
  33   16   17 ar
  34   16   35 1
  35   17   18 ar
  36   17   36 1
  37   18   19 ar
  38   19   37 1
  39   20   21 1
  40   20   38 1
  41   20   39 1
  42   21   40 1
  43   21   41 1

#	End of record

