#	Name: ASD00111092
#	Creating user name:	WinNT
#	Creation time:	15. 06. 2019 18:30

#	Modifying user name:	WinNT
#	Modification time:	15. 06. 2019 18:30

#	Program:	/corina/corina34_cracker 3.40 0067  02.08.2006

@<TRIPOS>MOLECULE
ASD00111092
  38   38    0    0    0
SMALL
NO_CHARGES


@<TRIPOS>ATOM
   1 C1             0.0861     1.5123     0.0324 C.2     
   2 C2             0.2930     0.0200     0.0687 C.3     
   3 C3             1.7644    -0.2860    -0.0428 C.ar    
   4 C4             2.3829    -0.2649    -1.2800 C.ar    
   5 C5             3.7331    -0.5449    -1.3853 C.ar    
   6 C6             4.4673    -0.8464    -0.2544 C.ar    
   7 C7             3.8492    -0.8682     0.9872 C.ar    
   8 C8             2.4955    -0.5818     1.0910 C.ar    
   9 O9             1.0428     2.2563     0.0011 O.2     
  10 N10           -1.1625     2.0197     0.0293 N.am    
  11 O11            4.5695    -1.1646     2.1009 O.3     
  12 C12            5.9592    -1.4436     1.9196 C.3     
  13 I13            1.2724     0.1914    -2.9969 I       
  14 C14           -2.2254     1.1936    -0.0358 C.2     
  15 O15           -2.0593     0.0036    -0.1971 O.2     
  16 C16           -3.6204     1.7491     0.0919 C.3     
  17 F17           -4.5424     0.6970     0.1003 F       
  18 F18           -3.7270     2.4722     1.2848 F       
  19 F19           -3.8868     2.5940    -0.9909 F       
  20 C20           -1.3643     3.4692     0.0966 C.3     
  21 C21           -1.4014     4.0365    -1.2990 C.2     
  22 C22           -2.4271     4.7525    -1.6880 C.2     
  23 C23           -2.4642     5.3199    -3.0836 C.3     
  24 H24           -0.0906    -0.3772     1.0085 H       
  25 H25           -0.2381    -0.4407    -0.7642 H       
  26 H26            4.2139    -0.5281    -2.3522 H       
  27 H27            5.5217    -1.0654    -0.3370 H       
  28 H28            2.0132    -0.5938     2.0572 H       
  29 H29            6.0741    -2.3031     1.2592 H       
  30 H30            6.4490    -0.5767     1.4761 H       
  31 H31            6.4146    -1.6638     2.8851 H       
  32 H32           -2.3073     3.6817     0.6003 H       
  33 H33           -0.5448     3.9247     0.6524 H       
  34 H34           -0.5823     3.8529    -1.9785 H       
  35 H35           -3.2463     4.9362    -1.0085 H       
  36 H36           -1.6105     5.9818    -3.2295 H       
  37 H37           -2.4211     4.5064    -3.8078 H       
  38 H38           -3.3877     5.8818    -3.2230 H       
@<TRIPOS>BOND
   1    1    2 1
   2    1    9 2
   3    1   10 am
   4    2    3 1
   5    2   24 1
   6    2   25 1
   7    3    4 ar
   8    3    8 ar
   9    4    5 ar
  10    4   13 1
  11    5    6 ar
  12    5   26 1
  13    6    7 ar
  14    6   27 1
  15    7    8 ar
  16    7   11 1
  17    8   28 1
  18   10   14 am
  19   10   20 1
  20   11   12 1
  21   12   29 1
  22   12   30 1
  23   12   31 1
  24   14   15 2
  25   14   16 1
  26   16   17 1
  27   16   18 1
  28   16   19 1
  29   20   21 1
  30   20   32 1
  31   20   33 1
  32   21   22 2
  33   21   34 1
  34   22   23 1
  35   22   35 1
  36   23   36 1
  37   23   37 1
  38   23   38 1

#	End of record

