#	Name: ASD03240642
#	Creating user name:	WinNT
#	Creation time:	15. 06. 2019 20:35

#	Modifying user name:	WinNT
#	Modification time:	15. 06. 2019 20:35

#	Program:	/corina/corina34_cracker 3.40 0067  02.08.2006

@<TRIPOS>MOLECULE
ASD03240642
  73   80    0    0    0
SMALL
NO_CHARGES


@<TRIPOS>ATOM
   1 C1             0.0465     1.1673    -0.2559 C.ar    
   2 C2             0.1302    -0.2075    -0.3365 C.ar    
   3 N3             1.2997    -0.8186    -0.3306 N.ar    
   4 C4             2.4406    -0.1477    -0.2467 C.ar    
   5 C5             2.4311     1.2440    -0.1765 C.ar    
   6 C6             1.2145     1.9140    -0.1746 C.ar    
   7 N7             3.6403    -0.8528    -0.2092 N.pl3   
   8 C8             4.4679    -0.7870     0.9085 C.ar    
   9 C9             5.0335     0.4300     1.3037 C.ar    
  10 C10            4.7805     1.6576     0.5179 C.2     
  11 N11            3.6219     1.9824    -0.1258 N.pl3   
  12 C12            4.7342    -1.9362     1.6408 C.ar    
  13 C13            5.5449    -1.8723     2.7580 C.ar    
  14 C14            6.0954    -0.6666     3.1570 C.ar    
  15 C15            5.8447     0.4840     2.4369 C.ar    
  16 N16            5.6588     2.6222     0.3295 N.2     
  17 C17            5.1175     3.5858    -0.4314 C.2     
  18 C18            3.8227     3.2047    -0.7372 C.2     
  19 C19            2.8498     3.9550    -1.5542 C.ar    
  20 C20            2.6810     5.3281    -1.3591 C.ar    
  21 C21            2.0976     3.2967    -2.5302 C.ar    
  22 C22            1.1899     4.0035    -3.2913 C.ar    
  23 C23            1.0225     5.3619    -3.0909 C.ar    
  24 C24            1.7687     6.0239    -2.1282 C.ar    
  25 C25            5.7860     4.8341    -0.8661 C.ar    
  26 C26            0.0287     6.1267    -3.9267 C.3     
  27 C27            6.6925     5.4727    -0.0193 C.ar    
  28 N28           -1.2097     6.4359    -3.1997 N.3     
  29 C29            0.6369     7.3392    -4.6511 C.3     
  30 C30           -0.2302     6.9522    -5.8607 C.3     
  31 C31           -0.2076     5.5138    -5.3172 C.3     
  32 C32            7.3136     6.6340    -0.4265 C.ar    
  33 C33            7.0374     7.1689    -1.6795 C.ar    
  34 C34            6.1342     6.5349    -2.5250 C.ar    
  35 C35            5.5147     5.3703    -2.1251 C.ar    
  36 N36            7.6680     8.3455    -2.0894 N.3     
  37 C37            7.2343     8.7328    -3.4397 C.3     
  38 C38            9.1305     8.2070    -2.0317 C.3     
  39 C39            9.7795     9.5349    -2.4308 C.3     
  40 O40            9.3222     9.9111    -3.7327 O.3     
  41 C41            7.9023    10.0554    -3.8246 C.3     
  42 F42            1.5995     7.3507    -1.9383 F       
  43 H43           -0.9160     1.6572    -0.2605 H       
  44 H44           -0.7751    -0.7923    -0.4051 H       
  45 H45            1.1778     2.9915    -0.1116 H       
  46 H46            3.9021    -1.3957    -0.9692 H       
  47 H47            4.3078    -2.8807     1.3367 H       
  48 H48            5.7500    -2.7691     3.3239 H       
  49 H49            6.7232    -0.6260     4.0349 H       
  50 H50            6.2752     1.4236     2.7504 H       
  51 H51            3.2619     5.8440    -0.6089 H       
  52 H52            2.2268     2.2362    -2.6887 H       
  53 H53            0.6085     3.4949    -4.0462 H       
  54 H54            6.9071     5.0577     0.9544 H       
  55 H55           -1.5874     5.6095    -2.7609 H       
  56 H56           -1.0581     7.1679    -2.5220 H       
  57 H57            0.3636     8.2959    -4.2061 H       
  58 H58            1.7075     7.2467    -4.8339 H       
  59 H59           -1.2207     7.4070    -5.8512 H       
  60 H60            0.2795     7.0655    -6.8175 H       
  61 H61            0.6321     4.9223    -5.6821 H       
  62 H62           -1.1627     4.9969    -5.4099 H       
  63 H63            8.0151     7.1289     0.2288 H       
  64 H64            5.9212     6.9528    -3.4979 H       
  65 H65            4.8134     4.8779    -2.7825 H       
  66 H66            7.5229     7.9587    -4.1507 H       
  67 H67            6.1512     8.8546    -3.4531 H       
  68 H68            9.4315     7.9451    -1.0174 H       
  69 H69            9.4494     7.4246    -2.7203 H       
  70 H70            9.5034    10.3058    -1.7113 H       
  71 H71           10.8634     9.4206    -2.4448 H       
  72 H72            7.6286    10.3175    -4.8466 H       
  73 H73            7.5717    10.8414    -3.1456 H       
@<TRIPOS>BOND
   1    1    2 ar
   2    1    6 ar
   3    1   43 1
   4    2    3 ar
   5    2   44 1
   6    3    4 ar
   7    4    5 ar
   8    4    7 1
   9    5    6 ar
  10    5   11 1
  11    6   45 1
  12    7    8 1
  13    7   46 1
  14    8    9 ar
  15    8   12 ar
  16    9   10 1
  17    9   15 ar
  18   10   11 1
  19   10   16 2
  20   11   18 1
  21   12   13 ar
  22   12   47 1
  23   13   14 ar
  24   13   48 1
  25   14   15 ar
  26   14   49 1
  27   15   50 1
  28   16   17 1
  29   17   18 2
  30   17   25 1
  31   18   19 1
  32   19   20 ar
  33   19   21 ar
  34   20   24 ar
  35   20   51 1
  36   21   22 ar
  37   21   52 1
  38   22   23 ar
  39   22   53 1
  40   23   24 ar
  41   23   26 1
  42   24   42 1
  43   25   27 ar
  44   25   35 ar
  45   26   29 1
  46   26   28 1
  47   26   31 1
  48   27   32 ar
  49   27   54 1
  50   28   55 1
  51   28   56 1
  52   29   30 1
  53   29   57 1
  54   29   58 1
  55   30   31 1
  56   30   59 1
  57   30   60 1
  58   31   61 1
  59   31   62 1
  60   32   33 ar
  61   32   63 1
  62   33   34 ar
  63   33   36 1
  64   34   35 ar
  65   34   64 1
  66   35   65 1
  67   36   37 1
  68   36   38 1
  69   37   41 1
  70   37   66 1
  71   37   67 1
  72   38   39 1
  73   38   68 1
  74   38   69 1
  75   39   40 1
  76   39   70 1
  77   39   71 1
  78   40   41 1
  79   41   72 1
  80   41   73 1

#	End of record

