#	Name: ASD01811658
#	Creating user name:	WinNT
#	Creation time:	15. 06. 2019 19:27

#	Modifying user name:	WinNT
#	Modification time:	15. 06. 2019 19:27

#	Program:	/corina/corina34_cracker 3.40 0067  02.08.2006

@<TRIPOS>MOLECULE
ASD01811658
  58   63    0    0    0
SMALL
NO_CHARGES


@<TRIPOS>ATOM
   1 C1            -0.0167     1.3788     0.0096 C.ar    
   2 C2             0.0021    -0.0041     0.0020 C.ar    
   3 C3             1.2018    -0.6844    -0.0131 C.ar    
   4 C4             2.4052     0.0176    -0.0209 C.ar    
   5 C5             2.3739     1.4082    -0.0130 C.ar    
   6 C6             1.1740     2.0836     0.0020 C.ar    
   7 N7             3.7257    -0.4355    -0.0360 N.am    
   8 C8             4.6108     0.5785    -0.0388 C.2     
   9 C9             3.8107     1.8558    -0.0240 C.3     
  10 N10            4.1054     2.6811    -1.2010 N.3     
  11 C11            4.5753     4.0050    -0.7338 C.3     
  12 C12            5.1287     3.7491     0.6909 C.3     
  13 C13            4.1345     2.6844     1.2291 C.3     
  14 C14            2.9210     2.8158    -2.0594 C.3     
  15 O15            5.8199     0.4827    -0.0501 O.2     
  16 C16            4.1041    -1.8507    -0.0475 C.3     
  17 C17            4.2209    -2.3279    -1.4722 C.ar    
  18 C18            5.4346    -2.2362    -2.1336 C.ar    
  19 C19            5.5470    -2.6724    -3.4403 C.ar    
  20 C20            4.4357    -3.2057    -4.0929 C.ar    
  21 C21            3.2159    -3.2958    -3.4225 C.ar    
  22 C22            3.1155    -2.8620    -2.1141 C.ar    
  23 F23            1.9346    -2.9487    -1.4636 F       
  24 F24            6.5102    -1.7191    -1.5004 F       
  25 C25            4.5503    -3.6741    -5.4929 C.ar    
  26 C26            4.0646    -4.9996    -5.8798 C.ar    
  27 C27            4.2044    -5.4115    -7.2852 C.ar    
  28 C28            4.7992    -4.5134    -8.1965 C.ar    
  29 C29            5.2321    -3.2974    -7.7816 C.ar    
  30 C30            5.1123    -2.8677    -6.4625 C.ar    
  31 C31            3.4616    -6.0482    -5.2205 C.2     
  32 N32            3.2411    -7.0245    -6.1131 N.pl3   
  33 N33            3.6982    -6.6283    -7.3754 N.2     
  34 C34            2.6152    -8.3143    -5.8118 C.3     
  35 H35           -0.9585     1.9073     0.0170 H       
  36 H36           -0.9274    -0.5540     0.0083 H       
  37 H37            1.2084    -1.7644    -0.0187 H       
  38 H38            1.1623     3.1636     0.0079 H       
  39 H39            5.3647     4.3792    -1.3858 H       
  40 H40            3.7456     4.7110    -0.6974 H       
  41 H41            6.1425     3.3509     0.6501 H       
  42 H42            5.0916     4.6571     1.2928 H       
  43 H43            3.2350     3.1592     1.6210 H       
  44 H44            4.6078     2.0642     1.9903 H       
  45 H45            2.1153     3.2860    -1.4957 H       
  46 H46            3.1672     3.4320    -2.9242 H       
  47 H47            2.6017     1.8292    -2.3954 H       
  48 H48            5.0624    -1.9747     0.4569 H       
  49 H49            3.3429    -2.4346     0.4700 H       
  50 H50            6.4936    -2.6002    -3.9552 H       
  51 H51            2.3524    -3.7076    -3.9237 H       
  52 H52            4.9109    -4.7970    -9.2326 H       
  53 H53            5.6836    -2.6336    -8.5040 H       
  54 H54            5.4753    -1.8876    -6.1902 H       
  55 H55            3.2109    -6.0787    -4.1704 H       
  56 H56            1.5363    -8.2348    -5.9457 H       
  57 H57            3.0096    -9.0757    -6.4847 H       
  58 H58            2.8338    -8.5922    -4.7807 H       
@<TRIPOS>BOND
   1    1    2 ar
   2    1    6 ar
   3    1   35 1
   4    2    3 ar
   5    2   36 1
   6    3    4 ar
   7    3   37 1
   8    4    5 ar
   9    4    7 1
  10    5    6 ar
  11    5    9 1
  12    6   38 1
  13    7    8 am
  14    7   16 1
  15    8    9 1
  16    8   15 2
  17    9   10 1
  18    9   13 1
  19   10   11 1
  20   10   14 1
  21   11   12 1
  22   11   39 1
  23   11   40 1
  24   12   13 1
  25   12   41 1
  26   12   42 1
  27   13   43 1
  28   13   44 1
  29   14   45 1
  30   14   46 1
  31   14   47 1
  32   16   17 1
  33   16   48 1
  34   16   49 1
  35   17   18 ar
  36   17   22 ar
  37   18   19 ar
  38   18   24 1
  39   19   20 ar
  40   19   50 1
  41   20   21 ar
  42   20   25 1
  43   21   22 ar
  44   21   51 1
  45   22   23 1
  46   25   26 ar
  47   25   30 ar
  48   26   27 ar
  49   26   31 2
  50   27   28 ar
  51   27   33 2
  52   28   29 ar
  53   28   52 1
  54   29   30 ar
  55   29   53 1
  56   30   54 1
  57   31   32 1
  58   31   55 1
  59   32   33 1
  60   32   34 1
  61   34   56 1
  62   34   57 1
  63   34   58 1

#	End of record

