#	Name: ASD01030035
#	Creating user name:	WinNT
#	Creation time:	15. 06. 2019 18:58

#	Modifying user name:	WinNT
#	Modification time:	15. 06. 2019 18:58

#	Program:	/corina/corina34_cracker 3.40 0067  02.08.2006

@<TRIPOS>MOLECULE
ASD01030035
  43   43    0    0    0
SMALL
NO_CHARGES


@<TRIPOS>ATOM
   1 C1             0.8002     1.0300    -0.7613 C.ar    
   2 C2             0.9324    -0.3450    -0.8074 C.ar    
   3 C3             2.1939    -0.9278    -0.7186 C.ar    
   4 C4             3.3254    -0.1276    -0.5832 C.ar    
   5 C5             3.1991     1.2479    -0.5366 C.ar    
   6 C6             1.9342     1.8356    -0.6255 C.ar    
   7 O7            -0.1707    -1.1295    -0.9391 O.3     
   8 O8             2.3209    -2.2799    -0.7637 O.3     
   9 O9             4.5560    -0.7002    -0.4963 O.3     
  10 C10            5.6730     0.1804    -0.3589 C.3     
  11 C11           -1.4330    -0.4651    -1.0240 C.3     
  12 C12            1.7963     3.3030    -0.5760 C.2     
  13 O13            0.6960     3.8128    -0.6534 O.2     
  14 O14            2.8904     4.0786    -0.4450 O.3     
  15 C15            2.6795     5.5145    -0.4035 C.3     
  16 C16            4.0267     6.2238    -0.2526 C.3     
  17 C17            3.8044     7.7369    -0.2088 C.3     
  18 C18            5.1517     8.4462    -0.0578 C.3     
  19 N19            4.9389     9.8950    -0.0159 N.2     
  20 C20            5.2116    10.5626     1.0698 C.2     
  21 N21            5.5744     9.8941     2.2150 N.pl3   
  22 N22            5.1364    11.9354     1.0698 N.pl3   
  23 H23           -0.1780     1.4817    -0.8347 H       
  24 H24            4.0770     1.8680    -0.4312 H       
  25 H25            2.4365    -2.6346    -1.6558 H       
  26 H26            5.7197     0.8454    -1.2212 H       
  27 H27            5.5601     0.7713     0.5500 H       
  28 H28            6.5913    -0.4040    -0.3006 H       
  29 H29           -1.5967     0.1210    -0.1197 H       
  30 H30           -1.4382     0.1955    -1.8910 H       
  31 H31           -2.2269    -1.2049    -1.1262 H       
  32 H32            2.2000     5.8382    -1.3273 H       
  33 H33            2.0408     5.7636     0.4440 H       
  34 H34            4.5062     5.9001     0.6712 H       
  35 H35            4.6654     5.9747    -1.1000 H       
  36 H36            3.3249     8.0606    -1.1326 H       
  37 H37            3.1658     7.9860     0.6387 H       
  38 H38            5.6312     8.1225     0.8660 H       
  39 H39            5.7904     8.1971    -0.9053 H       
  40 H40            5.4980     8.9280     2.2575 H       
  41 H41            5.9069    10.3884     2.9805 H       
  42 H42            4.8804    12.4071     0.2618 H       
  43 H43            5.3394    12.4322     1.8778 H       
@<TRIPOS>BOND
   1    1    2 ar
   2    1    6 ar
   3    1   23 1
   4    2    3 ar
   5    2    7 1
   6    3    4 ar
   7    3    8 1
   8    4    5 ar
   9    4    9 1
  10    5    6 ar
  11    5   24 1
  12    6   12 1
  13    7   11 1
  14    8   25 1
  15    9   10 1
  16   10   26 1
  17   10   27 1
  18   10   28 1
  19   11   29 1
  20   11   30 1
  21   11   31 1
  22   12   13 2
  23   12   14 1
  24   14   15 1
  25   15   16 1
  26   15   32 1
  27   15   33 1
  28   16   17 1
  29   16   34 1
  30   16   35 1
  31   17   18 1
  32   17   36 1
  33   17   37 1
  34   18   19 1
  35   18   38 1
  36   18   39 1
  37   19   20 2
  38   20   21 1
  39   20   22 1
  40   21   40 1
  41   21   41 1
  42   22   42 1
  43   22   43 1

#	End of record

