#	Name: ASD01901275
#	Creating user name:	WinNT
#	Creation time:	15. 06. 2019 19:53

#	Modifying user name:	WinNT
#	Modification time:	15. 06. 2019 19:53

#	Program:	/corina/corina34_cracker 3.40 0067  02.08.2006

@<TRIPOS>MOLECULE
ASD01901275
  52   55    0    0    0
SMALL
NO_CHARGES


@<TRIPOS>ATOM
   1 C1             0.9047     0.3073     0.3815 C.ar    
   2 C2             0.8516    -1.0706     0.3568 C.ar    
   3 C3             2.0204    -1.8114     0.3435 C.ar    
   4 C4             3.2500    -1.1767     0.3553 C.ar    
   5 C5             3.3188     0.2005     0.3800 C.ar    
   6 C6             2.1428     0.9552     0.3931 C.ar    
   7 C7             2.2061     2.3856     0.4188 C.1     
   8 C8             2.2580     3.5583     0.4398 C.1     
   9 C9             2.3213     4.9886     0.4655 C.ar    
  10 C10            1.2097     7.1190     0.5094 C.ar    
  11 C11            1.1440     5.7420     0.4848 C.ar    
  12 C12            3.5609     5.6353     0.4771 C.ar    
  13 C13            3.6179     7.0115     0.5017 C.ar    
  14 C14            2.4453     7.7578     0.5155 C.ar    
  15 N15            2.5081     9.1564     0.5401 N.am    
  16 N16            2.6090    11.1315     1.8255 N.am    
  17 C17            2.5481     9.7928     1.7211 C.2     
  18 C18            2.5328     9.8389    -0.6252 C.2     
  19 C19            2.6331    11.9287     0.6903 C.ar    
  20 C20            2.6493    11.7548     3.1507 C.3     
  21 O21            2.5009     9.2544    -1.6911 O.2     
  22 Cl22          -0.2512     8.0564     0.5329 Cl      
  23 O23            2.5280     9.1301     2.7402 O.2     
  24 C24            2.5990    11.3099    -0.5716 C.ar    
  25 C25            2.6964    13.3111     0.7746 C.ar    
  26 C26            2.6283    12.0847    -1.7289 C.ar    
  27 C27            2.6909    13.4584    -1.6252 C.ar    
  28 C28            2.7249    14.0675    -0.3800 C.ar    
  29 C29            2.7405    13.9854     2.1216 C.3     
  30 C30            4.1972    14.1866     2.5438 C.3     
  31 C31            2.0423    15.3440     2.0350 C.3     
  32 H32           -0.0083     0.8842     0.3874 H       
  33 H33           -0.1046    -1.5728     0.3481 H       
  34 H34            1.9726    -2.8901     0.3241 H       
  35 H35            4.1580    -1.7614     0.3455 H       
  36 H36            4.2792     0.6944     0.3896 H       
  37 H37            0.1845     5.2462     0.4801 H       
  38 H38            4.4727     5.0566     0.4670 H       
  39 H39            4.5752     7.5113     0.5106 H       
  40 H40            2.9905    11.0252     3.8851 H       
  41 H41            3.3358    12.6013     3.1333 H       
  42 H42            1.6516    12.1017     3.4195 H       
  43 H43            2.6027    11.6131    -2.7002 H       
  44 H44            2.7138    14.0636    -2.5194 H       
  45 H45            2.7738    15.1443    -0.3127 H       
  46 H46            2.2319    13.3618     2.8569 H       
  47 H47            4.7058    14.8102     1.8086 H       
  48 H48            4.2291    14.6743     3.5181 H       
  49 H49            4.6946    13.2186     2.6056 H       
  50 H50            2.5508    15.9676     1.2997 H       
  51 H51            1.0045    15.2007     1.7342 H       
  52 H52            2.0742    15.8317     3.0093 H       
@<TRIPOS>BOND
   1    1    2 ar
   2    1    6 ar
   3    1   32 1
   4    2    3 ar
   5    2   33 1
   6    3    4 ar
   7    3   34 1
   8    4    5 ar
   9    4   35 1
  10    5    6 ar
  11    5   36 1
  12    6    7 1
  13    7    8 3
  14    8    9 1
  15    9   12 ar
  16    9   11 ar
  17   10   11 ar
  18   10   14 ar
  19   10   22 1
  20   11   37 1
  21   12   13 ar
  22   12   38 1
  23   13   14 ar
  24   13   39 1
  25   14   15 1
  26   15   18 am
  27   15   17 am
  28   16   17 am
  29   16   19 1
  30   16   20 1
  31   17   23 2
  32   18   24 1
  33   18   21 2
  34   19   24 ar
  35   19   25 ar
  36   20   40 1
  37   20   41 1
  38   20   42 1
  39   24   26 ar
  40   25   28 ar
  41   25   29 1
  42   26   27 ar
  43   26   43 1
  44   27   28 ar
  45   27   44 1
  46   28   45 1
  47   29   30 1
  48   29   31 1
  49   29   46 1
  50   30   47 1
  51   30   48 1
  52   30   49 1
  53   31   50 1
  54   31   51 1
  55   31   52 1

#	End of record

