#	Name: ASD04590179
#	Creating user name:	WinNT
#	Creation time:	15. 06. 2019 20:50

#	Modifying user name:	WinNT
#	Modification time:	15. 06. 2019 20:50

#	Program:	/corina/corina34_cracker 3.40 0067  02.08.2006

@<TRIPOS>MOLECULE
ASD04590179
  20   20    0    0    0
SMALL
NO_CHARGES


@<TRIPOS>ATOM
   1 N1            -0.0153     1.2805     0.0091 N.pl3   
   2 N2             0.0021    -0.0041     0.0020 N.2     
   3 C3             1.2466    -0.4395    -0.0122 C.2     
   4 C4             2.0833     0.7022    -0.0141 C.2     
   5 C5             1.2452     1.7649    -0.0004 C.2     
   6 C6             1.6839    -1.8490    -0.0239 C.2     
   7 O7             2.8687    -2.1173    -0.0363 O.2     
   8 O8             0.7692    -2.8382    -0.0210 O.3     
   9 C9             0.0945    -5.1780    -0.0277 C.3     
  10 C10            1.2714    -4.2005    -0.0331 C.3     
  11 N11            3.5631     0.7284    -0.0276 N.pl3   
  12 O12            4.1534     1.7938    -0.0276 O.2     
  13 O13            4.1906    -0.3155    -0.0388 O.2     
  14 H14           -0.8185     1.8243     0.0160 H       
  15 H15            1.5313     2.8063     0.0025 H       
  16 H16           -0.5214    -5.0100    -0.9112 H       
  17 H17            0.4715    -6.2007    -0.0368 H       
  18 H18           -0.5052    -5.0198     0.8687 H       
  19 H19            1.8711    -4.3587    -0.9295 H       
  20 H20            1.8873    -4.3685     0.8504 H       
@<TRIPOS>BOND
   1    1    2 1
   2    1    5 1
   3    1   14 1
   4    2    3 2
   5    3    4 1
   6    3    6 1
   7    4    5 2
   8    4   11 1
   9    5   15 1
  10    6    7 2
  11    6    8 1
  12    8   10 1
  13    9   10 1
  14    9   16 1
  15    9   17 1
  16    9   18 1
  17   10   19 1
  18   10   20 1
  19   11   12 2
  20   11   13 2

#	End of record

