#	Name: ASD04590701
#	Creating user name:	WinNT
#	Creation time:	15. 06. 2019 20:51

#	Modifying user name:	WinNT
#	Modification time:	15. 06. 2019 20:51

#	Program:	/corina/corina34_cracker 3.40 0067  02.08.2006

@<TRIPOS>MOLECULE
ASD04590701
  64   69    0    0    0
SMALL
NO_CHARGES


@<TRIPOS>ATOM
   1 N1             0.4213     2.0792     1.3143 N.ar    
   2 C2             0.5405     0.7604     1.2301 C.ar    
   3 N3             1.7051     0.1458     1.3600 N.ar    
   4 C4             2.8162     0.8411     1.5833 C.ar    
   5 C5             2.7230     2.2444     1.6780 C.ar    
   6 C6             1.4766     2.8458     1.5347 C.ar    
   7 N7             4.1299     0.4812     1.7552 N.pl3   
   8 C8             4.9155     1.6020     1.9617 C.ar    
   9 C9             4.0847     2.7362     1.9233 C.ar    
  10 N10           -0.5940     0.0003     0.9987 N.pl3   
  11 C11           -1.8472     0.6114     0.9612 C.ar    
  12 C12            4.6299    -0.8955     1.7249 C.3     
  13 C13            3.9509    -1.7272     2.8272 C.3     
  14 C14            6.2746     1.7841     2.1821 C.ar    
  15 N15            6.7701     2.9930     2.3513 N.ar    
  16 C16            6.0172     4.0784     2.3210 C.ar    
  17 C17            4.6578     3.9939     2.1073 C.ar    
  18 C18            3.1962    -2.8693     2.1159 C.3     
  19 C19            3.9324    -3.0257     0.7621 C.3     
  20 C20            4.2640    -1.5612     0.3822 C.3     
  21 N21           -1.9578     1.8956     1.2602 N.ar    
  22 C22           -3.1228     2.5150     1.2380 C.ar    
  23 C23           -4.2817     1.8336     0.8975 C.ar    
  24 C24           -4.2042     0.4792     0.5763 C.ar    
  25 C25           -2.9653    -0.1346     0.6045 C.ar    
  26 N26           -5.5140     2.4975     0.8771 N.3     
  27 C27           -5.3571     3.9107     1.2482 C.3     
  28 C28           -6.7099     4.6178     1.1369 C.3     
  29 N29           -7.6821     3.9507     2.0141 N.3     
  30 C30           -7.8390     2.5375     1.6430 C.3     
  31 C31           -6.4862     1.8304     1.7543 C.3     
  32 C32           -8.9752     4.6473     1.9927 C.3     
  33 C33           -9.9837     3.8770     2.8473 C.3     
  34 O34           -9.5296     3.8389     4.2017 O.3     
  35 H35            1.3727     3.9187     1.6017 H       
  36 H36           -0.5170    -0.9570     0.8626 H       
  37 H37            5.7109    -0.9030     1.8639 H       
  38 H38            4.7026    -2.1391     3.5007 H       
  39 H39            3.2495    -1.1066     3.3847 H       
  40 H40            6.9309     0.9270     2.2154 H       
  41 H41            6.4737     5.0465     2.4659 H       
  42 H42            4.0482     4.8851     2.0834 H       
  43 H43            3.2636    -3.7900     2.6954 H       
  44 H44            2.1539    -2.5948     1.9538 H       
  45 H45            4.8450    -3.6093     0.8838 H       
  46 H46            3.2789    -3.4795     0.0172 H       
  47 H47            3.3941    -1.0754    -0.0599 H       
  48 H48            5.1106    -1.5273    -0.3035 H       
  49 H49           -3.1744     3.5643     1.4881 H       
  50 H50           -5.0904    -0.0765     0.3074 H       
  51 H51           -2.8686    -1.1823     0.3610 H       
  52 H52           -4.9943     3.9793     2.2737 H       
  53 H53           -4.6421     4.3859     0.5766 H       
  54 H54           -6.6018     5.6594     1.4395 H       
  55 H55           -7.0600     4.5729     0.1056 H       
  56 H56           -8.5540     2.0623     2.3146 H       
  57 H57           -8.2018     2.4689     0.6175 H       
  58 H58           -6.5943     0.7888     1.4517 H       
  59 H59           -6.1361     1.8753     2.7856 H       
  60 H60           -8.8527     5.6534     2.3938 H       
  61 H61           -9.3389     4.7070     0.9669 H       
  62 H62          -10.9526     4.3744     2.8028 H       
  63 H63          -10.0798     2.8598     2.4675 H       
  64 H64          -10.1215     3.3649     4.8018 H       
@<TRIPOS>BOND
   1    1    2 ar
   2    1    6 ar
   3    2    3 ar
   4    2   10 1
   5    3    4 ar
   6    4    5 ar
   7    4    7 1
   8    5    6 ar
   9    5    9 1
  10    6   35 1
  11    7    8 1
  12    7   12 1
  13    8    9 ar
  14    8   14 ar
  15    9   17 ar
  16   10   11 1
  17   10   36 1
  18   11   21 ar
  19   11   25 ar
  20   12   13 1
  21   12   20 1
  22   12   37 1
  23   13   18 1
  24   13   38 1
  25   13   39 1
  26   14   15 ar
  27   14   40 1
  28   15   16 ar
  29   16   17 ar
  30   16   41 1
  31   17   42 1
  32   18   19 1
  33   18   43 1
  34   18   44 1
  35   19   20 1
  36   19   45 1
  37   19   46 1
  38   20   47 1
  39   20   48 1
  40   21   22 ar
  41   22   23 ar
  42   22   49 1
  43   23   24 ar
  44   23   26 1
  45   24   25 ar
  46   24   50 1
  47   25   51 1
  48   26   27 1
  49   26   31 1
  50   27   28 1
  51   27   52 1
  52   27   53 1
  53   28   29 1
  54   28   54 1
  55   28   55 1
  56   29   30 1
  57   29   32 1
  58   30   31 1
  59   30   56 1
  60   30   57 1
  61   31   58 1
  62   31   59 1
  63   32   33 1
  64   32   60 1
  65   32   61 1
  66   33   34 1
  67   33   62 1
  68   33   63 1
  69   34   64 1

#	End of record

