#	Name: ASD01901274
#	Creating user name:	WinNT
#	Creation time:	15. 06. 2019 19:53

#	Modifying user name:	WinNT
#	Modification time:	15. 06. 2019 19:53

#	Program:	/corina/corina34_cracker 3.40 0067  02.08.2006

@<TRIPOS>MOLECULE
ASD01901274
  50   54    0    0    0
SMALL
NO_CHARGES


@<TRIPOS>ATOM
   1 C1            -1.8620     1.7514    -0.1469 C.ar    
   2 C2            -2.0936     0.3919    -0.1603 C.ar    
   3 C3            -1.0347    -0.4947    -0.0723 C.ar    
   4 C4             0.2630    -0.0253     0.0302 C.ar    
   5 C5             0.5100     1.3315     0.0449 C.ar    
   6 C6            -0.5541     2.2329    -0.0440 C.ar    
   7 C7            -0.3056     3.6431    -0.0294 C.1     
   8 C8            -0.1019     4.7992    -0.0175 C.1     
   9 C9             0.1466     6.2094    -0.0028 C.ar    
  10 C10           -0.6756     8.4667    -0.0713 C.ar    
  11 C11           -0.9195     7.1097    -0.0857 C.ar    
  12 C12            1.4557     6.6895     0.1001 C.ar    
  13 C13            1.6909     8.0467     0.1138 C.ar    
  14 C14            0.6290     8.9394     0.0259 C.ar    
  15 N15            0.8729    10.3181     0.0398 N.am    
  16 N16            1.1325    12.2905     1.3069 N.am    
  17 C17            0.9046    10.9692     1.2130 C.2     
  18 C18            1.0772    10.9664    -1.1275 C.2     
  19 C19            1.3490    13.0532     0.1684 C.ar    
  20 C20            1.1516    12.9317     2.6240 C.3     
  21 O21            1.0514    10.3682    -2.1859 O.2     
  22 Cl22          -1.9981     9.5865    -0.1748 Cl      
  23 O23            0.7187    10.3368     2.2346 O.2     
  24 C24            1.3318    12.4171    -1.0852 C.ar    
  25 C25            1.5866    14.4171     0.2420 C.ar    
  26 C26            1.5522    13.1564    -2.2451 C.ar    
  27 C27            1.7864    14.5122    -2.1521 C.ar    
  28 C28            1.8036    15.1384    -0.9151 C.ar    
  29 C29           -0.1085    12.6565     3.4614 C.3     
  30 C30            1.9337    12.1382     3.6841 C.3     
  31 C31            0.8240    12.5226     4.6769 C.3     
  32 H32           -2.6890     2.4422    -0.2202 H       
  33 H33           -3.1038     0.0183    -0.2394 H       
  34 H34           -1.2221    -1.5583    -0.0833 H       
  35 H35            1.0844    -0.7232     0.0993 H       
  36 H36            1.5233     1.6964     0.1254 H       
  37 H37           -1.9325     6.7430    -0.1613 H       
  38 H38            2.2816     5.9970     0.1692 H       
  39 H39            2.7020     8.4179     0.1933 H       
  40 H40            1.4233    13.9862     2.5776 H       
  41 H41            1.6066    14.9128     1.2013 H       
  42 H42            1.5400    12.6713    -3.2100 H       
  43 H43            1.9578    15.0899    -3.0484 H       
  44 H44            1.9882    16.2009    -0.8562 H       
  45 H45           -0.7864    13.5079     3.5229 H       
  46 H46           -0.6154    11.7289     3.1956 H       
  47 H47            1.9851    11.0689     3.4792 H       
  48 H48            2.9045    12.5712     3.9253 H       
  49 H49            1.0069    13.4651     5.1928 H       
  50 H50            0.5453    11.7153     5.3542 H       
@<TRIPOS>BOND
   1    1    2 ar
   2    1    6 ar
   3    1   32 1
   4    2    3 ar
   5    2   33 1
   6    3    4 ar
   7    3   34 1
   8    4    5 ar
   9    4   35 1
  10    5    6 ar
  11    5   36 1
  12    6    7 1
  13    7    8 3
  14    8    9 1
  15    9   12 ar
  16    9   11 ar
  17   10   11 ar
  18   10   14 ar
  19   10   22 1
  20   11   37 1
  21   12   13 ar
  22   12   38 1
  23   13   14 ar
  24   13   39 1
  25   14   15 1
  26   15   18 am
  27   15   17 am
  28   16   17 am
  29   16   19 1
  30   16   20 1
  31   17   23 2
  32   18   24 1
  33   18   21 2
  34   19   24 ar
  35   19   25 ar
  36   20   29 1
  37   20   30 1
  38   20   40 1
  39   24   26 ar
  40   25   28 ar
  41   25   41 1
  42   26   27 ar
  43   26   42 1
  44   27   28 ar
  45   27   43 1
  46   28   44 1
  47   29   31 1
  48   29   45 1
  49   29   46 1
  50   30   31 1
  51   30   47 1
  52   30   48 1
  53   31   49 1
  54   31   50 1

#	End of record

