#	Name: ASD00069289
#	Creating user name:	WinNT
#	Creation time:	15. 06. 2019 18:29

#	Modifying user name:	WinNT
#	Modification time:	15. 06. 2019 18:29

#	Program:	/corina/corina34_cracker 3.40 0067  02.08.2006

@<TRIPOS>MOLECULE
ASD00069289
  78   80    0    0    0
SMALL
NO_CHARGES


@<TRIPOS>ATOM
   1 C1            -0.0162     1.3436     0.0094 C.2     
   2 N2             0.0021    -0.0041     0.0020 N.am    
   3 O3             1.0277     1.9654     0.0028 O.2     
   4 O4            -1.1912     2.0008     0.0186 O.3     
   5 C5            -1.2565    -0.7538     0.0100 C.3     
   6 N6             2.7231    -3.2207    -0.0371 N.3     
   7 C7             2.6964    -2.3956     1.1773 C.3     
   8 C8             1.3868    -1.6055     1.2301 C.3     
   9 C9             1.2806    -0.7192    -0.0140 C.3     
  10 C10            1.3596    -1.5981    -1.2654 C.3     
  11 C11            2.6700    -2.3884    -1.2458 C.3     
  12 C12            3.8445    -4.0538    -0.0518 C.ar    
  13 C13            3.6835    -5.4335    -0.0984 C.ar    
  14 C14            4.7892    -6.2575    -0.1125 C.ar    
  15 C15            6.0684    -5.7060    -0.0805 C.ar    
  16 C16            6.2277    -4.3228    -0.0343 C.ar    
  17 C17            5.1194    -3.5018    -0.0256 C.ar    
  18 N18            9.3330    -7.2972    -0.0930 N.pl3   
  19 N19            8.4900    -8.4141    -0.1389 N.2     
  20 C20            7.2507    -7.9991    -0.1404 C.2     
  21 C21            7.2604    -6.5916    -0.0951 C.2     
  22 C22            8.5636    -6.1895    -0.0667 C.2     
  23 C23           10.7976    -7.3266    -0.0711 C.3     
  24 O24           11.3002    -5.9898    -0.0234 O.3     
  25 C25           12.7265    -5.9057     0.0013 C.3     
  26 C26           13.1499    -4.4363     0.0517 C.3     
  27 Si27          15.0094    -4.3266     0.0839 Si      
  28 C28           15.7051    -5.1211    -1.4509 C.3     
  29 C29           15.5250    -2.5374     0.1453 C.3     
  30 C30           15.6577    -5.2116     1.5897 C.3     
  31 N31            2.3244    -6.0189    -0.1324 N.pl3   
  32 O32            2.1829    -7.2280    -0.1732 O.2     
  33 O33            1.3475    -5.2915    -0.1195 O.2     
  34 C34           -1.1349     3.4517     0.0262 C.3     
  35 C35           -0.4003     3.9401    -1.2239 C.3     
  36 C36           -2.5565     4.0172     0.0360 C.3     
  37 C37           -0.3885     3.9266     1.2745 C.3     
  38 H38           -1.5785    -0.9342    -1.0156 H       
  39 H39           -1.1084    -1.7071     0.5173 H       
  40 H40           -2.0192    -0.1778     0.5342 H       
  41 H41            2.7684    -3.0383     2.0547 H       
  42 H42            3.5380    -1.7031     1.1645 H       
  43 H43            0.5451    -2.2975     1.2568 H       
  44 H44            1.3741    -0.9814     2.1236 H       
  45 H45            2.1000    -0.0004    -0.0203 H       
  46 H46            0.5175    -2.2900    -1.2779 H       
  47 H47            1.3274    -0.9687    -2.1547 H       
  48 H48            3.5117    -1.6960    -1.2473 H       
  49 H49            2.7228    -3.0259    -2.1284 H       
  50 H50            4.6637    -7.3296    -0.1480 H       
  51 H51            7.2184    -3.8936    -0.0091 H       
  52 H52            5.2425    -2.4293     0.0061 H       
  53 H53            6.3721    -8.6264    -0.1716 H       
  54 H54            8.9156    -5.1691    -0.0297 H       
  55 H55           11.1368    -7.8739     0.8084 H       
  56 H56           11.1646    -7.8209    -0.9705 H       
  57 H57           13.1058    -6.4235     0.8823 H       
  58 H58           13.1335    -6.3705    -0.8967 H       
  59 H59           12.7706    -3.9185    -0.8293 H       
  60 H60           12.7429    -3.9715     0.9497 H       
  61 H61           15.3258    -4.6033    -2.3318 H       
  62 H62           16.7930    -5.0569    -1.4320 H       
  63 H63           15.4034    -6.1679    -1.4868 H       
  64 H64           15.1180    -2.0726     1.0432 H       
  65 H65           16.6129    -2.4732     0.1641 H       
  66 H66           15.1457    -2.0196    -0.7357 H       
  67 H67           15.3560    -6.2584     1.5538 H       
  68 H68           16.7456    -5.1474     1.6085 H       
  69 H69           15.2507    -4.7468     2.4877 H       
  70 H70           -0.9321     3.6018    -2.1132 H       
  71 H71           -0.3581     5.0293    -1.2182 H       
  72 H72            0.6125     3.5373    -1.2309 H       
  73 H73           -3.0798     3.6692     0.9266 H       
  74 H74           -2.5142     5.1064     0.0417 H       
  75 H75           -3.0883     3.6789    -0.8533 H       
  76 H76            0.6243     3.5237     1.2675 H       
  77 H77           -0.3462     5.0157     1.2802 H       
  78 H78           -0.9118     3.5786     2.1651 H       
@<TRIPOS>BOND
   1    1    2 am
   2    1    3 2
   3    1    4 1
   4    2    5 1
   5    2    9 1
   6    4   34 1
   7    5   38 1
   8    5   39 1
   9    5   40 1
  10    6    7 1
  11    6   11 1
  12    6   12 1
  13    7    8 1
  14    7   41 1
  15    7   42 1
  16    8    9 1
  17    8   43 1
  18    8   44 1
  19    9   10 1
  20    9   45 1
  21   10   11 1
  22   10   46 1
  23   10   47 1
  24   11   48 1
  25   11   49 1
  26   12   13 ar
  27   12   17 ar
  28   13   14 ar
  29   13   31 1
  30   14   15 ar
  31   14   50 1
  32   15   16 ar
  33   15   21 1
  34   16   17 ar
  35   16   51 1
  36   17   52 1
  37   18   19 1
  38   18   22 1
  39   18   23 1
  40   19   20 2
  41   20   21 1
  42   20   53 1
  43   21   22 2
  44   22   54 1
  45   23   24 1
  46   23   55 1
  47   23   56 1
  48   24   25 1
  49   25   26 1
  50   25   57 1
  51   25   58 1
  52   26   27 1
  53   26   59 1
  54   26   60 1
  55   27   28 1
  56   27   29 1
  57   27   30 1
  58   28   61 1
  59   28   62 1
  60   28   63 1
  61   29   64 1
  62   29   65 1
  63   29   66 1
  64   30   67 1
  65   30   68 1
  66   30   69 1
  67   31   32 2
  68   31   33 2
  69   34   35 1
  70   34   37 1
  71   34   36 1
  72   35   70 1
  73   35   71 1
  74   35   72 1
  75   36   73 1
  76   36   74 1
  77   36   75 1
  78   37   76 1
  79   37   77 1
  80   37   78 1

#	End of record

