#	Name: ASD01410115
#	Creating user name:	WinNT
#	Creation time:	15. 06. 2019 19:16

#	Modifying user name:	WinNT
#	Modification time:	15. 06. 2019 19:16

#	Program:	/corina/corina34_cracker 3.40 0067  02.08.2006

@<TRIPOS>MOLECULE
ASD01410115
  71   76    0    0    0
SMALL
NO_CHARGES


@<TRIPOS>ATOM
   1 C1             0.0357     1.7536    -0.5954 C.ar    
   2 C2             0.0244     0.3873    -0.9136 C.ar    
   3 C3            -1.1510    -0.2531    -1.1603 C.ar    
   4 C4            -2.3613     0.4524    -1.0974 C.ar    
   5 C5            -2.3598     1.8262    -0.7783 C.ar    
   6 C6            -1.1601     2.4688    -0.5235 C.ar    
   7 C7            -3.7121     0.0798    -1.2961 C.2     
   8 C8            -4.4805     1.1827    -1.1039 C.2     
   9 N9            -3.6742     2.2501    -0.7891 N.pl3   
  10 C10           -5.9540     1.2283    -1.2164 C.2     
  11 C11           -4.2092    -1.2962    -1.6574 C.3     
  12 C12           -3.5979    -1.7250    -2.9929 C.3     
  13 C13           -4.1026    -3.1220    -3.3597 C.3     
  14 C14           -3.6936    -4.1145    -2.2695 C.3     
  15 C15           -4.3049    -3.6858    -0.9340 C.3     
  16 C16           -3.8002    -2.2888    -0.5672 C.3     
  17 C17            1.3150     2.4346    -0.3301 C.2     
  18 O18            2.4713     1.7450    -0.3933 O.3     
  19 C19           -4.1334     3.6131    -0.5103 C.3     
  20 C20           -4.4050     3.7598     0.9648 C.2     
  21 N21           -4.8401     4.9370     1.4561 N.am    
  22 O22            1.3276     3.6181    -0.0542 O.2     
  23 O23           -4.2321     2.8185     1.7098 O.2     
  24 C24           -5.1093     5.0954     2.8917 C.3     
  25 C25           -6.5336     5.6302     3.0703 C.3     
  26 C26           -6.6980     6.9146     2.2545 C.3     
  27 C27           -6.4789     6.6101     0.7708 C.3     
  28 C28           -5.0485     6.0880     0.5670 C.3     
  29 N29           -8.0526     7.4484     2.4497 N.3     
  30 C30           -8.2294     7.9515     3.8247 C.3     
  31 C31           -8.9900     9.1453     3.2306 C.3     
  32 C32           -8.1419     8.8457     1.9866 C.3     
  33 C33           -6.8944     1.8747    -0.2921 C.2     
  34 C34           -8.1195     1.6572    -0.7977 C.2     
  35 O35           -8.0064     0.9466    -1.9301 O.3     
  36 C36           -6.7201     0.6849    -2.2014 C.2     
  37 H37            0.9542    -0.1598    -0.9634 H       
  38 H38           -1.1516    -1.3050    -1.4050 H       
  39 H39           -1.1494     3.5205    -0.2781 H       
  40 H40           -5.2956    -1.2789    -1.7440 H       
  41 H41           -3.8893    -1.0179    -3.7695 H       
  42 H42           -2.5115    -1.7423    -2.9063 H       
  43 H43           -5.1891    -3.1047    -3.4462 H       
  44 H44           -3.6672    -3.4274    -4.3111 H       
  45 H45           -4.0532    -5.1098    -2.5308 H       
  46 H46           -2.6072    -4.1318    -2.1829 H       
  47 H47           -5.3913    -3.6685    -1.0206 H       
  48 H48           -4.0135    -4.3929    -0.1574 H       
  49 H49           -2.7137    -2.3061    -0.4807 H       
  50 H50           -4.2356    -1.9833     0.3842 H       
  51 H51            3.2851     2.2348    -0.2114 H       
  52 H52           -3.3639     4.3243    -0.8105 H       
  53 H53           -5.0481     3.8098    -1.0695 H       
  54 H54           -5.0163     4.1302     3.3896 H       
  55 H55           -4.3977     5.8006     3.3213 H       
  56 H56           -7.2485     4.8844     2.7227 H       
  57 H57           -6.7128     5.8432     4.1242 H       
  58 H58           -5.9664     7.6514     2.5859 H       
  59 H59           -7.1943     5.8551     0.4448 H       
  60 H60           -6.6191     7.5205     0.1880 H       
  61 H61           -4.3344     6.8758     0.8069 H       
  62 H62           -4.9175     5.7763    -0.4692 H       
  63 H63           -8.8506     7.3068     4.4465 H       
  64 H64           -7.2934     8.2303     4.3087 H       
  65 H65          -10.0576     8.9718     3.0954 H       
  66 H66           -8.7636    10.0999     3.7058 H       
  67 H67           -7.1826     9.3631     1.9801 H       
  68 H68           -8.6889     8.9589     1.0506 H       
  69 H69           -6.6505     2.4147     0.6108 H       
  70 H70           -9.0468     1.9989    -0.3623 H       
  71 H71           -6.3543     0.1307    -3.0531 H       
@<TRIPOS>BOND
   1    1    2 ar
   2    1   17 1
   3    1    6 ar
   4    2    3 ar
   5    2   37 1
   6    3    4 ar
   7    3   38 1
   8    4    5 ar
   9    4    7 1
  10    5    6 ar
  11    5    9 1
  12    6   39 1
  13    7    8 2
  14    7   11 1
  15    8    9 1
  16    8   10 1
  17    9   19 1
  18   10   33 1
  19   10   36 2
  20   11   12 1
  21   11   16 1
  22   11   40 1
  23   12   13 1
  24   12   41 1
  25   12   42 1
  26   13   14 1
  27   13   43 1
  28   13   44 1
  29   14   15 1
  30   14   45 1
  31   14   46 1
  32   15   16 1
  33   15   47 1
  34   15   48 1
  35   16   49 1
  36   16   50 1
  37   17   18 1
  38   17   22 2
  39   18   51 1
  40   19   20 1
  41   19   52 1
  42   19   53 1
  43   20   21 am
  44   20   23 2
  45   21   24 1
  46   21   28 1
  47   24   25 1
  48   24   54 1
  49   24   55 1
  50   25   26 1
  51   25   56 1
  52   25   57 1
  53   26   27 1
  54   26   29 1
  55   26   58 1
  56   27   28 1
  57   27   59 1
  58   27   60 1
  59   28   61 1
  60   28   62 1
  61   29   30 1
  62   29   32 1
  63   30   31 1
  64   30   63 1
  65   30   64 1
  66   31   32 1
  67   31   65 1
  68   31   66 1
  69   32   67 1
  70   32   68 1
  71   33   34 2
  72   33   69 1
  73   34   35 1
  74   34   70 1
  75   35   36 1
  76   36   71 1

#	End of record

