#	Name: ASD01900650
#	Creating user name:	WinNT
#	Creation time:	15. 06. 2019 19:52

#	Modifying user name:	WinNT
#	Modification time:	15. 06. 2019 19:52

#	Program:	/corina/corina34_cracker 3.40 0067  02.08.2006

@<TRIPOS>MOLECULE
ASD01900650
  50   54    0    0    0
SMALL
NO_CHARGES


@<TRIPOS>ATOM
   1 C1            -0.0186     1.4184     0.1363 C.ar    
   2 C2            -0.0086     0.0184     0.1255 C.ar    
   3 C3             1.2006    -0.6776     0.0646 C.ar    
   4 C4             2.3945     0.0226     0.0145 C.ar    
   5 C5             2.3660     1.4260     0.0306 C.ar    
   6 O6             3.5722    -0.6342    -0.0565 O.3     
   7 C7             4.7414    -0.0181     0.1899 C.2     
   8 C8             4.8673     1.3292     0.2209 C.2     
   9 C9             3.6620     2.1483    -0.0104 C.2     
  10 C10            5.9386    -0.8461     0.4377 C.ar    
  11 N11            7.1077    -0.2481     0.6841 N.ar    
  12 C12            8.2096    -0.9180     0.9124 C.ar    
  13 C13            8.1982    -2.3239     0.9056 C.ar    
  14 C14            6.9751    -2.9983     0.6477 C.ar    
  15 C15            5.8247    -2.2274     0.4154 C.ar    
  16 C16            9.3587    -3.0750     1.1454 C.ar    
  17 C17            9.2946    -4.4358     1.1273 C.ar    
  18 C18            8.0943    -5.0968     0.8738 C.ar    
  19 C19            6.9469    -4.4014     0.6375 C.ar    
  20 C20            1.1579     2.1127     0.0893 C.ar    
  21 C21           -1.2443    -0.7034     0.1776 C.1     
  22 C22           -2.2573    -1.2951     0.2203 C.1     
  23 C23           -3.4930    -2.0168     0.2725 C.ar    
  24 C24           -3.4896    -3.4149     0.2619 C.ar    
  25 C25           -4.7065    -1.3258     0.3398 C.ar    
  26 C26           -5.8929    -2.0247     0.3897 C.ar    
  27 C27           -5.8846    -3.4137     0.3732 C.ar    
  28 C28           -4.6811    -4.1049     0.3122 C.ar    
  29 O29           -7.0568    -4.0984     0.4231 O.3     
  30 C30           -6.9762    -5.5249     0.4026 C.3     
  31 N31            3.7317     3.4377    -0.2392 N.2     
  32 O32            2.5669     4.1563    -0.6024 O.3     
  33 H33           -0.9575     1.9505     0.1774 H       
  34 H34            1.2047    -1.7576     0.0569 H       
  35 H35            5.8244     1.7924     0.4100 H       
  36 H36            9.1306    -0.3884     1.1064 H       
  37 H37            4.8743    -2.6999     0.2157 H       
  38 H38           10.2968    -2.5777     1.3427 H       
  39 H39           10.1892    -5.0119     1.3121 H       
  40 H40            8.0731    -6.1765     0.8653 H       
  41 H41            6.0231    -4.9257     0.4427 H       
  42 H42            1.1494     3.1927     0.0974 H       
  43 H43           -2.5545    -3.9531     0.2141 H       
  44 H44           -4.7140    -0.2459     0.3530 H       
  45 H45           -6.8308    -1.4917     0.4421 H       
  46 H46           -4.6797    -5.1848     0.2992 H       
  47 H47           -7.9805    -5.9462     0.4472 H       
  48 H48           -6.4871    -5.8481    -0.5164 H       
  49 H49           -6.3995    -5.8686     1.2613 H       
  50 H50            2.7171     5.1000    -0.7504 H       
@<TRIPOS>BOND
   1    1    2 ar
   2    1   20 ar
   3    1   33 1
   4    2    3 ar
   5    2   21 1
   6    3    4 ar
   7    3   34 1
   8    4    5 ar
   9    4    6 1
  10    5   20 ar
  11    5    9 1
  12    6    7 1
  13    7    8 2
  14    7   10 1
  15    8    9 1
  16    8   35 1
  17    9   31 2
  18   10   11 ar
  19   10   15 ar
  20   11   12 ar
  21   12   13 ar
  22   12   36 1
  23   13   14 ar
  24   13   16 ar
  25   14   15 ar
  26   14   19 ar
  27   15   37 1
  28   16   17 ar
  29   16   38 1
  30   17   18 ar
  31   17   39 1
  32   18   19 ar
  33   18   40 1
  34   19   41 1
  35   20   42 1
  36   21   22 3
  37   22   23 1
  38   23   24 ar
  39   23   25 ar
  40   24   28 ar
  41   24   43 1
  42   25   26 ar
  43   25   44 1
  44   26   27 ar
  45   26   45 1
  46   27   28 ar
  47   27   29 1
  48   28   46 1
  49   29   30 1
  50   30   47 1
  51   30   48 1
  52   30   49 1
  53   31   32 1
  54   32   50 1

#	End of record

