#	Name: ASD03240414
#	Creating user name:	WinNT
#	Creation time:	15. 06. 2019 20:34

#	Modifying user name:	WinNT
#	Modification time:	15. 06. 2019 20:34

#	Program:	/corina/corina34_cracker 3.40 0067  02.08.2006

@<TRIPOS>MOLECULE
ASD03240414
  40   42    0    0    0
SMALL
NO_CHARGES


@<TRIPOS>ATOM
   1 C1            -0.0688     1.4761     0.0646 C.ar    
   2 C2            -0.1573     0.0987    -0.0102 C.ar    
   3 C3             2.2788     2.5210    -2.2617 C.ar    
   4 C4             1.3902     2.9289    -1.2833 C.ar    
   5 C5             1.2781     2.1490     0.0014 C.3     
   6 C6             2.3854     3.2316    -3.4402 C.ar    
   7 C7             1.5962     4.3614    -3.6432 C.ar    
   8 C8             0.7033     4.7681    -2.6543 C.ar    
   9 C9             0.6046     4.0502    -1.4795 C.ar    
  10 C10            1.7070     5.1300    -4.9087 C.2     
  11 C11           -1.3927    -0.5193     0.0472 C.ar    
  12 C12           -2.5399     0.2397     0.1791 C.ar    
  13 C13           -2.4520     1.6186     0.2541 C.ar    
  14 C14           -1.2160     2.2367     0.1917 C.ar    
  15 C15            0.9986     6.2488    -5.2371 C.2     
  16 N16            1.3947     6.6362    -6.4662 N.pl3   
  17 N17            2.3718     5.7390    -6.9141 N.2     
  18 C18            2.5668     4.8401    -5.9859 C.2     
  19 C19            1.4293     3.1002     1.1902 C.3     
  20 C20            1.4404     2.2937     2.4904 C.3     
  21 N21            1.5856     3.2069     3.6318 N.3     
  22 Cl22          -3.8928     2.5729     0.4192 Cl      
  23 H23            0.7390    -0.4949    -0.1140 H       
  24 H24            2.8933     1.6475    -2.1015 H       
  25 H25            2.0635     1.3941     0.0379 H       
  26 H26            3.0797     2.9125    -4.2034 H       
  27 H27            0.0892     5.6433    -2.8067 H       
  28 H28           -0.0876     4.3644    -0.7123 H       
  29 H29           -1.4612    -1.5956    -0.0113 H       
  30 H30           -3.5049    -0.2431     0.2233 H       
  31 H31           -1.1468     3.3129     0.2502 H       
  32 H32            0.2551     6.7359    -4.6236 H       
  33 H33            1.0603     7.4039    -6.9559 H       
  34 H34            3.2612     4.0146    -6.0385 H       
  35 H35            2.3645     3.6523     1.0972 H       
  36 H36            0.5939     3.8002     1.2040 H       
  37 H37            0.5052     1.7416     2.5835 H       
  38 H38            2.2758     1.5937     2.4766 H       
  39 H39            0.8584     3.9064     3.6300 H       
  40 H40            1.5956     2.6980     4.5031 H       
@<TRIPOS>BOND
   1    1    2 ar
   2    1    5 1
   3    1   14 ar
   4    2   11 ar
   5    2   23 1
   6    3    4 ar
   7    3    6 ar
   8    3   24 1
   9    4    5 1
  10    4    9 ar
  11    5   19 1
  12    5   25 1
  13    6    7 ar
  14    6   26 1
  15    7    8 ar
  16    7   10 1
  17    8    9 ar
  18    8   27 1
  19    9   28 1
  20   10   15 2
  21   10   18 1
  22   11   12 ar
  23   11   29 1
  24   12   13 ar
  25   12   30 1
  26   13   14 ar
  27   13   22 1
  28   14   31 1
  29   15   16 1
  30   15   32 1
  31   16   17 1
  32   16   33 1
  33   17   18 2
  34   18   34 1
  35   19   20 1
  36   19   35 1
  37   19   36 1
  38   20   21 1
  39   20   37 1
  40   20   38 1
  41   21   39 1
  42   21   40 1

#	End of record

