#	Name: ASD01209081
#	Creating user name:	WinNT
#	Creation time:	15. 06. 2019 19:10

#	Modifying user name:	WinNT
#	Modification time:	15. 06. 2019 19:10

#	Program:	/corina/corina34_cracker 3.40 0067  02.08.2006

@<TRIPOS>MOLECULE
ASD01209081
  57   59    0    0    0
SMALL
NO_CHARGES


@<TRIPOS>ATOM
   1 C1            -0.0187     1.5258     0.0104 C.3     
   2 C2             0.0021    -0.0041     0.0020 C.3     
   3 C3             0.7421    -0.5109     1.2415 C.3     
   4 C4             2.1775     0.0187     1.2307 C.3     
   5 C5             2.1567     1.5485     1.2391 C.3     
   6 C6             1.4167     2.0553    -0.0004 C.3     
   7 C7             2.9174    -0.4882     2.4702 C.3     
   8 C8             4.3854    -0.0630     2.3972 C.3     
   9 N9             5.0304    -0.7276     1.2620 N.am    
  10 C10            5.0858    -0.4547     3.6727 C.2     
  11 O11            5.8361    -1.4009     3.6836 O.2     
  12 C12            4.8499     0.3344     4.9348 C.3     
  13 C13            5.1247    -0.5534     6.1502 C.3     
  14 C14            5.7878     1.5429     4.9635 C.3     
  15 C15            5.6015    -0.0775     0.2289 C.2     
  16 C16            6.1327    -1.1580    -0.6920 C.3     
  17 N17            5.7645    -2.4089    -0.0065 N.am    
  18 C18            5.1302    -2.0548     1.1258 C.2     
  19 O19            5.6747     1.1220     0.0690 O.2     
  20 O20            4.6903    -2.8516     1.9312 O.2     
  21 C21            5.4578    -1.0767    -2.0627 C.3     
  22 C22            6.0895    -2.0791    -2.9939 C.ar    
  23 C23            5.5805    -3.3618    -3.0765 C.ar    
  24 C24            6.1594    -4.2816    -3.9303 C.ar    
  25 C25            7.2485    -3.9185    -4.7025 C.ar    
  26 C26            7.7574    -2.6347    -4.6193 C.ar    
  27 C27            7.1742    -1.7141    -3.7693 C.ar    
  28 Cl28           7.9765    -5.0735    -5.7747 Cl      
  29 H29           -0.5459     1.8868    -0.8726 H       
  30 H30           -0.5289     1.8773     0.9072 H       
  31 H31           -1.0205    -0.3814     0.0098 H       
  32 H32            0.5123    -0.3556    -0.8948 H       
  33 H33            0.2319    -0.1594     2.1383 H       
  34 H34            0.7568    -1.6008     1.2356 H       
  35 H35            2.6876    -0.3328     0.3339 H       
  36 H36            1.6465     1.9000     2.1359 H       
  37 H37            3.1793     1.9258     1.2314 H       
  38 H38            1.9269     1.7038    -0.8972 H       
  39 H39            1.4019     3.1452     0.0056 H       
  40 H40            2.4606    -0.0646     3.3646 H       
  41 H41            2.8557    -1.5756     2.5109 H       
  42 H42            4.4447     1.0175     2.2672 H       
  43 H43            3.8154     0.6766     4.9613 H       
  44 H44            6.1592    -0.8957     6.1237 H       
  45 H45            4.9541     0.0173     7.0630 H       
  46 H46            4.4565    -1.4144     6.1298 H       
  47 H47            6.8224     1.2006     4.9370 H       
  48 H48            5.5921     2.1753     4.0976 H       
  49 H49            5.6172     2.1136     5.8763 H       
  50 H50            7.2153    -1.0793    -0.7911 H       
  51 H51            5.9467    -3.3117    -0.3107 H       
  52 H52            4.3954    -1.2969    -1.9583 H       
  53 H53            5.5826    -0.0734    -2.4701 H       
  54 H54            4.7305    -3.6452    -2.4735 H       
  55 H55            5.7619    -5.2838    -3.9945 H       
  56 H56            8.6076    -2.3507    -5.2218 H       
  57 H57            7.5714    -0.7119    -3.7043 H       
@<TRIPOS>BOND
   1    1    2 1
   2    1    6 1
   3    1   29 1
   4    1   30 1
   5    2    3 1
   6    2   31 1
   7    2   32 1
   8    3    4 1
   9    3   33 1
  10    3   34 1
  11    4    5 1
  12    4    7 1
  13    4   35 1
  14    5    6 1
  15    5   36 1
  16    5   37 1
  17    6   38 1
  18    6   39 1
  19    7    8 1
  20    7   40 1
  21    7   41 1
  22    8    9 1
  23    8   10 1
  24    8   42 1
  25    9   15 am
  26    9   18 am
  27   10   11 2
  28   10   12 1
  29   12   13 1
  30   12   14 1
  31   12   43 1
  32   13   44 1
  33   13   45 1
  34   13   46 1
  35   14   47 1
  36   14   48 1
  37   14   49 1
  38   15   16 1
  39   15   19 2
  40   16   17 1
  41   16   21 1
  42   16   50 1
  43   17   18 am
  44   17   51 1
  45   18   20 2
  46   21   22 1
  47   21   52 1
  48   21   53 1
  49   22   23 ar
  50   22   27 ar
  51   23   24 ar
  52   23   54 1
  53   24   25 ar
  54   24   55 1
  55   25   26 ar
  56   25   28 1
  57   26   27 ar
  58   26   56 1
  59   27   57 1

#	End of record

