#	Name: ASD01912747
#	Creating user name:	WinNT
#	Creation time:	15. 06. 2019 20:00

#	Modifying user name:	WinNT
#	Modification time:	15. 06. 2019 20:00

#	Program:	/corina/corina34_cracker 3.40 0067  02.08.2006

@<TRIPOS>MOLECULE
ASD01912747
  41   44    0    0    0
SMALL
NO_CHARGES


@<TRIPOS>ATOM
   1 C1            -0.0191     1.3588     0.1463 C.2     
   2 N2             0.0023    -0.0034    -0.0080 N.pl3   
   3 C3            -1.1994    -0.6830    -0.1409 C.2     
   4 C4            -2.3602    -0.0410    -0.1212 C.2     
   5 N5            -2.4358     1.3307     0.0312 N.am    
   6 C6            -1.3049     2.0577     0.1724 C.2     
   7 C7             1.2968     1.7687     0.2532 C.2     
   8 C8             2.0520     0.6012     0.1547 C.2     
   9 N9             1.2242    -0.4052     0.0021 N.2     
  10 O10           -1.3542     3.2670     0.3081 O.2     
  11 C11           -3.6804     1.9647     0.0456 C.ar    
  12 C12            3.5551     0.5109     0.2125 C.3     
  13 O13            4.1046     1.8186     0.3859 O.3     
  14 C14            5.4583     1.9145     0.4581 C.ar    
  15 C15            6.0591     3.1537     0.6260 C.ar    
  16 C16            7.4353     3.2485     0.6990 C.ar    
  17 C17            8.2139     2.1097     0.6048 C.ar    
  18 C18            7.6175     0.8736     0.4369 C.ar    
  19 C19            6.2414     0.7728     0.3695 C.ar    
  20 C20           -4.2703     2.3841    -1.1524 C.ar    
  21 C21           -5.5109     3.0105    -1.0809 C.ar    
  22 N22           -5.4544     2.7452     1.2484 N.ar    
  23 N23           -4.3103     2.1670     1.1908 N.ar    
  24 C24           -6.0829     3.1789     0.1714 C.ar    
  25 Cl25          -7.6292     3.9535     0.3219 Cl      
  26 O26           -3.6520     2.1867    -2.3454 O.3     
  27 C27           -4.3329     2.6496    -3.5134 C.3     
  28 H28           -1.1900    -1.7560    -0.2631 H       
  29 H29           -3.2737    -0.6073    -0.2279 H       
  30 H30            1.6614     2.7768     0.3845 H       
  31 H31            3.8493    -0.1208     1.0506 H       
  32 H32            3.9292     0.0799    -0.7162 H       
  33 H33            5.4514     4.0435     0.6993 H       
  34 H34            7.9036     4.2129     0.8294 H       
  35 H35            9.2897     2.1859     0.6621 H       
  36 H36            8.2279    -0.0143     0.3629 H       
  37 H37            5.7760    -0.1929     0.2384 H       
  38 H38           -6.0127     3.3551    -1.9729 H       
  39 H39           -4.4904     3.7256    -3.4396 H       
  40 H40           -3.7314     2.4300    -4.3955 H       
  41 H41           -5.2961     2.1462    -3.5959 H       
@<TRIPOS>BOND
   1    1    2 1
   2    1    7 2
   3    1    6 1
   4    2    3 1
   5    2    9 1
   6    3    4 2
   7    3   28 1
   8    4    5 1
   9    4   29 1
  10    5    6 am
  11    5   11 1
  12    6   10 2
  13    7    8 1
  14    7   30 1
  15    8    9 2
  16    8   12 1
  17   11   20 ar
  18   11   23 ar
  19   12   13 1
  20   12   31 1
  21   12   32 1
  22   13   14 1
  23   14   15 ar
  24   14   19 ar
  25   15   16 ar
  26   15   33 1
  27   16   17 ar
  28   16   34 1
  29   17   18 ar
  30   17   35 1
  31   18   19 ar
  32   18   36 1
  33   19   37 1
  34   20   21 ar
  35   20   26 1
  36   21   24 ar
  37   21   38 1
  38   22   23 ar
  39   22   24 ar
  40   24   25 1
  41   26   27 1
  42   27   39 1
  43   27   40 1
  44   27   41 1

#	End of record

