#	Name: ASD01814155
#	Creating user name:	WinNT
#	Creation time:	15. 06. 2019 19:31

#	Modifying user name:	WinNT
#	Modification time:	15. 06. 2019 19:31

#	Program:	/corina/corina34_cracker 3.40 0067  02.08.2006

@<TRIPOS>MOLECULE
ASD01814155
  35   37    0    0    0
SMALL
NO_CHARGES


@<TRIPOS>ATOM
   1 C1            -0.0091     1.3962     0.2144 C.2     
   2 C2             0.0099    -0.0050     0.2075 C.2     
   3 C3             1.2038    -0.6599     0.1253 C.2     
   4 C4             2.3944     0.0818     0.0489 C.2     
   5 N5             2.3464     1.4494     0.0579 N.am    
   6 C6             1.1473     2.0930     0.1400 C.2     
   7 C7             3.6227    -0.5889    -0.0356 C.2     
   8 C8             4.7852     0.1221    -0.1099 C.2     
   9 C9             4.7320     1.5283    -0.1009 C.2     
  10 C10            3.4814     2.1736    -0.0146 C.2     
  11 O11            3.4260     3.3917    -0.0066 O.2     
  12 C12            5.9651     2.3147    -0.1791 C.2     
  13 O13            5.9073     3.6624    -0.1700 O.3     
  14 O14            7.0413     1.7525    -0.2522 O.2     
  15 C15            3.6593    -2.0954    -0.0439 C.3     
  16 C16            4.1446    -2.5787    -1.3863 C.ar    
  17 O17            4.5464    -2.5559     0.9773 O.3     
  18 C18            3.2338    -2.9243    -2.3671 C.ar    
  19 C19            3.6789    -3.3677    -3.5984 C.ar    
  20 C20            5.0348    -3.4650    -3.8491 C.ar    
  21 C21            5.9456    -3.1185    -2.8687 C.ar    
  22 C22            5.5005    -2.6710    -1.6388 C.ar    
  23 H23           -0.9509     1.9214     0.2747 H       
  24 H24           -0.9134    -0.5621     0.2672 H       
  25 H25            1.2335    -1.7395     0.1194 H       
  26 H26            1.1208     3.1727     0.1464 H       
  27 H27            5.7347    -0.3884    -0.1745 H       
  28 H28            6.7475     4.1382    -0.2235 H       
  29 H29            2.6581    -2.4842     0.1420 H       
  30 H30            5.4573    -2.2478     0.8753 H       
  31 H31            2.1744    -2.8482    -2.1712 H       
  32 H32            2.9673    -3.6383    -4.3644 H       
  33 H33            5.3826    -3.8121    -4.8109 H       
  34 H34            7.0050    -3.1949    -3.0645 H       
  35 H35            6.2121    -2.4003    -0.8728 H       
@<TRIPOS>BOND
   1    1    2 1
   2    1    6 2
   3    1   23 1
   4    2    3 2
   5    2   24 1
   6    3    4 1
   7    3   25 1
   8    4    5 1
   9    4    7 2
  10    5    6 1
  11    5   10 am
  12    6   26 1
  13    7    8 1
  14    7   15 1
  15    8    9 2
  16    8   27 1
  17    9   10 1
  18    9   12 1
  19   10   11 2
  20   12   13 1
  21   12   14 2
  22   13   28 1
  23   15   16 1
  24   15   17 1
  25   15   29 1
  26   16   18 ar
  27   16   22 ar
  28   17   30 1
  29   18   19 ar
  30   18   31 1
  31   19   20 ar
  32   19   32 1
  33   20   21 ar
  34   20   33 1
  35   21   22 ar
  36   21   34 1
  37   22   35 1

#	End of record

