#	Name: ASD01230017
#	Creating user name:	WinNT
#	Creation time:	15. 06. 2019 19:11

#	Modifying user name:	WinNT
#	Modification time:	15. 06. 2019 19:11

#	Program:	/corina/corina34_cracker 3.40 0067  02.08.2006

@<TRIPOS>MOLECULE
ASD01230017
  54   56    0    0    0
SMALL
NO_CHARGES


@<TRIPOS>ATOM
   1 C1            -1.6005     1.7638     0.9177 C.3     
   2 C2            -1.7331     0.2654     1.1975 C.3     
   3 C3            -3.1964    -0.0709     1.4918 C.3     
   4 S4            -1.1771    -0.6720    -0.2526 S.o2    
   5 O5            -2.0665    -0.4769    -1.3435 O.2     
   6 O6             0.2280    -0.5432    -0.4209 O.2     
   7 N7            -1.3938    -2.2578     0.1725 N.am    
   8 C8            -1.5152    -3.4672     2.3307 C.3     
   9 C9            -0.6003    -2.8403     1.2574 C.3     
  10 C10            0.2046    -4.0578     0.7556 C.3     
  11 C11            0.2197    -5.0288     1.9171 C.ar    
  12 C12            1.0334    -6.1205     2.1593 C.ar    
  13 C13            0.8594    -6.8789     3.3135 C.ar    
  14 C14           -0.1382    -6.5327     4.2228 C.ar    
  15 C15           -0.9448    -5.4428     3.9732 C.ar    
  16 C16           -0.7691    -4.6894     2.8230 C.ar    
  17 C17            1.7317    -8.0509     3.5740 C.ar    
  18 C18            2.7288    -8.3961     2.6631 C.ar    
  19 C19            3.5393    -9.4868     2.9064 C.ar    
  20 C20            3.3659   -10.2399     4.0522 C.ar    
  21 C21            2.3747    -9.9029     4.9661 C.ar    
  22 C22            1.5600    -8.8048     4.7315 C.ar    
  23 N23            2.2023   -10.6664     6.1232 N.am    
  24 S24            3.5193   -11.1263     7.0156 S.o2    
  25 O25            2.9714   -11.8933     8.0790 O.2     
  26 O26            4.3984   -11.7134     6.0660 O.2     
  27 C27            4.2073    -9.5693     7.6425 C.3     
  28 C28            5.4444    -9.8643     8.4931 C.3     
  29 H29           -1.9346     2.3270     1.7891 H       
  30 H30           -0.5580     2.0034     0.7080 H       
  31 H31           -2.2144     2.0283     0.0568 H       
  32 H32           -1.1192     0.0008     2.0584 H       
  33 H33           -3.8201     0.2649     0.6634 H       
  34 H34           -3.3040    -1.1487     1.6141 H       
  35 H35           -3.5075     0.4315     2.4078 H       
  36 H36           -2.0462    -2.8009    -0.2969 H       
  37 H37           -1.6733    -2.7654     3.1496 H       
  38 H38           -2.4693    -3.7581     1.8913 H       
  39 H39            0.0581    -2.0920     1.6986 H       
  40 H40           -0.2877    -4.5073    -0.1067 H       
  41 H41            1.2210    -3.7595     0.4989 H       
  42 H42            1.8050    -6.3852     1.4516 H       
  43 H43           -0.2793    -7.1167     5.1202 H       
  44 H44           -1.7181    -5.1746     4.6778 H       
  45 H45            2.8671    -7.8102     1.7664 H       
  46 H46            4.3109    -9.7526     2.1991 H       
  47 H47            4.0021   -11.0927     4.2377 H       
  48 H48            0.7918    -8.5386     5.4423 H       
  49 H49            1.3112   -10.9271     6.4039 H       
  50 H50            4.4867    -8.9317     6.8038 H       
  51 H51            3.4601    -9.0612     8.2520 H       
  52 H52            6.1917   -10.3724     7.8836 H       
  53 H53            5.8579    -8.9287     8.8698 H       
  54 H54            5.1650   -10.5019     9.3319 H       
@<TRIPOS>BOND
   1    1    2 1
   2    1   29 1
   3    1   30 1
   4    1   31 1
   5    2    3 1
   6    2    4 1
   7    2   32 1
   8    3   33 1
   9    3   34 1
  10    3   35 1
  11    4    5 2
  12    4    6 2
  13    4    7 am
  14    7    9 1
  15    7   36 1
  16    8    9 1
  17    8   16 1
  18    8   37 1
  19    8   38 1
  20    9   10 1
  21    9   39 1
  22   10   11 1
  23   10   40 1
  24   10   41 1
  25   11   12 ar
  26   11   16 ar
  27   12   13 ar
  28   12   42 1
  29   13   14 ar
  30   13   17 1
  31   14   15 ar
  32   14   43 1
  33   15   16 ar
  34   15   44 1
  35   17   18 ar
  36   17   22 ar
  37   18   19 ar
  38   18   45 1
  39   19   20 ar
  40   19   46 1
  41   20   21 ar
  42   20   47 1
  43   21   22 ar
  44   21   23 1
  45   22   48 1
  46   23   24 am
  47   23   49 1
  48   24   25 2
  49   24   26 2
  50   24   27 1
  51   27   28 1
  52   27   50 1
  53   27   51 1
  54   28   52 1
  55   28   53 1
  56   28   54 1

#	End of record

