#	Name: ASD01890053
#	Creating user name:	WinNT
#	Creation time:	15. 06. 2019 19:50

#	Modifying user name:	WinNT
#	Modification time:	15. 06. 2019 19:50

#	Program:	/corina/corina34_cracker 3.40 0067  02.08.2006

@<TRIPOS>MOLECULE
ASD01890053
  28   29    0    0    0
SMALL
NO_CHARGES


@<TRIPOS>ATOM
   1 C1            -0.0178     1.4581     0.0101 C.2     
   2 C2             0.0021    -0.0041     0.0020 C.2     
   3 C3             1.1808    -0.6634    -0.0128 C.2     
   4 O4             1.0281     2.0810     0.0034 O.2     
   5 C5             1.2007    -2.1343    -0.0209 C.ar    
   6 C6             2.4195    -2.8210    -0.0362 C.ar    
   7 C7             2.4297    -4.1996    -0.0437 C.ar    
   8 C8             1.2383    -4.9043    -0.0362 C.ar    
   9 C9             0.0283    -4.2323    -0.0210 C.ar    
  10 C10            0.0011    -2.8539    -0.0075 C.ar    
  11 C11           -1.3081     2.1799     0.0201 C.ar    
  12 C12           -1.3303     3.5762     0.0278 C.ar    
  13 C13           -2.5367     4.2436     0.0372 C.ar    
  14 C14           -3.7252     3.5320     0.0395 C.ar    
  15 C15           -3.7097     2.1467     0.0323 C.ar    
  16 C16           -2.5096     1.4681     0.0162 C.ar    
  17 Cl17          -5.2403     4.3794     0.0519 Cl      
  18 H18           -0.9258    -0.5567     0.0079 H       
  19 H19            2.1086    -0.1107    -0.0187 H       
  20 H20            3.3499    -2.2726    -0.0425 H       
  21 H21            3.3697    -4.7312    -0.0559 H       
  22 H22            1.2529    -5.9841    -0.0425 H       
  23 H23           -0.8970    -4.7893    -0.0156 H       
  24 H24           -0.9438    -2.3311     0.0092 H       
  25 H25           -0.4043     4.1321     0.0267 H       
  26 H26           -2.5551     5.3235     0.0431 H       
  27 H27           -4.6395     1.5973     0.0349 H       
  28 H28           -2.4987     0.3882     0.0058 H       
@<TRIPOS>BOND
   1    1    2 1
   2    1    4 2
   3    1   11 1
   4    2    3 2
   5    2   18 1
   6    3    5 1
   7    3   19 1
   8    5    6 ar
   9    5   10 ar
  10    6    7 ar
  11    6   20 1
  12    7    8 ar
  13    7   21 1
  14    8    9 ar
  15    8   22 1
  16    9   10 ar
  17    9   23 1
  18   10   24 1
  19   11   12 ar
  20   11   16 ar
  21   12   13 ar
  22   12   25 1
  23   13   14 ar
  24   13   26 1
  25   14   15 ar
  26   14   17 1
  27   15   16 ar
  28   15   27 1
  29   16   28 1

#	End of record

