#	Name: ASD04880509
#	Creating user name:	WinNT
#	Creation time:	15. 06. 2019 20:53

#	Modifying user name:	WinNT
#	Modification time:	15. 06. 2019 20:53

#	Program:	/corina/corina34_cracker 3.40 0067  02.08.2006

@<TRIPOS>MOLECULE
ASD04880509
  39   41    0    0    0
SMALL
NO_CHARGES


@<TRIPOS>ATOM
   1 C1            -0.0144     1.2118     0.0087 C.2     
   2 O2             0.0579    -0.0018    -0.0140 O.2     
   3 C3             1.2186     2.0262    -0.0194 C.ar    
   4 C4             2.4678     1.4099     0.0723 C.ar    
   5 C5             3.6163     2.1774     0.0450 C.ar    
   6 C6             3.5285     3.5556    -0.0727 C.ar    
   7 C7             2.2929     4.1704    -0.1634 C.ar    
   8 C8             1.1389     3.4142    -0.1435 C.ar    
   9 F9             4.8266     1.5837     0.1335 F       
  10 N10           -1.2191     1.8143     0.0539 N.am    
  11 N11           -1.4357     3.1835     0.1955 N.2     
  12 C12           -2.6793     3.5207     0.2120 C.2     
  13 C13           -3.5395     2.2856     0.0679 C.3     
  14 C14           -2.5204     1.1344    -0.0447 C.3     
  15 C15           -3.1853     4.8984     0.3500 C.ar    
  16 C16           -2.2900     5.9640     0.4762 C.ar    
  17 C17           -2.7707     7.2549     0.6055 C.ar    
  18 C18           -4.1460     7.4895     0.6097 C.ar    
  19 C19           -5.0332     6.4315     0.4849 C.ar    
  20 C20           -4.5608     5.1423     0.3493 C.ar    
  21 O21           -4.6172     8.7584     0.7368 O.3     
  22 C22           -6.0362     8.9269     0.7333 C.3     
  23 N23           -1.8776     8.3251     0.7326 N.pl3   
  24 H24            2.5363     0.3361     0.1648 H       
  25 H25            4.4287     4.1520    -0.0934 H       
  26 H26            2.2313     5.2448    -0.2543 H       
  27 H27            0.1753     3.8960    -0.2193 H       
  28 H28           -4.1727     2.1562     0.9455 H       
  29 H29           -4.1452     2.3449    -0.8364 H       
  30 H30           -2.6164     0.6271    -1.0047 H       
  31 H31           -2.6483     0.4298     0.7770 H       
  32 H32           -1.2257     5.7803     0.4732 H       
  33 H33           -6.0971     6.6176     0.4889 H       
  34 H34           -5.2546     4.3211     0.2471 H       
  35 H35           -6.4704     8.3687     1.5628 H       
  36 H36           -6.2768     9.9844     0.8415 H       
  37 H37           -6.4438     8.5559    -0.2071 H       
  38 H38           -0.9214     8.1618     0.7301 H       
  39 H39           -2.2148     9.2301     0.8233 H       
@<TRIPOS>BOND
   1    1    2 2
   2    1    3 1
   3    1   10 am
   4    3    4 ar
   5    3    8 ar
   6    4    5 ar
   7    4   24 1
   8    5    6 ar
   9    5    9 1
  10    6    7 ar
  11    6   25 1
  12    7    8 ar
  13    7   26 1
  14    8   27 1
  15   10   11 1
  16   10   14 1
  17   11   12 2
  18   12   13 1
  19   12   15 1
  20   13   14 1
  21   13   28 1
  22   13   29 1
  23   14   30 1
  24   14   31 1
  25   15   16 ar
  26   15   20 ar
  27   16   17 ar
  28   16   32 1
  29   17   18 ar
  30   17   23 1
  31   18   19 ar
  32   18   21 1
  33   19   20 ar
  34   19   33 1
  35   20   34 1
  36   21   22 1
  37   22   35 1
  38   22   36 1
  39   22   37 1
  40   23   38 1
  41   23   39 1

#	End of record

