#	Name: ASD05380264
#	Creating user name:	WinNT
#	Creation time:	15. 06. 2019 20:59

#	Modifying user name:	WinNT
#	Modification time:	15. 06. 2019 20:59

#	Program:	/corina/corina34_cracker 3.40 0067  02.08.2006

@<TRIPOS>MOLECULE
ASD05380264
  50   54    0    0    0
SMALL
NO_CHARGES


@<TRIPOS>ATOM
   1 C1             9.2198     1.1094    -2.4344 C.1     
   2 C2             0.1212     1.1958    -0.5104 C.ar    
   3 C3             0.0434    -0.1190    -0.0712 C.ar    
   4 C4             1.1832    -0.8319     0.2273 C.ar    
   5 C5             2.4336    -0.2271     0.0867 C.ar    
   6 C6             2.5090     1.1109    -0.3610 C.ar    
   7 C7             1.3437     1.8146    -0.6571 C.ar    
   8 N8             3.5814    -0.8922     0.3698 N.2     
   9 C9             4.7442    -0.3294     0.2394 C.2     
  10 N10            4.9110     0.9525    -0.1847 N.am    
  11 C11            3.8405     1.7191    -0.4982 C.2     
  12 C12            5.9714    -1.1370     0.5753 C.3     
  13 C13            7.0511     1.0354    -1.2967 C.ar    
  14 C14            6.2022     1.4840    -0.2975 C.ar    
  15 C15            8.7581     2.5493    -0.5054 C.ar    
  16 C16            7.9043     2.9895     0.4855 C.ar    
  17 C17            6.6315     2.4614     0.5925 C.ar    
  18 N18            6.5083    -0.6960     1.8650 N.pl3   
  19 O19            3.9748     2.8675    -0.8788 O.2     
  20 C20            5.5999    -2.6190     0.6573 C.3     
  21 C21            7.8488    -0.8795     2.1557 C.ar    
  22 N22            8.6629    -1.4539     1.2761 N.ar    
  23 C23            8.3821    -0.4575     3.3852 C.ar    
  24 C24            9.7505    -0.6709     3.6231 C.ar    
  25 N25           10.4851    -1.2592     2.6849 N.ar    
  26 C26            9.9433    -1.6331     1.5448 C.ar    
  27 N27            7.8757     0.1498     4.4852 N.2     
  28 C28            8.8228     0.3186     5.3616 C.2     
  29 N29            9.9988    -0.1714     4.8766 N.pl3   
  30 C30            8.3364     1.5680    -1.4049 C.ar    
  31 C31            1.4195     3.2420    -1.1344 C.3     
  32 N32            9.9207     0.7457    -3.2511 N.1     
  33 H33           -0.7840     1.7368    -0.7434 H       
  34 H34           -0.9231    -0.5885     0.0382 H       
  35 H35            1.1101    -1.8538     0.5688 H       
  36 H36            6.7241    -0.9935    -0.1999 H       
  37 H37            6.7206     0.2731    -1.9867 H       
  38 H38            9.7519     2.9644    -0.5858 H       
  39 H39            8.2321     3.7486     1.1803 H       
  40 H40            5.9680     2.8097     1.3702 H       
  41 H41            5.9241    -0.2754     2.5153 H       
  42 H42            5.2683    -2.9652    -0.3216 H       
  43 H43            6.4707    -3.1950     0.9706 H       
  44 H44            4.7962    -2.7526     1.3814 H       
  45 H45           10.5683    -2.1088     0.8036 H       
  46 H46            8.6959     0.7790     6.3302 H       
  47 H47           10.8541    -0.1682     5.3341 H       
  48 H48            1.5973     3.2565    -2.2097 H       
  49 H49            0.4799     3.7489    -0.9146 H       
  50 H50            2.2360     3.7528    -0.6242 H       
@<TRIPOS>BOND
   1    1   32 3
   2    1   30 1
   3    2    3 ar
   4    2    7 ar
   5    2   33 1
   6    3    4 ar
   7    3   34 1
   8    4    5 ar
   9    4   35 1
  10    5    6 ar
  11    5    8 1
  12    6    7 ar
  13    6   11 1
  14    7   31 1
  15    8    9 2
  16    9   10 1
  17    9   12 1
  18   10   11 am
  19   10   14 1
  20   11   19 2
  21   12   18 1
  22   12   20 1
  23   12   36 1
  24   13   14 ar
  25   13   30 ar
  26   13   37 1
  27   14   17 ar
  28   15   16 ar
  29   15   30 ar
  30   15   38 1
  31   16   17 ar
  32   16   39 1
  33   17   40 1
  34   18   21 1
  35   18   41 1
  36   20   42 1
  37   20   43 1
  38   20   44 1
  39   21   22 ar
  40   21   23 ar
  41   22   26 ar
  42   23   24 ar
  43   23   27 1
  44   24   25 ar
  45   24   29 1
  46   25   26 ar
  47   26   45 1
  48   27   28 2
  49   28   29 1
  50   28   46 1
  51   29   47 1
  52   31   48 1
  53   31   49 1
  54   31   50 1

#	End of record

