#	Name: ASD01903344
#	Creating user name:	WinNT
#	Creation time:	15. 06. 2019 19:54

#	Modifying user name:	WinNT
#	Modification time:	15. 06. 2019 19:54

#	Program:	/corina/corina34_cracker 3.40 0067  02.08.2006

@<TRIPOS>MOLECULE
ASD01903344
  38   41    0    0    0
SMALL
NO_CHARGES


@<TRIPOS>ATOM
   1 C1            -0.0233     1.3665     0.1889 C.ar    
   2 C2             0.0103    -0.0074     0.3041 C.ar    
   3 C3             1.2068    -0.6995     0.1546 C.ar    
   4 C4             2.3659    -0.0072    -0.1107 C.ar    
   5 C5             2.3295     1.3778    -0.2268 C.ar    
   6 C6             1.1414     2.0621    -0.0777 C.ar    
   7 S7             1.5174    -2.4329     0.2533 S.o2    
   8 N8             3.1424    -2.6379    -0.0146 N.am    
   9 S9             3.7372    -1.1072    -0.2547 S.o2    
  10 O10            4.1617    -1.0473    -1.6095 O.2     
  11 O11            4.5938    -0.8302     0.8447 O.2     
  12 O12            1.2805    -2.8090     1.6030 O.2     
  13 O13            0.8484    -3.0261    -0.8512 O.2     
  14 C14            3.8565    -3.8408    -0.0335 C.ar    
  15 C15            5.2242    -3.8328    -0.2751 C.ar    
  16 C16            5.9288    -5.0200    -0.2937 C.ar    
  17 C17            5.2700    -6.2220    -0.0715 C.ar    
  18 C18            3.9024    -6.2302     0.1696 C.ar    
  19 C19            3.1988    -5.0426     0.1949 C.ar    
  20 N20            5.9849    -7.4266    -0.0909 N.am    
  21 C21            5.4122    -8.5423    -0.5845 C.2     
  22 C22            6.1965    -9.7832    -0.7000 C.2     
  23 O23            4.2473    -8.5242    -0.9347 O.2     
  24 C24            5.6865   -10.9376    -1.1855 C.2     
  25 S25            6.9064   -12.1347    -1.1568 S.3     
  26 C26            8.0261   -11.0260    -0.4987 C.2     
  27 N27            7.4796    -9.8722    -0.3402 N.2     
  28 H28           -0.9572     1.8969     0.3021 H       
  29 H29           -0.9000    -0.5499     0.5123 H       
  30 H30            3.2388     1.9221    -0.4350 H       
  31 H31            1.1208     3.1380    -0.1696 H       
  32 H32            5.7364    -2.8980    -0.4486 H       
  33 H33            6.9923    -5.0138    -0.4816 H       
  34 H34            3.3900    -7.1652     0.3418 H       
  35 H35            2.1352    -5.0489     0.3824 H       
  36 H36            6.8922    -7.4577     0.2509 H       
  37 H37            4.6743   -11.0800    -1.5340 H       
  38 H38            9.0516   -11.2598    -0.2535 H       
@<TRIPOS>BOND
   1    1    2 ar
   2    1    6 ar
   3    1   28 1
   4    2    3 ar
   5    2   29 1
   6    3    4 ar
   7    3    7 1
   8    4    5 ar
   9    4    9 1
  10    5    6 ar
  11    5   30 1
  12    6   31 1
  13    7    8 am
  14    7   12 2
  15    7   13 2
  16    8    9 am
  17    8   14 1
  18    9   10 2
  19    9   11 2
  20   14   15 ar
  21   14   19 ar
  22   15   16 ar
  23   15   32 1
  24   16   17 ar
  25   16   33 1
  26   17   18 ar
  27   17   20 1
  28   18   19 ar
  29   18   34 1
  30   19   35 1
  31   20   21 am
  32   20   36 1
  33   21   22 1
  34   21   23 2
  35   22   24 2
  36   22   27 1
  37   24   25 1
  38   24   37 1
  39   25   26 1
  40   26   27 2
  41   26   38 1

#	End of record

