#	Name: ASD07330010
#	Creating user name:	WinNT
#	Creation time:	15. 06. 2019 21:11

#	Modifying user name:	WinNT
#	Modification time:	15. 06. 2019 21:11

#	Program:	/corina/corina34_cracker 3.40 0067  02.08.2006

@<TRIPOS>MOLECULE
ASD07330010
  62   65    0    0    0
SMALL
NO_CHARGES


@<TRIPOS>ATOM
   1 C1             0.0775     1.1054    -0.8840 C.ar    
   2 C2             0.0886    -0.0657    -0.1410 C.ar    
   3 N3             1.2024    -0.5584     0.3583 N.ar    
   4 C4             2.3723     0.0451     0.1728 C.ar    
   5 C5             2.4337     1.2427    -0.5754 C.ar    
   6 C6             1.2638     1.7804    -1.1121 C.ar    
   7 N7             3.5199    -0.4613     0.6869 N.2     
   8 C8             4.6653     0.1251     0.5086 C.2     
   9 N9             4.8154     1.2772    -0.1958 N.am    
  10 C10            3.7432     1.8819    -0.7596 C.2     
  11 O11            3.8599     2.9141    -1.3942 O.2     
  12 C12            6.0894     1.8440    -0.3396 C.ar    
  13 C13            6.9268     1.4200    -1.3629 C.ar    
  14 C14            8.1813     1.9790    -1.5042 C.ar    
  15 C15            8.6053     2.9642    -0.6241 C.ar    
  16 C16            7.7690     3.3883     0.3985 C.ar    
  17 C17            6.5123     2.8338     0.5377 C.ar    
  18 C18            5.8921    -0.5055     1.1154 C.3     
  19 C19            6.0214    -0.0675     2.5757 C.3     
  20 N20            5.7733    -1.9683     1.0517 N.3     
  21 C21            7.0972    -2.6048     1.0596 C.3     
  22 C22            6.9353    -4.1016     0.9933 C.ar    
  23 C23            6.6826    -4.7229    -0.2304 C.ar    
  24 C24            6.5341    -6.1086    -0.2859 C.ar    
  25 C25            6.6384    -6.8588     0.8731 C.ar    
  26 C26            6.8900    -6.2320     2.0863 C.ar    
  27 C27            7.0426    -4.8593     2.1420 C.ar    
  28 K28            4.4288    -2.4275    -3.1266 Du      
  29 F29            4.3079    -0.4469    -4.3093 F       
  30 F30            2.4963    -3.5791    -2.6015 F       
  31 F31            6.4822    -3.2565    -2.4689 F       
  32 B32            6.5653    -3.8650    -1.5400 Du      
  33 O33            9.8408     3.5139    -0.7635 O.3     
  34 C34           11.6248     5.0188    -0.1364 C.3     
  35 C35           10.2119     4.5230     0.1778 C.3     
  36 O36            6.4939    -8.2093     0.8234 O.3     
  37 C37            6.6137    -8.9204     2.0571 C.3     
  38 H38           -0.8501     1.4856    -1.2857 H       
  39 H39           -0.8412    -0.5869     0.0328 H       
  40 H40            1.2833     2.6940    -1.6878 H       
  41 H41            6.5970     0.6529    -2.0478 H       
  42 H42            8.8328     1.6491    -2.2999 H       
  43 H43            8.0997     4.1549     1.0836 H       
  44 H44            5.8612     3.1642     1.3336 H       
  45 H45            6.7755    -0.1882     0.5614 H       
  46 H46            6.8806    -0.5622     3.0287 H       
  47 H47            6.1590     1.0129     2.6201 H       
  48 H48            5.1167    -0.3412     3.1186 H       
  49 H49            5.1996    -2.3176     1.8046 H       
  50 H50            7.6700    -2.2628     0.1976 H       
  51 H51            7.6239    -2.3366     1.9754 H       
  52 H52            6.3381    -6.5949    -1.2301 H       
  53 H53            6.9709    -6.8195     2.9889 H       
  54 H54            7.2385    -4.3773     3.0884 H       
  55 H55           11.6481     5.4351    -1.1435 H       
  56 H56           11.9078     5.7885     0.5816 H       
  57 H57           12.3250     4.1859    -0.0713 H       
  58 H58            9.5117     5.3558     0.1126 H       
  59 H59           10.1885     4.1066     1.1849 H       
  60 H60            5.8524    -8.5699     2.7540 H       
  61 H61            6.4777    -9.9867     1.8765 H       
  62 H62            7.6025    -8.7471     2.4818 H       
@<TRIPOS>BOND
   1    1    2 ar
   2    1    6 ar
   3    1   38 1
   4    2    3 ar
   5    2   39 1
   6    3    4 ar
   7    4    5 ar
   8    4    7 1
   9    5    6 ar
  10    5   10 1
  11    6   40 1
  12    7    8 2
  13    8    9 1
  14    8   18 1
  15    9   10 am
  16    9   12 1
  17   10   11 2
  18   12   13 ar
  19   12   17 ar
  20   13   14 ar
  21   13   41 1
  22   14   15 ar
  23   14   42 1
  24   15   16 ar
  25   15   33 1
  26   16   17 ar
  27   16   43 1
  28   17   44 1
  29   18   19 1
  30   18   20 1
  31   18   45 1
  32   19   46 1
  33   19   47 1
  34   19   48 1
  35   20   21 1
  36   20   49 1
  37   21   22 1
  38   21   50 1
  39   21   51 1
  40   22   23 ar
  41   22   27 ar
  42   23   24 ar
  43   23   32 1
  44   24   25 ar
  45   24   52 1
  46   25   26 ar
  47   25   36 1
  48   26   27 ar
  49   26   53 1
  50   27   54 1
  51   28   29 1
  52   28   30 1
  53   28   31 1
  54   31   32 2
  55   33   35 1
  56   34   35 1
  57   34   55 1
  58   34   56 1
  59   34   57 1
  60   35   58 1
  61   35   59 1
  62   36   37 1
  63   37   60 1
  64   37   61 1
  65   37   62 1

#	End of record

