#	Name: ASD06170297
#	Creating user name:	WinNT
#	Creation time:	15. 06. 2019 21:05

#	Modifying user name:	WinNT
#	Modification time:	15. 06. 2019 21:05

#	Program:	/corina/corina34_cracker 3.40 0067  02.08.2006

@<TRIPOS>MOLECULE
ASD06170297
  72   77    0    0    0
SMALL
NO_CHARGES


@<TRIPOS>ATOM
   1 N1             0.0806     0.7780    -0.1940 N.am    
   2 N2             0.3668    -0.5839    -0.0605 N.pl3   
   3 C3             1.6763    -0.8018    -0.2867 C.2     
   4 C4             2.2790     0.4075    -0.5730 C.2     
   5 C5             1.2207     1.4278    -0.5077 C.2     
   6 C6             3.6966     0.6311    -0.8814 C.2     
   7 O7             4.4703    -0.3080    -0.9018 O.2     
   8 N8             4.1413     1.8764    -1.1419 N.am    
   9 C9            -0.6126    -1.6202     0.2756 C.3     
  10 C10            2.3678    -2.1398    -0.2354 C.3     
  11 C11            5.5148     2.1166    -1.2711 C.ar    
  12 C12            6.3588     1.1040    -1.7072 C.ar    
  13 C13            7.7147     1.3423    -1.8349 C.ar    
  14 C14            8.2314     2.5947    -1.5268 C.ar    
  15 C15            7.3874     3.6053    -1.0910 C.ar    
  16 C16            6.0322     3.3694    -0.9687 C.ar    
  17 O17            9.5651     2.8296    -1.6523 O.3     
  18 N18           11.0942     3.1956    -5.4650 N.ar    
  19 C19           11.9162     3.4112    -4.4310 C.ar    
  20 C20           11.4308     3.2956    -3.1055 C.ar    
  21 C21           10.0748     2.9521    -2.9023 C.ar    
  22 C22            9.2836     2.7443    -4.0187 C.ar    
  23 C23            9.8338     2.8757    -5.2872 C.ar    
  24 O24            1.3486     2.6227    -0.6991 O.2     
  25 C25           -1.1778     1.3674    -0.0349 C.ar    
  26 C26           -1.9887     0.9998     1.0311 C.ar    
  27 C27           12.2941     3.5211    -2.0235 C.ar    
  28 C28           13.5948     3.8500    -2.2519 C.ar    
  29 C29           14.0845     3.9668    -3.5560 C.ar    
  30 C30           13.2621     3.7522    -4.6388 C.ar    
  31 C31           16.1898     4.5069    -2.5938 C.3     
  32 O32           15.3869     4.2963    -3.7570 O.3     
  33 C33           -1.1100    -2.2875    -1.0082 C.3     
  34 C34           -2.1431    -3.3833    -0.6822 C.3     
  35 C35           -3.2305     1.5840     1.1857 C.ar    
  36 C36           -3.6671     2.5336     0.2802 C.ar    
  37 C37           -2.8622     2.9018    -0.7823 C.ar    
  38 C38           -1.6169     2.3256    -0.9393 C.ar    
  39 F39            8.5370     0.3576    -2.2586 F       
  40 O40           -1.8516    -1.3353    -1.8245 O.3     
  41 C41           -3.1102    -1.7626    -1.9756 C.2     
  42 N42           -3.3663    -2.9237    -1.3575 N.am    
  43 C43           -4.6546    -3.6212    -1.3545 C.3     
  44 O44           -3.9451    -1.1533    -2.6146 O.2     
  45 H45            3.5100     2.6063    -1.2399 H       
  46 H46           -0.1450    -2.3680     0.9161 H       
  47 H47           -1.4546    -1.1681     0.7999 H       
  48 H48            2.3388    -2.6018    -1.2222 H       
  49 H49            3.4048    -2.0014     0.0705 H       
  50 H50            1.8601    -2.7840     0.4824 H       
  51 H51            5.9564     0.1306    -1.9461 H       
  52 H52            7.7897     4.5784    -0.8510 H       
  53 H53            5.3751     4.1582    -0.6335 H       
  54 H54            8.2428     2.4800    -3.9039 H       
  55 H55            9.2070     2.7109    -6.1511 H       
  56 H56           -1.6486     0.2577     1.7383 H       
  57 H57           11.9275     3.4342    -1.0114 H       
  58 H58           14.2562     4.0232    -1.4159 H       
  59 H59           13.6502     3.8449    -5.6424 H       
  60 H60           15.7691     5.3217    -2.0045 H       
  61 H61           16.2071     3.5965    -1.9946 H       
  62 H62           17.2055     4.7631    -2.8949 H       
  63 H63           -0.2740    -2.7052    -1.5692 H       
  64 H64           -1.8218    -4.3442    -1.0842 H       
  65 H65           -2.3024    -3.4514     0.3940 H       
  66 H66           -3.8615     1.2986     2.0144 H       
  67 H67           -4.6390     2.9884     0.4029 H       
  68 H68           -3.2061     3.6437    -1.4877 H       
  69 H69           -0.9887     2.6136    -1.7692 H       
  70 H70           -5.3788    -3.0492    -1.9346 H       
  71 H71           -4.5335    -4.6097    -1.7977 H       
  72 H72           -5.0099    -3.7237    -0.3292 H       
@<TRIPOS>BOND
   1    1    2 1
   2    1    5 am
   3    1   25 1
   4    2    3 1
   5    2    9 1
   6    3    4 2
   7    3   10 1
   8    4    5 1
   9    4    6 1
  10    5   24 2
  11    6    7 2
  12    6    8 am
  13    8   11 1
  14    8   45 1
  15    9   33 1
  16    9   46 1
  17    9   47 1
  18   10   48 1
  19   10   49 1
  20   10   50 1
  21   11   12 ar
  22   11   16 ar
  23   12   13 ar
  24   12   51 1
  25   13   14 ar
  26   13   39 1
  27   14   15 ar
  28   14   17 1
  29   15   16 ar
  30   15   52 1
  31   16   53 1
  32   17   21 1
  33   18   19 ar
  34   18   23 ar
  35   19   20 ar
  36   19   30 ar
  37   20   21 ar
  38   20   27 ar
  39   21   22 ar
  40   22   23 ar
  41   22   54 1
  42   23   55 1
  43   25   26 ar
  44   25   38 ar
  45   26   35 ar
  46   26   56 1
  47   27   28 ar
  48   27   57 1
  49   28   29 ar
  50   28   58 1
  51   29   30 ar
  52   29   32 1
  53   30   59 1
  54   31   32 1
  55   31   60 1
  56   31   61 1
  57   31   62 1
  58   33   34 1
  59   33   40 1
  60   33   63 1
  61   34   42 1
  62   34   64 1
  63   34   65 1
  64   35   36 ar
  65   35   66 1
  66   36   37 ar
  67   36   67 1
  68   37   38 ar
  69   37   68 1
  70   38   69 1
  71   40   41 1
  72   41   42 am
  73   41   44 2
  74   42   43 1
  75   43   70 1
  76   43   71 1
  77   43   72 1

#	End of record

