#	Name: ASD05720025
#	Creating user name:	WinNT
#	Creation time:	15. 06. 2019 21:01

#	Modifying user name:	WinNT
#	Modification time:	15. 06. 2019 21:01

#	Program:	/corina/corina34_cracker 3.40 0067  02.08.2006

@<TRIPOS>MOLECULE
ASD05720025
  57   59    0    0    0
SMALL
NO_CHARGES


@<TRIPOS>ATOM
   1 Na1            0.0000     0.0000     0.0000 Du      
   2 Na2            5.0000     5.0000     5.0000 Du      
   3 P3            10.7552    11.5666    16.3723 P.3     
   4 O4            10.7651    10.0000    16.3882 O.co2   
   5 O5            12.2697    12.1126    16.3509 O.3     
   6 O6            10.0000    12.0711    15.0958 O.co2   
   7 O7            10.0269    12.0972    17.6539 O.co2   
   8 C8            12.5951    13.5039    16.3333 C.3     
   9 N9            14.0512    13.6647    16.3163 N.pl3   
  10 N10           14.7625    14.8754    16.2970 N.2     
  11 C11           16.0403    14.5632    16.2865 C.2     
  12 N12           16.1561    13.2281    16.2983 N.2     
  13 C13           14.9693    12.6816    16.3221 C.2     
  14 C14           17.1660    15.5284    16.2645 C.ar    
  15 C15           18.4815    15.0650    16.2551 C.ar    
  16 C16           19.5272    15.9607    16.2351 C.ar    
  17 C17           19.2704    17.3329    16.2237 C.ar    
  18 C18           17.9534    17.7960    16.2325 C.ar    
  19 C19           16.9086    16.8992    16.2473 C.ar    
  20 C20           20.5447    19.3792    15.3261 C.2     
  21 N21           19.7902    19.8411    14.3241 N.2     
  22 C22           20.1577    20.9073    13.6388 C.2     
  23 C23           21.3583    21.5730    13.9594 C.2     
  24 C24           22.1241    21.1084    14.9726 C.2     
  25 N25           21.7168    20.0018    15.6647 N.pl3   
  26 N26           22.2819    19.3023    16.7370 N.2     
  27 C27           21.5057    18.2952    17.0538 C.2     
  28 C28           20.3938    18.2963    16.2026 C.2     
  29 O29           18.6552    22.7241    10.9541 O.3     
  30 C30           19.5687    22.4998    11.9052 C.2     
  31 N31           19.3615    21.3734    12.6008 N.am    
  32 C32           18.1536    20.7109    12.0854 C.3     
  33 C33           17.6764    21.6448    10.9564 C.3     
  34 O34           20.5012    23.2488    12.1186 O.2     
  35 C35           17.0902    20.6046    13.1803 C.3     
  36 C36           16.7318    22.0052    13.6809 C.3     
  37 C37           15.8396    19.9302    12.6128 C.3     
  38 H38           12.1682    13.9657    15.4430 H       
  39 H39           12.1870    13.9838    17.2228 H       
  40 H40           14.7612    11.6220    16.3405 H       
  41 H41           18.6801    14.0035    16.2640 H       
  42 H42           20.5458    15.6018    16.2286 H       
  43 H43           17.7540    18.8574    16.2237 H       
  44 H44           15.8897    17.2573    16.2497 H       
  45 H45           21.6637    22.4456    13.4010 H       
  46 H46           23.0471    21.6056    15.2319 H       
  47 H47           21.6912    17.5833    17.8445 H       
  48 H48           18.3970    19.7249    11.6896 H       
  49 H49           16.6813    22.0318    11.1755 H       
  50 H50           17.6820    21.1219    10.0000 H       
  51 H51           17.4790    20.0114    14.0080 H       
  52 H52           16.4228    22.6241    12.8385 H       
  53 H53           15.9153    21.9362    14.3998 H       
  54 H54           17.6018    22.4532    14.1611 H       
  55 H55           15.0518    19.9329    13.3662 H       
  56 H56           15.5012    20.4750    11.7315 H       
  57 H57           16.0747    18.9024    12.3366 H       
@<TRIPOS>BOND
   1    3    4 ar
   2    3    5 1
   3    3    6 ar
   4    3    7 ar
   5    5    8 1
   6    8    9 1
   7    8   38 1
   8    8   39 1
   9    9   10 1
  10    9   13 1
  11   10   11 2
  12   11   12 1
  13   11   14 1
  14   12   13 2
  15   13   40 1
  16   14   15 ar
  17   14   19 ar
  18   15   16 ar
  19   15   41 1
  20   16   17 ar
  21   16   42 1
  22   17   18 ar
  23   17   28 1
  24   18   19 ar
  25   18   43 1
  26   19   44 1
  27   20   21 1
  28   20   25 1
  29   20   28 2
  30   21   22 2
  31   22   23 1
  32   22   31 1
  33   23   24 2
  34   23   45 1
  35   24   25 1
  36   24   46 1
  37   25   26 1
  38   26   27 2
  39   27   28 1
  40   27   47 1
  41   29   30 1
  42   29   33 1
  43   30   31 am
  44   30   34 2
  45   31   32 1
  46   32   33 1
  47   32   35 1
  48   32   48 1
  49   33   49 1
  50   33   50 1
  51   35   36 1
  52   35   37 1
  53   35   51 1
  54   36   52 1
  55   36   53 1
  56   36   54 1
  57   37   55 1
  58   37   56 1
  59   37   57 1

#	End of record

