#	Name: ASD01890146
#	Creating user name:	WinNT
#	Creation time:	15. 06. 2019 19:50

#	Modifying user name:	WinNT
#	Modification time:	15. 06. 2019 19:50

#	Program:	/corina/corina34_cracker 3.40 0067  02.08.2006

@<TRIPOS>MOLECULE
ASD01890146
  49   52    0    0    0
SMALL
NO_CHARGES


@<TRIPOS>ATOM
   1 C1             0.3543    -0.9582    -0.1923 C.2     
   2 C2             1.0290    -0.3028     0.9852 C.3     
   3 C3             2.4848    -0.7670     1.0621 C.3     
   4 C4             3.2076     0.0024     2.1696 C.3     
   5 O5             0.9993    -1.6328    -0.9596 O.2     
   6 O6            -0.9642    -0.7971    -0.3855 O.3     
   7 C7             2.5263    -2.2424     1.3662 C.ar    
   8 C8             3.1305    -3.1139     0.4793 C.ar    
   9 C9             3.1689    -4.4672     0.7576 C.ar    
  10 C10            2.6023    -4.9496     1.9240 C.ar    
  11 C11            1.9977    -4.0769     2.8112 C.ar    
  12 C12            1.9650    -2.7232     2.5345 C.ar    
  13 Cl13           2.6496    -6.6493     2.2740 Cl      
  14 C14            3.2758     1.4629     1.8044 C.2     
  15 N15            3.8021     1.9336     0.7122 N.2     
  16 C16            3.6950     3.2882     0.7027 C.ar    
  17 C17            3.0466     3.6563     1.8966 C.ar    
  18 N18            2.7902     2.4804     2.5670 N.pl3   
  19 C19            4.0812     4.2748    -0.2020 C.ar    
  20 C20            3.8199     5.6118     0.0882 C.ar    
  21 C21            3.1730     5.9603     1.2822 C.ar    
  22 C22            2.7938     4.9963     2.1699 C.ar    
  23 C23            4.2255     6.6643    -0.8634 C.2     
  24 C24            5.2485     6.3775    -1.8905 C.ar    
  25 C25            5.2664     7.1021    -3.0843 C.ar    
  26 C26            6.2244     6.8294    -4.0384 C.ar    
  27 C27            7.1660     5.8403    -3.8151 C.ar    
  28 C28            7.1541     5.1184    -2.6345 C.ar    
  29 C29            6.2054     5.3844    -1.6694 C.ar    
  30 O30            3.7179     7.7673    -0.8023 O.2     
  31 H31            0.9987     0.7801     0.8648 H       
  32 H32            0.5100    -0.5810     1.9024 H       
  33 H33            2.9771    -0.5787     0.1081 H       
  34 H34            2.6631    -0.1127     3.1069 H       
  35 H35            4.2176    -0.3906     2.2855 H       
  36 H36           -1.3522    -1.2367    -1.1544 H       
  37 H37            3.5724    -2.7372    -0.4313 H       
  38 H38            3.6406    -5.1480     0.0645 H       
  39 H39            1.5554    -4.4529     3.7218 H       
  40 H40            1.4970    -2.0413     3.2290 H       
  41 H41            2.3470     2.3936     3.4254 H       
  42 H42            4.5798     4.0050    -1.1213 H       
  43 H43            2.9739     6.9990     1.5009 H       
  44 H44            2.2960     5.2744     3.0871 H       
  45 H45            4.5316     7.8739    -3.2601 H       
  46 H46            6.2394     7.3890    -4.9620 H       
  47 H47            7.9135     5.6304    -4.5659 H       
  48 H48            7.8917     4.3475    -2.4669 H       
  49 H49            6.1997     4.8231    -0.7467 H       
@<TRIPOS>BOND
   1    1    2 1
   2    1    5 2
   3    1    6 1
   4    2    3 1
   5    2   31 1
   6    2   32 1
   7    3    4 1
   8    3    7 1
   9    3   33 1
  10    4   14 1
  11    4   34 1
  12    4   35 1
  13    6   36 1
  14    7    8 ar
  15    7   12 ar
  16    8    9 ar
  17    8   37 1
  18    9   10 ar
  19    9   38 1
  20   10   11 ar
  21   10   13 1
  22   11   12 ar
  23   11   39 1
  24   12   40 1
  25   14   15 2
  26   14   18 1
  27   15   16 1
  28   16   17 ar
  29   16   19 ar
  30   17   18 1
  31   17   22 ar
  32   18   41 1
  33   19   20 ar
  34   19   42 1
  35   20   21 ar
  36   20   23 1
  37   21   22 ar
  38   21   43 1
  39   22   44 1
  40   23   24 1
  41   23   30 2
  42   24   25 ar
  43   24   29 ar
  44   25   26 ar
  45   25   45 1
  46   26   27 ar
  47   26   46 1
  48   27   28 ar
  49   27   47 1
  50   28   29 ar
  51   28   48 1
  52   29   49 1

#	End of record

