#	Name: ASD01910243
#	Creating user name:	WinNT
#	Creation time:	15. 06. 2019 19:55

#	Modifying user name:	WinNT
#	Modification time:	15. 06. 2019 19:55

#	Program:	/corina/corina34_cracker 3.40 0067  02.08.2006

@<TRIPOS>MOLECULE
ASD01910243
  44   47    0    0    0
SMALL
NO_CHARGES


@<TRIPOS>ATOM
   1 C1             0.6235     0.5052     0.4141 C.2     
   2 C2             1.8010     1.4456     0.3997 C.3     
   3 C3             2.1181     1.8450    -1.0433 C.3     
   4 C4             3.3342     2.7740    -1.0618 C.3     
   5 C5             3.0134     4.0443    -0.2679 C.3     
   6 N6             2.5676     3.6605     1.0785 N.am    
   7 C7             1.4629     2.7008     1.2101 C.3     
   8 C8             3.1608     4.1790     2.1720 C.2     
   9 C9             4.3241     5.0776     2.0253 C.ar    
  10 O10            2.7385     3.9073     3.2791 O.2     
  11 N11            0.6128    -0.7209     0.8745 N.2     
  12 C12           -0.6476    -1.1707     0.6804 C.2     
  13 N13           -1.3215    -0.2006     0.1190 N.2     
  14 O14           -0.6077     0.7678    -0.0352 O.3     
  15 C15           -1.1683    -2.5137     1.0369 C.ar    
  16 C16           -2.4979    -2.8395     0.7760 C.ar    
  17 C17           -2.9777    -4.0894     1.1086 C.ar    
  18 C18           -2.1397    -5.0203     1.7012 C.ar    
  19 C19           -0.8170    -4.7005     1.9624 C.ar    
  20 C20           -0.3275    -3.4547     1.6282 C.ar    
  21 F21           -2.6138    -6.2431     2.0258 F       
  22 C22            4.2626     6.1663     1.1533 C.ar    
  23 C23            5.3507     7.0026     1.0193 C.ar    
  24 C24            6.5052     6.7647     1.7477 C.ar    
  25 C25            6.5732     5.6833     2.6164 C.ar    
  26 C26            5.4871     4.8443     2.7627 C.ar    
  27 F27            7.5684     7.5871     1.6120 F       
  28 F28            7.7016     5.4559     3.3238 F       
  29 H29            2.6672     0.9508     0.8389 H       
  30 H30            2.3351     0.9511    -1.6282 H       
  31 H31            1.2602     2.3612    -1.4741 H       
  32 H32            4.1861     2.2671    -0.6086 H       
  33 H33            3.5737     3.0393    -2.0915 H       
  34 H34            3.9068     4.6644    -0.1941 H       
  35 H35            2.2214     4.5992    -0.7707 H       
  36 H36            0.5445     3.1462     0.8278 H       
  37 H37            1.3333     2.4346     2.2591 H       
  38 H38           -3.1518    -2.1144     0.3145 H       
  39 H39           -4.0081    -4.3426     0.9071 H       
  40 H40           -0.1672    -5.4290     2.4244 H       
  41 H41            0.7035    -3.2063     1.8320 H       
  42 H42            3.3639     6.3530     0.5842 H       
  43 H43            5.3031     7.8447     0.3448 H       
  44 H44            5.5398     4.0035     3.4385 H       
@<TRIPOS>BOND
   1    1   11 2
   2    1    2 1
   3    1   14 1
   4    2    3 1
   5    2    7 1
   6    2   29 1
   7    3    4 1
   8    3   30 1
   9    3   31 1
  10    4    5 1
  11    4   32 1
  12    4   33 1
  13    5    6 1
  14    5   34 1
  15    5   35 1
  16    6    7 1
  17    6    8 am
  18    7   36 1
  19    7   37 1
  20    8    9 1
  21    8   10 2
  22    9   22 ar
  23    9   26 ar
  24   11   12 1
  25   12   13 2
  26   12   15 1
  27   13   14 1
  28   15   16 ar
  29   15   20 ar
  30   16   17 ar
  31   16   38 1
  32   17   18 ar
  33   17   39 1
  34   18   19 ar
  35   18   21 1
  36   19   20 ar
  37   19   40 1
  38   20   41 1
  39   22   23 ar
  40   22   42 1
  41   23   24 ar
  42   23   43 1
  43   24   25 ar
  44   24   27 1
  45   25   26 ar
  46   25   28 1
  47   26   44 1

#	End of record

