#	Name: ASD01410703
#	Creating user name:	WinNT
#	Creation time:	15. 06. 2019 19:18

#	Modifying user name:	WinNT
#	Modification time:	15. 06. 2019 19:18

#	Program:	/corina/corina34_cracker 3.40 0067  02.08.2006

@<TRIPOS>MOLECULE
ASD01410703
  83   88    0    0    0
SMALL
NO_CHARGES


@<TRIPOS>ATOM
   1 N1            -0.0203     1.6460     0.0111 N.am    
   2 C2            -3.0390     2.3449    -1.7058 C.3     
   3 N3            -3.4350     0.8099    -5.1215 N.am    
   4 S4             0.0021    -0.0041     0.0020 S.o2    
   5 O5            -0.2796    -0.4073    -1.3269 O.2     
   6 N6             1.5536    -0.5035     0.3568 N.am    
   7 O7            -0.8056    -0.4068     1.1065 O.2     
   8 C8             2.5100    -0.4565    -0.5702 C.2     
   9 O9             3.6003    -0.8003    -0.1042 O.2     
  10 C10            2.6280    -0.1323    -1.9742 C.ar    
  11 C11            3.8190     0.5256    -2.3388 C.ar    
  12 C12            4.0735     0.9894    -3.5920 C.ar    
  13 C13            3.0593     0.7846    -4.5380 C.ar    
  14 C14            1.9076     0.0174    -4.2364 C.ar    
  15 C15            1.6923    -0.4720    -2.9538 C.ar    
  16 C16            2.9181     1.2484    -5.8553 C.2     
  17 C17            1.7609     0.7503    -6.3597 C.2     
  18 N18            1.1728    -0.0476    -5.3907 N.pl3   
  19 C19            3.9022     2.1705    -6.5342 C.3     
  20 C20            3.9994     3.4799    -5.7488 C.3     
  21 C21            5.2774     1.5018    -6.5832 C.3     
  22 C22            6.2746     2.4363    -7.2712 C.3     
  23 C23            6.3719     3.7457    -6.4858 C.3     
  24 C24            4.9966     4.4144    -6.4368 C.3     
  25 C25            1.2035     1.0230    -7.6960 C.ar    
  26 C26           -0.1728     1.1455    -7.9221 C.ar    
  27 C27           -1.1917     0.8823    -6.9248 C.2     
  28 C28           -1.2058     0.0585    -5.8966 C.2     
  29 C29           -0.0485    -0.8419    -5.5660 C.3     
  30 C30           -2.3638    -0.0151    -5.0265 C.2     
  31 O31           -2.3830    -0.8949    -4.1591 O.2     
  32 C32            2.0824     1.1158    -8.7868 C.ar    
  33 C33            1.6212     1.4466   -10.0404 C.ar    
  34 C34            0.2637     1.6668   -10.2486 C.ar    
  35 C35           -0.6246     1.5093    -9.2055 C.ar    
  36 O36           -0.1872     2.0411   -11.4731 O.3     
  37 C37            0.7889     2.1910   -12.5059 C.3     
  38 C38           -3.5477     1.3290    -2.7314 C.3     
  39 C39           -3.4158     1.9288    -4.1298 C.3     
  40 C40           -2.4182     1.5650    -0.5332 C.3     
  41 C41           -1.2777     2.3952     0.0400 C.3     
  42 C42            1.2405     2.3964     0.0031 C.3     
  43 C43           -4.5367     0.6794    -6.0722 C.3     
  44 H44           -2.2874     2.9854    -2.1648 H       
  45 H45           -3.8694     2.9510    -1.3468 H       
  46 H46            1.7701    -0.8324     1.2603 H       
  47 H47            4.5745     0.6705    -1.5795 H       
  48 H48            5.0043     1.4796    -3.8416 H       
  49 H49            0.8552    -1.1187    -2.7437 H       
  50 H50            3.5635     2.3797    -7.5489 H       
  51 H51            3.0197     3.9563    -5.7139 H       
  52 H52            4.3381     3.2707    -4.7341 H       
  53 H53            5.6161     1.2926    -5.5685 H       
  54 H54            5.2081     0.5690    -7.1427 H       
  55 H55            7.2544     1.9599    -7.3061 H       
  56 H56            5.9360     2.6455    -8.2859 H       
  57 H57            6.7106     3.5365    -5.4711 H       
  58 H58            7.0823     4.4114    -6.9759 H       
  59 H59            4.6580     4.6236    -7.4515 H       
  60 H60            5.0659     5.3473    -5.8773 H       
  61 H61           -2.0830     1.4745    -7.0414 H       
  62 H62            0.0870    -1.5516    -6.3823 H       
  63 H63           -0.2608    -1.3794    -4.6435 H       
  64 H64            3.1324     0.8906    -8.6701 H       
  65 H65            2.3143     1.5401   -10.8630 H       
  66 H66           -1.6797     1.6688    -9.3792 H       
  67 H67            1.3030     1.2423   -12.6605 H       
  68 H68            0.2964     2.4922   -13.4304 H       
  69 H69            1.5120     2.9528   -12.2146 H       
  70 H70           -2.9580     0.4169    -2.6577 H       
  71 H71           -4.5957     1.1034    -2.5276 H       
  72 H72           -2.4793     2.4737    -4.2175 H       
  73 H73           -4.2534     2.5974    -4.3282 H       
  74 H74           -3.1790     1.4036     0.2338 H       
  75 H75           -2.0594     0.6036    -0.8909 H       
  76 H76           -1.5054     2.6641     1.0749 H       
  77 H77           -1.1591     3.3098    -0.5424 H       
  78 H78            2.0782     1.6991    -0.0087 H       
  79 H79            1.2815     3.0285    -0.8839 H       
  80 H80            1.2985     3.0190     0.8959 H       
  81 H81           -4.3694    -0.1923    -6.7048 H       
  82 H82           -5.4736     0.5593    -5.5283 H       
  83 H83           -4.5889     1.5740    -6.6928 H       
@<TRIPOS>BOND
   1    1    4 am
   2    1   42 1
   3    1   41 1
   4    2   38 1
   5    2   40 1
   6    2   44 1
   7    2   45 1
   8    3   30 am
   9    3   43 1
  10    3   39 1
  11    4    5 2
  12    4    6 am
  13    4    7 2
  14    6    8 am
  15    6   46 1
  16    8    9 2
  17    8   10 1
  18   10   11 ar
  19   10   15 ar
  20   11   12 ar
  21   11   47 1
  22   12   13 ar
  23   12   48 1
  24   13   14 ar
  25   13   16 1
  26   14   15 ar
  27   14   18 1
  28   15   49 1
  29   16   17 2
  30   16   19 1
  31   17   18 1
  32   17   25 1
  33   18   29 1
  34   19   20 1
  35   19   21 1
  36   19   50 1
  37   20   24 1
  38   20   51 1
  39   20   52 1
  40   21   22 1
  41   21   53 1
  42   21   54 1
  43   22   23 1
  44   22   55 1
  45   22   56 1
  46   23   24 1
  47   23   57 1
  48   23   58 1
  49   24   59 1
  50   24   60 1
  51   25   26 ar
  52   25   32 ar
  53   26   27 1
  54   26   35 ar
  55   27   28 2
  56   27   61 1
  57   28   29 1
  58   28   30 1
  59   29   62 1
  60   29   63 1
  61   30   31 2
  62   32   33 ar
  63   32   64 1
  64   33   34 ar
  65   33   65 1
  66   34   35 ar
  67   34   36 1
  68   35   66 1
  69   36   37 1
  70   37   67 1
  71   37   68 1
  72   37   69 1
  73   38   39 1
  74   38   70 1
  75   38   71 1
  76   39   72 1
  77   39   73 1
  78   40   41 1
  79   40   74 1
  80   40   75 1
  81   41   76 1
  82   41   77 1
  83   42   78 1
  84   42   79 1
  85   42   80 1
  86   43   81 1
  87   43   82 1
  88   43   83 1

#	End of record

