#	Name: ASD00844743
#	Creating user name:	WinNT
#	Creation time:	15. 06. 2019 18:50

#	Modifying user name:	WinNT
#	Modification time:	15. 06. 2019 18:50

#	Program:	/corina/corina34_cracker 3.40 0067  02.08.2006

@<TRIPOS>MOLECULE
ASD00844743
 103  108    0    0    0
SMALL
NO_CHARGES


@<TRIPOS>ATOM
   1 C1             0.5719     1.3014    -0.7523 C.ar    
   2 C2             0.8812    -0.0388    -0.9320 C.ar    
   3 C3             0.8102    -0.9149     0.1417 C.ar    
   4 C4             0.4319    -0.4507     1.3864 C.ar    
   5 C5             0.1236     0.8858     1.5628 C.ar    
   6 C6             0.1940     1.7607     0.4948 C.ar    
   7 C7             1.1450    -2.3716    -0.0502 C.3     
   8 C8             0.8685    -3.1511     1.2178 C.2     
   9 C9             0.3508    -2.9533    -1.2214 C.3     
  10 C10           -1.1193    -2.7018    -1.0056 C.2     
  11 N11           -2.0195    -3.1599    -1.8980 N.am    
  12 O12           -1.4924    -2.0872    -0.0289 O.2     
  13 C13           -3.4430    -2.8205    -1.7669 C.3     
  14 C14           -4.2614    -4.1154    -1.7749 C.3     
  15 C15           -3.9205    -4.9218    -3.0302 C.3     
  16 C16           -2.4350    -5.2893    -3.0147 C.3     
  17 C17           -1.5951    -4.0030    -3.0239 C.3     
  18 C18           -4.7615    -6.1996    -3.0592 C.3     
  19 C19           -6.2482    -5.8335    -3.0765 C.3     
  20 C20           -7.0826    -7.1132    -3.1669 C.3     
  21 N21           -6.7264    -7.8460    -4.3886 N.3     
  22 C22           -5.3145    -8.2494    -4.3731 C.3     
  23 C23           -4.4273    -7.0037    -4.3187 C.3     
  24 C24           -7.6040    -9.0084    -4.5799 C.3     
  25 O25           -0.2066    -3.2787     1.7645 O.2     
  26 N26            2.0367    -3.6756     1.6233 N.am    
  27 C27            2.6298    -2.5493    -0.2727 C.ar    
  28 C28            3.0893    -3.3439     0.7748 C.ar    
  29 C29            3.4862    -2.0936    -1.2427 C.ar    
  30 C30            4.8439    -2.4282    -1.1856 C.ar    
  31 C31            5.3129    -3.2267    -0.1355 C.ar    
  32 C32            4.4421    -3.6793     0.8324 C.ar    
  33 F33            6.6218    -3.5552    -0.0714 F       
  34 C34            1.9573    -6.2857     2.4927 C.ar    
  35 C35            0.7172    -6.6945     2.0236 C.ar    
  36 C36            2.9994    -7.1899     2.5729 C.ar    
  37 C37            2.8094    -8.5025     2.1861 C.ar    
  38 C38            1.5707    -8.9163     1.7162 C.ar    
  39 C39            0.5238    -8.0114     1.6352 C.ar    
  40 O40            1.3843   -10.2077     1.3363 O.3     
  41 O41           -0.3073    -5.8050     1.9453 O.3     
  42 C42            2.5068   -11.0850     1.4470 C.3     
  43 C43           -1.5560    -6.2953     1.4532 C.3     
  44 C44           -2.5799    -5.1585     1.4374 C.3     
  45 C45           -7.2856    -9.6725    -5.9210 C.3     
  46 C46           -7.3761   -10.0115    -3.4473 C.3     
  47 S47            2.2058    -4.6106     2.9796 S.o2    
  48 O48            3.5673    -4.5048     3.3728 O.2     
  49 O49            1.1216    -4.2764     3.8352 O.2     
  50 O50            1.2527    -0.4932    -2.1577 O.3     
  51 C51            1.2170     0.4446    -3.2354 C.3     
  52 C52            1.7307    -0.2253    -4.5115 C.3     
  53 F53            3.0136    -0.7358    -4.2862 F       
  54 F54            0.8699    -1.2683    -4.8696 F       
  55 C55            5.7461    -1.9581    -2.1934 C.1     
  56 N56            6.4618    -1.5852    -2.9929 N.1     
  57 H57            0.6307     1.9860    -1.5854 H       
  58 H58            0.3765    -1.1322     2.2224 H       
  59 H59           -0.1726     1.2466     2.5367 H       
  60 H60           -0.0472     2.8040     0.6352 H       
  61 H61            0.6687    -2.4764    -2.1485 H       
  62 H62            0.5303    -4.0266    -1.2847 H       
  63 H63           -3.6073    -2.2902    -0.8288 H       
  64 H64           -3.7470    -2.1908    -2.6030 H       
  65 H65           -4.0214    -4.7030    -0.8888 H       
  66 H66           -5.3243    -3.8741    -1.7751 H       
  67 H67           -4.1376    -4.3243    -3.9157 H       
  68 H68           -2.2122    -5.8659    -2.1169 H       
  69 H69           -2.1980    -5.8835    -3.8973 H       
  70 H70           -1.7496    -3.4724    -3.9633 H       
  71 H71           -0.5403    -4.2546    -2.9131 H       
  72 H72           -4.5441    -6.7988    -2.1750 H       
  73 H73           -6.5016    -5.2976    -2.1618 H       
  74 H74           -6.4572    -5.2010    -3.9392 H       
  75 H75           -6.8834    -7.7389    -2.2969 H       
  76 H76           -8.1413    -6.8552    -3.1938 H       
  77 H77           -5.1236    -8.8698    -3.4975 H       
  78 H78           -5.0890    -8.8167    -5.2761 H       
  79 H79           -4.6076    -6.3896    -5.2010 H       
  80 H80           -3.3798    -7.3039    -4.2915 H       
  81 H81           -8.6443    -8.6833    -4.5734 H       
  82 H82            3.1136    -1.4786    -2.0485 H       
  83 H83            4.8092    -4.2951     1.6401 H       
  84 H84            3.9640    -6.8698     2.9383 H       
  85 H85            3.6255    -9.2070     2.2491 H       
  86 H86           -0.4409    -8.3316     1.2702 H       
  87 H87            3.3220   -10.7121     0.8270 H       
  88 H88            2.8320   -11.1296     2.4864 H       
  89 H89            2.2227   -12.0826     1.1121 H       
  90 H90           -1.4227    -6.6783     0.4414 H       
  91 H91           -1.9125    -7.0964     2.1008 H       
  92 H92           -2.7132    -4.7756     2.4492 H       
  93 H93           -2.2234    -4.3575     0.7898 H       
  94 H94           -3.5324    -5.5325     1.0620 H       
  95 H95           -6.2453    -9.9977    -5.9275 H       
  96 H96           -7.9368   -10.5350    -6.0630 H       
  97 H97           -7.4480    -8.9579    -6.7279 H       
  98 H98           -7.6029    -9.5384    -2.4919 H       
  99 H99           -8.0272   -10.8740    -3.5893 H       
 100 H100          -6.3357   -10.3367    -3.4538 H       
 101 H101           0.1922     0.7822    -3.3896 H       
 102 H102           1.8488     1.2994    -2.9942 H       
 103 H103           1.7678     0.5081    -5.3171 H       
@<TRIPOS>BOND
   1    1    2 ar
   2    1    6 ar
   3    1   57 1
   4    2    3 ar
   5    2   50 1
   6    3    4 ar
   7    3    7 1
   8    4    5 ar
   9    4   58 1
  10    5    6 ar
  11    5   59 1
  12    6   60 1
  13    7    8 1
  14    7    9 1
  15    7   27 1
  16    8   25 2
  17    8   26 am
  18    9   10 1
  19    9   61 1
  20    9   62 1
  21   10   11 am
  22   10   12 2
  23   11   13 1
  24   11   17 1
  25   13   14 1
  26   13   63 1
  27   13   64 1
  28   14   15 1
  29   14   65 1
  30   14   66 1
  31   15   16 1
  32   15   18 1
  33   15   67 1
  34   16   17 1
  35   16   68 1
  36   16   69 1
  37   17   70 1
  38   17   71 1
  39   18   19 1
  40   18   23 1
  41   18   72 1
  42   19   20 1
  43   19   73 1
  44   19   74 1
  45   20   21 1
  46   20   75 1
  47   20   76 1
  48   21   22 1
  49   21   24 1
  50   22   23 1
  51   22   77 1
  52   22   78 1
  53   23   79 1
  54   23   80 1
  55   24   45 1
  56   24   46 1
  57   24   81 1
  58   26   47 am
  59   26   28 1
  60   27   28 ar
  61   27   29 ar
  62   28   32 ar
  63   29   30 ar
  64   29   82 1
  65   30   31 ar
  66   30   55 1
  67   31   32 ar
  68   31   33 1
  69   32   83 1
  70   34   35 ar
  71   34   36 ar
  72   34   47 1
  73   35   41 1
  74   35   39 ar
  75   36   37 ar
  76   36   84 1
  77   37   38 ar
  78   37   85 1
  79   38   39 ar
  80   38   40 1
  81   39   86 1
  82   40   42 1
  83   41   43 1
  84   42   87 1
  85   42   88 1
  86   42   89 1
  87   43   44 1
  88   43   90 1
  89   43   91 1
  90   44   92 1
  91   44   93 1
  92   44   94 1
  93   45   95 1
  94   45   96 1
  95   45   97 1
  96   46   98 1
  97   46   99 1
  98   46  100 1
  99   47   48 2
 100   47   49 2
 101   50   51 1
 102   51   52 1
 103   51  101 1
 104   51  102 1
 105   52   53 1
 106   52   54 1
 107   52  103 1
 108   55   56 3

#	End of record

