#	Name: ASD03731588
#	Creating user name:	WinNT
#	Creation time:	15. 06. 2019 20:46

#	Modifying user name:	WinNT
#	Modification time:	15. 06. 2019 20:46

#	Program:	/corina/corina34_cracker 3.40 0067  02.08.2006

@<TRIPOS>MOLECULE
ASD03731588
  37   38    0    0    0
SMALL
NO_CHARGES


@<TRIPOS>ATOM
   1 C1            -0.4024     1.1048    -1.9584 C.2     
   2 C2            -0.2813    -0.2734    -1.4486 C.ar    
   3 C3             0.9024    -0.9939    -1.6470 C.ar    
   4 C4             1.0111    -2.2837    -1.1674 C.ar    
   5 C5            -0.0516    -2.8662    -0.4898 C.ar    
   6 C6            -1.2310    -2.1530    -0.2908 C.ar    
   7 C7            -1.3463    -0.8627    -0.7605 C.ar    
   8 O8             0.5269     1.6173    -2.5522 O.2     
   9 N9            -1.5450     1.7946    -1.7712 N.am    
  10 S10           -1.6810     3.3425    -2.3437 S.o2    
  11 O11           -2.9832     3.7498    -1.9468 O.2     
  12 O12           -0.5242     4.0024    -1.8482 O.2     
  13 C13           -1.5907     3.1677    -4.1470 C.3     
  14 F14           -2.2620    -2.7253     0.3685 F       
  15 F15            1.9365    -0.4280    -2.3070 F       
  16 O16            0.0593    -4.1350    -0.0202 O.3     
  17 C17            1.2619    -4.7566    -0.1396 C.ar    
  18 C18            1.5394    -5.5208    -1.2633 C.ar    
  19 C19            2.7666    -6.1533    -1.3827 C.ar    
  20 C20            3.7156    -6.0206    -0.3773 C.ar    
  21 C21            3.4362    -5.2588     0.7418 C.ar    
  22 C22            2.2149    -4.6226     0.8599 C.ar    
  23 O23            3.0412    -6.9032    -2.4826 O.3     
  24 C24            2.0185    -6.9959    -3.4764 C.3     
  25 F25            0.8703    -7.5622    -2.9125 F       
  26 F26            1.7193    -5.7171    -3.9584 F       
  27 Cl27           5.2533    -6.8125    -0.5259 Cl      
  28 H28            1.9238    -2.8406    -1.3197 H       
  29 H29           -2.2599    -0.3090    -0.6017 H       
  30 H30           -2.2877     1.3844    -1.3010 H       
  31 H31           -2.4071     2.5331    -4.4919 H       
  32 H32           -1.6730     4.1501    -4.6119 H       
  33 H33           -0.6378     2.7148    -4.4209 H       
  34 H34            0.8000    -5.6231    -2.0439 H       
  35 H35            4.1749    -5.1571     1.5230 H       
  36 H36            2.0005    -4.0242     1.7331 H       
  37 H37            2.3662    -7.6218    -4.2982 H       
@<TRIPOS>BOND
   1    1    2 1
   2    1    8 2
   3    1    9 am
   4    2    3 ar
   5    2    7 ar
   6    3    4 ar
   7    3   15 1
   8    4    5 ar
   9    4   28 1
  10    5    6 ar
  11    5   16 1
  12    6    7 ar
  13    6   14 1
  14    7   29 1
  15    9   10 am
  16    9   30 1
  17   10   11 2
  18   10   12 2
  19   10   13 1
  20   13   31 1
  21   13   32 1
  22   13   33 1
  23   16   17 1
  24   17   18 ar
  25   17   22 ar
  26   18   19 ar
  27   18   34 1
  28   19   20 ar
  29   19   23 1
  30   20   21 ar
  31   20   27 1
  32   21   22 ar
  33   21   35 1
  34   22   36 1
  35   23   24 1
  36   24   25 1
  37   24   26 1
  38   24   37 1

#	End of record

