#	Name: ASD01190178
#	Creating user name:	WinNT
#	Creation time:	15. 06. 2019 19:07

#	Modifying user name:	WinNT
#	Modification time:	15. 06. 2019 19:07

#	Program:	/corina/corina34_cracker 3.40 0067  02.08.2006

@<TRIPOS>MOLECULE
ASD01190178
  48   52    0    0    0
SMALL
NO_CHARGES


@<TRIPOS>ATOM
   1 C1            -0.0187     1.5258     0.0104 C.3     
   2 C2             0.0078     0.0370     0.3623 C.3     
   3 N3             5.2843     3.3885    -0.2565 N.pl3   
   4 N4             5.6920     2.7052    -1.4068 N.2     
   5 C5             4.7111     1.9849    -1.8710 C.2     
   6 C6             3.5595     2.1792    -0.9945 C.ar    
   7 C7             2.2525     1.6805    -0.9837 C.ar    
   8 C8             1.3887     2.0646     0.0005 C.ar    
   9 C9             1.7943     2.9483     0.9932 C.ar    
  10 C10            3.0748     3.4527     1.0033 C.ar    
  11 C11            3.9737     3.0748     0.0099 C.ar    
  12 C12            6.0824     4.2463     0.5020 C.ar    
  13 C13            7.4645     4.0987     0.4818 C.ar    
  14 C14            8.2441     4.9562     1.2381 C.ar    
  15 C15            7.6113     5.9356     1.9915 C.ar    
  16 C16            6.2335     6.0247     1.9642 C.ar    
  17 N17            5.5166     5.1962     1.2296 N.ar    
  18 N18           -1.5965     1.2852    -3.3076 N.pl3   
  19 C19           -1.1129     0.7401    -2.1495 C.2     
  20 C20           -0.6364     1.7091    -1.3519 C.2     
  21 C21           -0.8309     2.9783    -2.0569 C.ar    
  22 C22           -0.5464     4.3110    -1.7526 C.ar    
  23 C23           -0.8608     5.2934    -2.6486 C.ar    
  24 C24           -1.4611     4.9773    -3.8598 C.ar    
  25 C25           -1.7509     3.6693    -4.1801 C.ar    
  26 C26           -1.4391     2.6528    -3.2828 C.ar    
  27 C27           -2.1881     0.5261    -4.4122 C.3     
  28 F28            0.5812    -0.1331     1.6270 F       
  29 F29           -1.2987    -0.4632     0.3716 F       
  30 F30            0.7649    -0.6539    -0.5898 F       
  31 O31           -0.7921     2.2315     0.9830 O.3     
  32 H32            4.7436     1.3560    -2.7484 H       
  33 H33            1.9280     0.9944    -1.7521 H       
  34 H34            1.0977     3.2425     1.7643 H       
  35 H35            3.3809     4.1392     1.7788 H       
  36 H36            7.9237     3.3251    -0.1157 H       
  37 H37            9.3202     4.8652     1.2424 H       
  38 H38            8.1906     6.6206     2.5929 H       
  39 H39            5.7368     6.7850     2.5486 H       
  40 H40           -1.1145    -0.3134    -1.9121 H       
  41 H41           -0.0798     4.5645    -0.8121 H       
  42 H42           -0.6409     6.3241    -2.4126 H       
  43 H43           -1.7037     5.7649    -4.5578 H       
  44 H44           -2.2184     3.4335    -5.1247 H       
  45 H45           -3.2626     0.4327    -4.2544 H       
  46 H46           -2.0027     1.0471    -5.3515 H       
  47 H47           -1.7391    -0.4664    -4.4524 H       
  48 H48           -0.8521     3.1832     0.8226 H       
@<TRIPOS>BOND
   1    1    2 1
   2    1    8 1
   3    1   20 1
   4    1   31 1
   5    2   28 1
   6    2   29 1
   7    2   30 1
   8    3    4 1
   9    3   11 1
  10    3   12 1
  11    4    5 2
  12    5    6 1
  13    5   32 1
  14    6    7 ar
  15    6   11 ar
  16    7    8 ar
  17    7   33 1
  18    8    9 ar
  19    9   10 ar
  20    9   34 1
  21   10   11 ar
  22   10   35 1
  23   12   13 ar
  24   12   17 ar
  25   13   14 ar
  26   13   36 1
  27   14   15 ar
  28   14   37 1
  29   15   16 ar
  30   15   38 1
  31   16   17 ar
  32   16   39 1
  33   18   19 1
  34   18   26 1
  35   18   27 1
  36   19   20 2
  37   19   40 1
  38   20   21 1
  39   21   22 ar
  40   21   26 ar
  41   22   23 ar
  42   22   41 1
  43   23   24 ar
  44   23   42 1
  45   24   25 ar
  46   24   43 1
  47   25   26 ar
  48   25   44 1
  49   27   45 1
  50   27   46 1
  51   27   47 1
  52   31   48 1

#	End of record

