#	Name: ASD01913651
#	Creating user name:	WinNT
#	Creation time:	15. 06. 2019 20:02

#	Modifying user name:	WinNT
#	Modification time:	15. 06. 2019 20:02

#	Program:	/corina/corina34_cracker 3.40 0067  02.08.2006

@<TRIPOS>MOLECULE
ASD01913651
  47   48    0    0    0
SMALL
NO_CHARGES


@<TRIPOS>ATOM
   1 C1            -0.0167     1.3802     0.0096 C.ar    
   2 C2             0.0021    -0.0041     0.0020 C.ar    
   3 C3            -1.1857    -0.7109     0.0095 C.ar    
   4 C4            -2.3920    -0.0361     0.0242 C.ar    
   5 C5            -2.4120     1.3464     0.0318 C.ar    
   6 C6            -1.2257     2.0550     0.0306 C.ar    
   7 C7            -3.7279     2.0806     0.0472 C.3     
   8 O8            -4.1321     2.3054     1.3993 O.3     
   9 C9            -5.3036     2.9589     1.5906 C.ar    
  10 N10           -6.0096     3.3533     0.5422 N.ar    
  11 C11           -7.1534     3.9914     0.6762 C.ar    
  12 C12           -7.6642     4.2762     1.9429 C.ar    
  13 C13           -6.9407     3.8720     3.0748 C.ar    
  14 C14           -5.7503     3.2009     2.8863 C.ar    
  15 C15           -8.9465     4.9927     2.0899 C.2     
  16 N16           -9.6331     5.3768     0.9956 N.am    
  17 O17           -9.3832     5.2362     3.1981 O.2     
  18 C18          -10.9056     6.0878     1.1414 C.3     
  19 C19          -11.4737     6.4058    -0.2432 C.3     
  20 C20          -12.8028     7.1484    -0.0908 C.3     
  21 C21          -12.5739     8.4512     0.6781 C.3     
  22 C22          -13.3709     7.4664    -1.4754 C.3     
  23 C23          -13.7926     6.2701     0.6771 C.3     
  24 F24            1.1437     2.0720     0.0023 F       
  25 H25            0.9445    -0.5315    -0.0101 H       
  26 H26           -1.1713    -1.7907     0.0036 H       
  27 H27           -3.3196    -0.5892     0.0293 H       
  28 H28           -1.2416     3.1349     0.0368 H       
  29 H29           -3.6161     3.0376    -0.4625 H       
  30 H30           -4.4833     1.4831    -0.4632 H       
  31 H31           -7.7013     4.2975    -0.2027 H       
  32 H32           -7.3088     4.0773     4.0692 H       
  33 H33           -5.1672     2.8745     3.7347 H       
  34 H34           -9.2846     5.1825     0.1114 H       
  35 H35          -11.6108     5.4621     1.6885 H       
  36 H36          -10.7426     7.0159     1.6892 H       
  37 H37          -10.7686     7.0315    -0.7903 H       
  38 H38          -11.6368     5.4777    -0.7910 H       
  39 H39          -11.8687     9.0769     0.1310 H       
  40 H40          -13.5207     8.9802     0.7866 H       
  41 H41          -12.1691     8.2246     1.6644 H       
  42 H42          -13.5339     6.5383    -2.0232 H       
  43 H43          -14.3177     7.9954    -1.3669 H       
  44 H44          -12.6657     8.0921    -2.0225 H       
  45 H45          -13.3879     6.0435     1.6635 H       
  46 H46          -14.7394     6.7991     0.7856 H       
  47 H47          -13.9557     5.3420     0.1293 H       
@<TRIPOS>BOND
   1    1    2 ar
   2    1   24 1
   3    1    6 ar
   4    2    3 ar
   5    2   25 1
   6    3    4 ar
   7    3   26 1
   8    4    5 ar
   9    4   27 1
  10    5    6 ar
  11    5    7 1
  12    6   28 1
  13    7    8 1
  14    7   29 1
  15    7   30 1
  16    8    9 1
  17    9   10 ar
  18    9   14 ar
  19   10   11 ar
  20   11   12 ar
  21   11   31 1
  22   12   13 ar
  23   12   15 1
  24   13   14 ar
  25   13   32 1
  26   14   33 1
  27   15   16 am
  28   15   17 2
  29   16   18 1
  30   16   34 1
  31   18   19 1
  32   18   35 1
  33   18   36 1
  34   19   20 1
  35   19   37 1
  36   19   38 1
  37   20   21 1
  38   20   22 1
  39   20   23 1
  40   21   39 1
  41   21   40 1
  42   21   41 1
  43   22   42 1
  44   22   43 1
  45   22   44 1
  46   23   45 1
  47   23   46 1
  48   23   47 1

#	End of record

