#	Name: ASD08070002
#	Creating user name:	WinNT
#	Creation time:	15. 06. 2019 21:14

#	Modifying user name:	WinNT
#	Modification time:	15. 06. 2019 21:14

#	Program:	/corina/corina34_cracker 3.40 0067  02.08.2006

@<TRIPOS>MOLECULE
ASD08070002
  16   16    0    0    0
SMALL
NO_CHARGES


@<TRIPOS>ATOM
   1 C1            -0.0160     1.3256     0.0093 C.2     
   2 N2             0.0021    -0.0041     0.0020 Du      
   3 S3            -1.5800    -0.4989    -0.5304 S.o2    
   4 O4            -2.6528     0.4373     0.2009 O.3     
   5 C5            -2.3958     1.7610     0.1081 C.2     
   6 C6            -1.1198     2.1741     0.0189 C.2     
   7 C7            -3.5233     2.7583     0.1009 C.3     
   8 O8             1.0860     1.8748     0.0018 O.2     
   9 O9            -1.6543    -0.1849    -1.9152 O.2     
  10 O10           -1.7832    -1.8114    -0.0232 O.2     
  11 K11            0.5587    -2.3450     0.4724 Du      
  12 H12            0.8342     0.0405    -0.7173 H       
  13 H13           -0.9310     3.2450    -0.0443 H       
  14 H14           -4.4746     2.2318     0.1782 H       
  15 H15           -3.4137     3.4367     0.9470 H       
  16 H16           -3.4980     3.3286    -0.8276 H       
@<TRIPOS>BOND
   1    1    2 1
   2    1    8 2
   3    1    6 1
   4    2    3 1
   5    2   11 1
   6    2   12 1
   7    3    4 1
   8    3    9 2
   9    3   10 2
  10    4    5 1
  11    5    6 2
  12    5    7 1
  13    6   13 1
  14    7   14 1
  15    7   15 1
  16    7   16 1

#	End of record

