#	Name: ASD02588012
#	Creating user name:	WinNT
#	Creation time:	15. 06. 2019 20:25

#	Modifying user name:	WinNT
#	Modification time:	15. 06. 2019 20:25

#	Program:	/corina/corina34_cracker 3.40 0067  02.08.2006

@<TRIPOS>MOLECULE
ASD02588012
  50   55    0    0    0
SMALL
NO_CHARGES


@<TRIPOS>ATOM
   1 C1            -0.1915     1.3086    -0.0805 C.2     
   2 N2             0.0479    -0.0390    -0.0184 N.pl3   
   3 N3            -1.0465    -0.9096     0.0968 N.2     
   4 C4            -2.2706    -0.4254     0.1429 C.2     
   5 N5            -2.5117     0.8897     0.0827 N.2     
   6 C6            -1.5293     1.7654    -0.0215 C.2     
   7 C7             1.0368     1.9726    -0.1912 C.2     
   8 C8             2.0422     0.9820    -0.1950 C.2     
   9 C9             1.3968    -0.2578    -0.0863 C.2     
  10 N10           -1.8061     3.1175    -0.0812 N.pl3   
  11 C11            1.2406     3.4284    -0.2866 C.2     
  12 C12            3.4952     1.2081    -0.2950 C.2     
  13 C13           -3.4090    -1.3601     0.2638 C.2     
  14 S14            4.2890     2.2514    -1.4720 S.3     
  15 C15            5.8544     1.8376    -0.7758 C.2     
  16 C16            5.6502     0.9873     0.2376 C.2     
  17 N17            4.3994     0.6725     0.4771 N.2     
  18 S18            2.3502     4.3727     0.7037 S.3     
  19 C19            1.8555     5.8359    -0.1450 C.2     
  20 C20            0.9396     5.5011    -1.0586 C.2     
  21 N21            0.6325     4.2250    -1.1218 N.2     
  22 N22           -4.6648    -1.0185     0.3198 N.2     
  23 C23           -5.5427    -1.9866     0.4263 C.2     
  24 C24           -5.0412    -3.2275     0.4655 C.2     
  25 S25           -3.2861    -3.1156     0.3477 S.3     
  26 C26            2.0331    -1.5219    -0.0519 C.2     
  27 O27            3.2481    -1.5915    -0.0387 O.2     
  28 O28            1.2922    -2.6502    -0.0336 O.3     
  29 C29            2.0005    -3.8909     0.0011 C.3     
  30 C30            1.0154    -5.0313     0.0173 C.ar    
  31 C31            0.5750    -5.5812    -1.1720 C.ar    
  32 C32           -0.3285    -6.6272    -1.1571 C.ar    
  33 C33           -0.7914    -7.1237     0.0471 C.ar    
  34 C34           -0.3503    -6.5743     1.2365 C.ar    
  35 C35            0.5566    -5.5311     1.2217 C.ar    
  36 H36           -2.7227     3.4214    -0.1728 H       
  37 H37           -1.0838     3.7631    -0.0316 H       
  38 H38            6.8131     2.2061    -1.1097 H       
  39 H39            6.4645     0.5879     0.8240 H       
  40 H40            2.2284     6.8323     0.0414 H       
  41 H41            0.4833     6.2334    -1.7082 H       
  42 H42           -6.6042    -1.7950     0.4794 H       
  43 H43           -5.6134    -4.1395     0.5505 H       
  44 H44            2.6352    -3.9716    -0.8813 H       
  45 H45            2.6183    -3.9316     0.8981 H       
  46 H46            0.9367    -5.1934    -2.1129 H       
  47 H47           -0.6731    -7.0564    -2.0864 H       
  48 H48           -1.4979    -7.9404     0.0588 H       
  49 H49           -0.7122    -6.9620     2.1773 H       
  50 H50            0.9041    -5.1044     2.1510 H       
@<TRIPOS>BOND
   1    1    2 1
   2    1    7 2
   3    1    6 1
   4    2    3 1
   5    2    9 1
   6    3    4 2
   7    4    5 1
   8    4   13 1
   9    5    6 2
  10    6   10 1
  11    7    8 1
  12    7   11 1
  13    8    9 2
  14    8   12 1
  15    9   26 1
  16   10   36 1
  17   10   37 1
  18   11   18 1
  19   11   21 2
  20   12   14 1
  21   12   17 2
  22   13   22 2
  23   13   25 1
  24   14   15 1
  25   15   16 2
  26   15   38 1
  27   16   17 1
  28   16   39 1
  29   18   19 1
  30   19   20 2
  31   19   40 1
  32   20   21 1
  33   20   41 1
  34   22   23 1
  35   23   24 2
  36   23   42 1
  37   24   25 1
  38   24   43 1
  39   26   27 2
  40   26   28 1
  41   28   29 1
  42   29   30 1
  43   29   44 1
  44   29   45 1
  45   30   31 ar
  46   30   35 ar
  47   31   32 ar
  48   31   46 1
  49   32   33 ar
  50   32   47 1
  51   33   34 ar
  52   33   48 1
  53   34   35 ar
  54   34   49 1
  55   35   50 1

#	End of record

