#	Name: ASD05313097
#	Creating user name:	WinNT
#	Creation time:	15. 06. 2019 20:58

#	Modifying user name:	WinNT
#	Modification time:	15. 06. 2019 20:58

#	Program:	/corina/corina34_cracker 3.40 0067  02.08.2006

@<TRIPOS>MOLECULE
ASD05313097
  38   41    0    0    0
SMALL
NO_CHARGES


@<TRIPOS>ATOM
   1 C1            -0.0724     0.8186     1.0225 C.2     
   2 C2             0.1135    -0.6179     0.5956 C.3     
   3 N3             0.9307     1.7319     1.0487 N.pl3   
   4 N4             1.4568    -0.7178    -0.0057 N.am    
   5 C5             2.5711    -0.0363     0.6704 C.3     
   6 C6             2.3173     1.4759     0.6630 C.3     
   7 N7            -0.9038     2.6421     1.7056 N.2     
   8 N8            -1.1570     1.4100     1.4245 N.2     
   9 C9             0.3724     2.8919     1.4926 C.2     
  10 C10            1.0653     4.1818     1.6995 C.ar    
  11 C11            0.3483     5.2877     2.1630 C.ar    
  12 C12            1.0137     6.4891     2.3518 C.ar    
  13 C13            2.3713     6.5451     2.0714 C.ar    
  14 C14            3.0183     5.4108     1.6153 C.ar    
  15 N15            2.3656     4.2792     1.4485 N.ar    
  16 F16           -0.9737     5.1879     2.4229 F       
  17 C17            1.6574    -1.4141    -1.1421 C.2     
  18 O18            2.7493    -1.4039    -1.6765 O.2     
  19 C19            0.5506    -2.1896    -1.7382 C.ar    
  20 C20            0.3191    -2.1373    -3.1156 C.ar    
  21 C21           -0.7172    -2.8647    -3.6659 C.ar    
  22 C22           -1.5256    -3.6442    -2.8561 C.ar    
  23 C23           -1.3006    -3.6996    -1.4903 C.ar    
  24 C24           -0.2654    -2.9825    -0.9289 C.ar    
  25 Cl25          -2.8272    -4.5557    -3.5552 Cl      
  26 Cl26           1.3319    -1.1598    -4.1317 Cl      
  27 H27            0.0440    -1.2755     1.4622 H       
  28 H28           -0.6443    -0.8885    -0.1396 H       
  29 H29            2.6426    -0.3884     1.6995 H       
  30 H30            3.5019    -0.2518     0.1456 H       
  31 H31            2.4958     1.8702    -0.3374 H       
  32 H32            2.9881     1.9613     1.3719 H       
  33 H33            0.4871     7.3619     2.7086 H       
  34 H34            2.9181     7.4664     2.2078 H       
  35 H35            4.0750     5.4529     1.3962 H       
  36 H36           -0.8978    -2.8253    -4.7300 H       
  37 H37           -1.9349    -4.3096    -0.8642 H       
  38 H38           -0.0886    -3.0308     0.1354 H       
@<TRIPOS>BOND
   1    1    2 1
   2    1    3 1
   3    1    8 2
   4    2    4 1
   5    2   27 1
   6    2   28 1
   7    3    6 1
   8    3    9 1
   9    4    5 1
  10    4   17 am
  11    5    6 1
  12    5   29 1
  13    5   30 1
  14    6   31 1
  15    6   32 1
  16    7    8 1
  17    7    9 2
  18    9   10 1
  19   10   11 ar
  20   10   15 ar
  21   11   12 ar
  22   11   16 1
  23   12   13 ar
  24   12   33 1
  25   13   14 ar
  26   13   34 1
  27   14   15 ar
  28   14   35 1
  29   17   18 2
  30   17   19 1
  31   19   20 ar
  32   19   24 ar
  33   20   21 ar
  34   20   26 1
  35   21   22 ar
  36   21   36 1
  37   22   23 ar
  38   22   25 1
  39   23   24 ar
  40   23   37 1
  41   24   38 1

#	End of record

