#	Name: ASD04880278
#	Creating user name:	WinNT
#	Creation time:	15. 06. 2019 20:53

#	Modifying user name:	WinNT
#	Modification time:	15. 06. 2019 20:53

#	Program:	/corina/corina34_cracker 3.40 0067  02.08.2006

@<TRIPOS>MOLECULE
ASD04880278
  33   35    0    0    0
SMALL
NO_CHARGES


@<TRIPOS>ATOM
   1 C1            -0.0122     1.4645     0.0382 C.3     
   2 N2             0.0038    -0.0070     0.0398 N.am    
   3 N3             1.3266    -0.4431     0.0794 N.2     
   4 C4             2.1942     0.5089     0.1044 C.2     
   5 C5             1.4816     1.8424     0.0822 C.3     
   6 C6            -1.0834    -0.8029     0.0085 C.2     
   7 C7            -0.9241    -2.2672    -0.1125 C.ar    
   8 O8            -2.1954    -0.3162     0.0798 O.2     
   9 C9            -2.0357    -3.1048    -0.0016 C.ar    
  10 C10           -1.8815    -4.4708    -0.1153 C.ar    
  11 C11           -0.6284    -5.0129    -0.3388 C.ar    
  12 C12            0.4796    -4.1886    -0.4501 C.ar    
  13 C13            0.3372    -2.8180    -0.3438 C.ar    
  14 C14            3.6569     0.3263     0.1489 C.ar    
  15 C15            4.2034    -0.9594     0.1666 C.ar    
  16 C16            5.5721    -1.1232     0.2083 C.ar    
  17 C17            6.4043    -0.0179     0.2326 C.ar    
  18 C18            5.8703     1.2592     0.2153 C.ar    
  19 C19            4.5023     1.4378     0.1678 C.ar    
  20 Br20           7.0175     2.7621     0.2489 Br      
  21 F21            1.7002    -4.7249    -0.6684 F       
  22 H22           -0.4767     1.8420    -0.8728 H       
  23 H23           -0.5299     1.8434     0.9194 H       
  24 H24            1.7590     2.4093    -0.8064 H       
  25 H25            1.7058     2.4107     0.9849 H       
  26 H26           -3.0148    -2.6838     0.1732 H       
  27 H27           -2.7411    -5.1188    -0.0292 H       
  28 H28           -0.5134    -6.0832    -0.4266 H       
  29 H29            1.2009    -2.1755    -0.4308 H       
  30 H30            3.5553    -1.8232     0.1480 H       
  31 H31            5.9955    -2.1167     0.2224 H       
  32 H32            7.4754    -0.1522     0.2656 H       
  33 H33            4.0866     2.4345     0.1543 H       
@<TRIPOS>BOND
   1    1    2 1
   2    1    5 1
   3    1   22 1
   4    1   23 1
   5    2    3 1
   6    2    6 am
   7    3    4 2
   8    4    5 1
   9    4   14 1
  10    5   24 1
  11    5   25 1
  12    6    7 1
  13    6    8 2
  14    7    9 ar
  15    7   13 ar
  16    9   10 ar
  17    9   26 1
  18   10   11 ar
  19   10   27 1
  20   11   12 ar
  21   11   28 1
  22   12   13 ar
  23   12   21 1
  24   13   29 1
  25   14   15 ar
  26   14   19 ar
  27   15   16 ar
  28   15   30 1
  29   16   17 ar
  30   16   31 1
  31   17   18 ar
  32   17   32 1
  33   18   19 ar
  34   18   20 1
  35   19   33 1

#	End of record

