#	Name: ASD04840095
#	Creating user name:	WinNT
#	Creation time:	15. 06. 2019 20:52

#	Modifying user name:	WinNT
#	Modification time:	15. 06. 2019 20:52

#	Program:	/corina/corina34_cracker 3.40 0067  02.08.2006

@<TRIPOS>MOLECULE
ASD04840095
  53   56    0    0    0
SMALL
NO_CHARGES


@<TRIPOS>ATOM
   1 C1             0.5824     1.7875     0.8868 C.ar    
   2 C2             0.9281     0.4236     1.0802 C.ar    
   3 N3             3.0793     1.1540     1.7181 N.ar    
   4 C4             2.7107     2.3991     1.5251 C.ar    
   5 N5             1.4948     2.7189     1.1194 N.ar    
   6 C6             0.1390    -0.7771     0.9033 C.2     
   7 C7             0.7848    -1.9109     1.1779 C.2     
   8 S8             2.4343    -1.5958     1.6823 S.3     
   9 C9             2.2284     0.1410     1.5104 C.ar    
  10 N10           -0.6849     2.1371     0.4570 N.pl3   
  11 C11           -1.0688     3.5488     0.3800 C.3     
  12 P12           -1.1123     4.0723    -1.3657 P.3     
  13 O13           -1.2881     5.6709    -1.4423 O.3     
  14 O14            0.2630     3.6485    -2.0875 O.3     
  15 O15           -2.2502     3.4176    -2.0489 O.2     
  16 C16            0.1875    -3.2586     1.0713 C.ar    
  17 C17            0.8550    -4.2707     0.3706 C.ar    
  18 C18            0.2879    -5.5304     0.2759 C.ar    
  19 C19           -0.9335    -5.7875     0.8708 C.ar    
  20 C20           -1.5974    -4.7896     1.5643 C.ar    
  21 C21           -1.0412    -3.5302     1.6730 C.ar    
  22 C22           -1.5455    -7.1604     0.7635 C.3     
  23 Cl23          -3.1306    -5.1251     2.3063 Cl      
  24 O24            2.0548    -4.0175    -0.2147 O.3     
  25 C25            2.6772    -5.0981    -0.9125 C.3     
  26 C26           -2.4537     3.7354     1.0030 C.3     
  27 C27           -2.7920     5.2033     1.0450 C.ar    
  28 C28           -2.6309     7.3385     2.1163 C.ar    
  29 C29           -2.3206     5.9920     2.0778 C.ar    
  30 C30           -3.5689     5.7623     0.0476 C.ar    
  31 C31           -3.8793     7.1088     0.0861 C.ar    
  32 C32           -3.4131     7.8962     1.1222 C.ar    
  33 H33            3.4256     3.1887     1.7038 H       
  34 H34           -0.8900    -0.7562     0.5760 H       
  35 H35           -1.3195     1.4475     0.2065 H       
  36 H36           -0.3418     4.1531     0.9226 H       
  37 H37           -1.3192     6.0204    -2.3434 H       
  38 H38            1.0566     3.9901    -1.6533 H       
  39 H39            0.8002    -6.3131    -0.2638 H       
  40 H40           -1.5590    -2.7555     2.2190 H       
  41 H41           -1.2130    -7.7729     1.6016 H       
  42 H42           -2.6321    -7.0765     0.7835 H       
  43 H43           -1.2341    -7.6249    -0.1721 H       
  44 H44            3.6258    -4.7619    -1.3310 H       
  45 H45            2.8565    -5.9217    -0.2214 H       
  46 H46            2.0239    -5.4350    -1.7175 H       
  47 H47           -3.1959     3.2085     0.4034 H       
  48 H48           -2.4534     3.3335     2.0163 H       
  49 H49           -2.2630     7.9546     2.9234 H       
  50 H50           -1.7102     5.5561     2.8548 H       
  51 H51           -3.9332     5.1471    -0.7619 H       
  52 H52           -4.4857     7.5457    -0.6935 H       
  53 H53           -3.6555     8.9483     1.1523 H       
@<TRIPOS>BOND
   1    1    2 ar
   2    1    5 ar
   3    1   10 1
   4    2    9 ar
   5    2    6 1
   6    3    4 ar
   7    3    9 ar
   8    4    5 ar
   9    4   33 1
  10    6    7 2
  11    6   34 1
  12    7    8 1
  13    7   16 1
  14    8    9 1
  15   10   11 1
  16   10   35 1
  17   11   12 1
  18   11   26 1
  19   11   36 1
  20   12   13 1
  21   12   14 1
  22   12   15 2
  23   13   37 1
  24   14   38 1
  25   16   17 ar
  26   16   21 ar
  27   17   18 ar
  28   17   24 1
  29   18   19 ar
  30   18   39 1
  31   19   20 ar
  32   19   22 1
  33   20   21 ar
  34   20   23 1
  35   21   40 1
  36   22   41 1
  37   22   42 1
  38   22   43 1
  39   24   25 1
  40   25   44 1
  41   25   45 1
  42   25   46 1
  43   26   27 1
  44   26   47 1
  45   26   48 1
  46   27   30 ar
  47   27   29 ar
  48   28   29 ar
  49   28   32 ar
  50   28   49 1
  51   29   50 1
  52   30   31 ar
  53   30   51 1
  54   31   32 ar
  55   31   52 1
  56   32   53 1

#	End of record

