#	Name: ASD01915542
#	Creating user name:	WinNT
#	Creation time:	15. 06. 2019 20:05

#	Modifying user name:	WinNT
#	Modification time:	15. 06. 2019 20:05

#	Program:	/corina/corina34_cracker 3.40 0067  02.08.2006

@<TRIPOS>MOLECULE
ASD01915542
  44   46    0    0    0
SMALL
NO_CHARGES


@<TRIPOS>ATOM
   1 C1            -0.0166     1.3736     0.0096 C.2     
   2 N2             0.0021    -0.0041     0.0020 N.pl3   
   3 C3            -1.2451    -0.7770     0.0110 C.3     
   4 C4            -2.3226     0.0138     0.7509 C.3     
   5 N5            -2.3981     1.4042     0.3186 N.am    
   6 C6            -1.2846     2.1200     0.0203 C.2     
   7 C7             1.2836     1.7913    -0.0006 C.2     
   8 C8             2.0431     0.6135    -0.0147 C.2     
   9 N9             1.2130    -0.4035    -0.0125 N.2     
  10 C10            3.5477     0.5294    -0.0304 C.3     
  11 O11            4.0985     1.8479    -0.0286 O.3     
  12 C12            5.4536     1.9505    -0.0417 C.ar    
  13 O13           -1.3315     3.3121    -0.2164 O.2     
  14 C14            6.0558     3.2003    -0.0409 C.ar    
  15 C15            6.2370     0.8056    -0.0502 C.ar    
  16 C16            7.6143     0.9125    -0.0636 C.ar    
  17 C17            8.2120     2.1593    -0.0685 C.ar    
  18 C18            7.4335     3.3019    -0.0543 C.ar    
  19 C19           -3.7104     2.0442     0.1981 C.3     
  20 C20           -4.0828     2.6987     1.5300 C.3     
  21 C21           -5.4534     3.3670     1.4042 C.3     
  22 O22           -4.1308     1.7025     2.5533 O.3     
  23 C23           -3.7965     2.1893     3.8546 C.3     
  24 H24           -1.5673    -0.9600    -1.0141 H       
  25 H25           -1.0801    -1.7283     0.5167 H       
  26 H26           -3.2884    -0.4612     0.5784 H       
  27 H27           -2.1064    -0.0112     1.8189 H       
  28 H28            1.6474     2.8081     0.0018 H       
  29 H29            3.8907    -0.0089     0.8532 H       
  30 H30            3.8728     0.0010    -0.9266 H       
  31 H31            5.4482     4.0930    -0.0301 H       
  32 H32            5.7706    -0.1685    -0.0460 H       
  33 H33            8.2246     0.0215    -0.0698 H       
  34 H34            9.2889     2.2408    -0.0789 H       
  35 H35            7.9027     4.2746    -0.0585 H       
  36 H36           -3.6739     2.8040    -0.5825 H       
  37 H37           -4.4581     1.2941    -0.0597 H       
  38 H38           -3.3351     3.4487     1.7878 H       
  39 H39           -5.7187     3.8333     2.3530 H       
  40 H40           -5.4168     4.1269     0.6236 H       
  41 H41           -6.2011     2.6170     1.1463 H       
  42 H42           -4.4953     2.9762     4.1387 H       
  43 H43           -3.8563     1.3730     4.5744 H       
  44 H44           -2.7830     2.5902     3.8432 H       
@<TRIPOS>BOND
   1    1    2 1
   2    1    7 2
   3    1    6 1
   4    2    3 1
   5    2    9 1
   6    3    4 1
   7    3   24 1
   8    3   25 1
   9    4    5 1
  10    4   26 1
  11    4   27 1
  12    5    6 am
  13    5   19 1
  14    6   13 2
  15    7    8 1
  16    7   28 1
  17    8    9 2
  18    8   10 1
  19   10   11 1
  20   10   29 1
  21   10   30 1
  22   11   12 1
  23   12   14 ar
  24   12   15 ar
  25   14   18 ar
  26   14   31 1
  27   15   16 ar
  28   15   32 1
  29   16   17 ar
  30   16   33 1
  31   17   18 ar
  32   17   34 1
  33   18   35 1
  34   19   20 1
  35   19   36 1
  36   19   37 1
  37   20   21 1
  38   20   22 1
  39   20   38 1
  40   21   39 1
  41   21   40 1
  42   21   41 1
  43   22   23 1
  44   23   42 1
  45   23   43 1
  46   23   44 1

#	End of record

