#	Name: ASD03331272
#	Creating user name:	WinNT
#	Creation time:	15. 06. 2019 20:38

#	Modifying user name:	WinNT
#	Modification time:	15. 06. 2019 20:38

#	Program:	/corina/corina34_cracker 3.40 0067  02.08.2006

@<TRIPOS>MOLECULE
ASD03331272
  44   47    0    0    0
SMALL
NO_CHARGES


@<TRIPOS>ATOM
   1 N1            -0.0177     1.4669     0.0059 N.am    
   2 C2             0.0027    -0.0037     0.0034 C.3     
   3 C3             0.9025    -0.4762    -1.1435 C.3     
   4 N4             2.2197     0.1631    -1.0234 N.3     
   5 C5             2.1181     1.6223    -1.1592 C.3     
   6 C6             1.2681     2.1807    -0.0130 C.3     
   7 C7            -1.1838     2.1425     0.0194 C.2     
   8 O8            -2.2363     1.5402    -0.0668 O.2     
   9 N9            -1.1831     3.4859     0.1284 N.am    
  10 C10           -2.3760     4.1909     0.0337 C.ar    
  11 N11           -2.3571     5.5104     0.1431 N.ar    
  12 C12           -3.4751     6.2123     0.0572 C.ar    
  13 C13           -4.6749     5.5498    -0.1497 C.ar    
  14 C14           -4.6581     4.1682    -0.2596 C.ar    
  15 N15           -3.5041     3.5279    -0.1693 N.ar    
  16 C16            3.1653    -0.3920    -2.0009 C.3     
  17 C17            4.4184     0.4449    -2.0188 C.ar    
  18 C18            5.4670     0.1347    -1.1736 C.ar    
  19 C19            6.6187     0.9000    -1.1861 C.ar    
  20 C20            6.7239     1.9801    -2.0466 C.ar    
  21 C21            5.6671     2.2925    -2.8989 C.ar    
  22 C22            4.5188     1.5182    -2.8850 C.ar    
  23 O23            7.7303     2.8791    -2.2521 O.3     
  24 C24            7.4431     3.4941    -3.5219 C.3     
  25 O25            6.0119     3.3871    -3.6380 O.3     
  26 H26            0.3983    -0.3660     0.9523 H       
  27 H27           -1.0082    -0.3837    -0.1440 H       
  28 H28            1.0178    -1.5589    -1.0930 H       
  29 H29            0.4507    -0.2021    -2.0968 H       
  30 H30            3.1150     2.0615    -1.1202 H       
  31 H31            1.6494     1.8671    -2.1124 H       
  32 H32            1.0938     3.2450    -0.1712 H       
  33 H33            1.7854     2.0284     0.9343 H       
  34 H34           -0.3495     3.9603     0.2730 H       
  35 H35           -3.4533     7.2883     0.1476 H       
  36 H36           -5.6025     6.0980    -0.2234 H       
  37 H37           -5.5754     3.6215    -0.4211 H       
  38 H38            3.4161    -1.4157    -1.7229 H       
  39 H39            2.7099    -0.3856    -2.9912 H       
  40 H40            5.3866    -0.7070    -0.5017 H       
  41 H41            7.4364     0.6554    -0.5243 H       
  42 H42            3.6982     1.7579    -3.5449 H       
  43 H43            7.7499     4.5400    -3.5190 H       
  44 H44            7.9344     2.9521    -4.3299 H       
@<TRIPOS>BOND
   1    1    2 1
   2    1    6 1
   3    1    7 am
   4    2    3 1
   5    2   26 1
   6    2   27 1
   7    3    4 1
   8    3   28 1
   9    3   29 1
  10    4    5 1
  11    4   16 1
  12    5    6 1
  13    5   30 1
  14    5   31 1
  15    6   32 1
  16    6   33 1
  17    7    8 2
  18    7    9 am
  19    9   10 1
  20    9   34 1
  21   10   11 ar
  22   10   15 ar
  23   11   12 ar
  24   12   13 ar
  25   12   35 1
  26   13   14 ar
  27   13   36 1
  28   14   15 ar
  29   14   37 1
  30   16   17 1
  31   16   38 1
  32   16   39 1
  33   17   18 ar
  34   17   22 ar
  35   18   19 ar
  36   18   40 1
  37   19   20 ar
  38   19   41 1
  39   20   21 ar
  40   20   23 1
  41   21   22 ar
  42   21   25 1
  43   22   42 1
  44   23   24 1
  45   24   25 1
  46   24   43 1
  47   24   44 1

#	End of record

