#	Name: ASD04880933
#	Creating user name:	WinNT
#	Creation time:	15. 06. 2019 20:53

#	Modifying user name:	WinNT
#	Modification time:	15. 06. 2019 20:53

#	Program:	/corina/corina34_cracker 3.40 0067  02.08.2006

@<TRIPOS>MOLECULE
ASD04880933
  78   83    0    0    0
SMALL
NO_CHARGES


@<TRIPOS>ATOM
   1 C1            -0.4593     1.4430    -0.7058 C.2     
   2 C2            -0.3541     0.0087    -0.4201 C.2     
   3 O3             0.6657    -0.4413     0.0689 O.2     
   4 N4            -1.3866    -0.8115    -0.6989 N.am    
   5 C5            -1.2479    -2.1951    -0.5284 C.ar    
   6 C6            -2.3459    -2.9649    -0.1330 C.ar    
   7 C7            -2.2096    -4.3375     0.0369 C.ar    
   8 C8            -0.9928    -4.9445    -0.1839 C.ar    
   9 C9             0.1087    -4.1811    -0.5792 C.ar    
  10 C10           -0.0271    -2.8009    -0.7564 C.ar    
  11 C11            1.4117    -4.8314    -0.8151 C.2     
  12 O12            2.3698    -4.1663    -1.1591 O.2     
  13 N13            1.5403    -6.1628    -0.6494 N.am    
  14 C14            2.8342    -6.8085    -0.8836 C.3     
  15 N15           -3.5777    -2.3554     0.0912 N.3     
  16 C16           -3.5187    -1.4616     1.2563 C.3     
  17 C17           -4.8652    -0.7528     1.4208 C.3     
  18 N18           -5.9271    -1.7556     1.5832 N.3     
  19 C19           -5.9861    -2.6494     0.4181 C.3     
  20 C20           -4.6396    -3.3582     0.2536 C.3     
  21 C21           -7.1627    -1.1443     1.8081 C.ar    
  22 C22           -7.3861    -0.4375     2.9832 C.ar    
  23 C23           -8.6085     0.1660     3.2022 C.ar    
  24 C24           -9.6102     0.0672     2.2536 C.ar    
  25 C25           -9.3912    -0.6354     1.0831 C.ar    
  26 C26           -8.1687    -1.2367     0.8551 C.ar    
  27 C27           -6.2956    -0.3301     4.0178 C.3     
  28 C28            0.5063     2.3804    -0.4739 C.2     
  29 C29           -0.0178     3.6124    -0.8955 C.2     
  30 C30           -1.2644     3.3761    -1.3603 C.2     
  31 O31           -1.5249     2.0670    -1.2493 O.3     
  32 C32            2.6372    -8.1610    -1.6019 C.3     
  33 C33            3.7178    -9.0807    -0.9681 C.3     
  34 C34            4.4300    -8.1666     0.0522 C.3     
  35 O35            3.4632    -7.1430     0.3722 O.3     
  36 C36            4.8016    -8.9586     1.3074 C.3     
  37 O37            3.0416    -8.0172    -2.9782 O.3     
  38 O38            4.6300    -9.3691    -2.0466 O.3     
  39 C39            3.8513    -9.1814    -3.2475 C.3     
  40 C40            2.9637   -10.4010    -3.5037 C.3     
  41 C41            4.7696    -8.9274    -4.4446 C.3     
  42 O42            5.5604    -8.1272     2.1879 O.3     
  43 H43           -2.2257    -0.4438    -1.0176 H       
  44 H44           -3.0594    -4.9295     0.3431 H       
  45 H45           -0.8901    -6.0114    -0.0509 H       
  46 H46            0.8213    -2.2090    -1.0666 H       
  47 H47            0.7760    -6.6934    -0.3749 H       
  48 H48            3.4825    -6.1583    -1.4710 H       
  49 H49           -3.3030    -2.0449     2.1515 H       
  50 H50           -2.7335    -0.7206     1.1067 H       
  51 H51           -4.8332    -0.1112     2.3013 H       
  52 H52           -5.0681    -0.1480     0.5370 H       
  53 H53           -6.7713    -3.3904     0.5677 H       
  54 H54           -6.2018    -2.0661    -0.4771 H       
  55 H55           -4.6716    -3.9998    -0.6270 H       
  56 H56           -4.4367    -3.9630     1.1374 H       
  57 H57           -8.7829     0.7156     4.1154 H       
  58 H58          -10.5656     0.5396     2.4277 H       
  59 H59          -10.1754    -0.7107     0.3444 H       
  60 H60           -7.9968    -1.7817    -0.0614 H       
  61 H61           -5.7361     0.5922     3.8616 H       
  62 H62           -6.7391    -0.3219     5.0135 H       
  63 H63           -5.6230    -1.1829     3.9266 H       
  64 H64            1.4836     2.2074    -0.0481 H       
  65 H65            0.4813     4.5693    -0.8555 H       
  66 H66           -1.9382     4.1198    -1.7595 H       
  67 H67            1.6268    -8.5544    -1.4894 H       
  68 H68            3.2969    -9.9757    -0.5099 H       
  69 H69            5.3196    -7.7217    -0.3936 H       
  70 H70            3.8931    -9.2878     1.8116 H       
  71 H71            5.3963    -9.8276     1.0259 H       
  72 H72            2.3398   -10.2189    -4.3788 H       
  73 H73            3.5899   -11.2757    -3.6795 H       
  74 H74            2.3289   -10.5773    -2.6353 H       
  75 H75            5.4057    -8.0666    -4.2384 H       
  76 H76            5.3915    -9.8056    -4.6182 H       
  77 H77            4.1657    -8.7291    -5.3301 H       
  78 H78            5.8310    -8.5651     3.0065 H       
@<TRIPOS>BOND
   1    1    2 1
   2    1   28 2
   3    1   31 1
   4    2    3 2
   5    2    4 am
   6    4    5 1
   7    4   43 1
   8    5    6 ar
   9    5   10 ar
  10    6    7 ar
  11    6   15 1
  12    7    8 ar
  13    7   44 1
  14    8    9 ar
  15    8   45 1
  16    9   10 ar
  17    9   11 1
  18   10   46 1
  19   11   12 2
  20   11   13 am
  21   13   14 1
  22   13   47 1
  23   14   32 1
  24   14   35 1
  25   14   48 1
  26   15   16 1
  27   15   20 1
  28   16   17 1
  29   16   49 1
  30   16   50 1
  31   17   18 1
  32   17   51 1
  33   17   52 1
  34   18   19 1
  35   18   21 1
  36   19   20 1
  37   19   53 1
  38   19   54 1
  39   20   55 1
  40   20   56 1
  41   21   22 ar
  42   21   26 ar
  43   22   23 ar
  44   22   27 1
  45   23   24 ar
  46   23   57 1
  47   24   25 ar
  48   24   58 1
  49   25   26 ar
  50   25   59 1
  51   26   60 1
  52   27   61 1
  53   27   62 1
  54   27   63 1
  55   28   29 1
  56   28   64 1
  57   29   30 2
  58   29   65 1
  59   30   31 1
  60   30   66 1
  61   32   33 1
  62   32   37 1
  63   32   67 1
  64   33   34 1
  65   33   38 1
  66   33   68 1
  67   34   35 1
  68   34   36 1
  69   34   69 1
  70   36   42 1
  71   36   70 1
  72   36   71 1
  73   37   39 1
  74   38   39 1
  75   39   40 1
  76   39   41 1
  77   40   72 1
  78   40   73 1
  79   40   74 1
  80   41   75 1
  81   41   76 1
  82   41   77 1
  83   42   78 1

#	End of record

