#	Name: ASD04930063
#	Creating user name:	WinNT
#	Creation time:	15. 06. 2019 20:56

#	Modifying user name:	WinNT
#	Modification time:	15. 06. 2019 20:56

#	Program:	/corina/corina34_cracker 3.40 0067  02.08.2006

@<TRIPOS>MOLECULE
ASD04930063
  60   61    0    0    0
SMALL
NO_CHARGES


@<TRIPOS>ATOM
   1 N1             1.4343     1.3614    -1.2660 N.am    
   2 C2             1.4484     0.0177    -1.2700 C.2     
   3 C3             1.2741    -0.7384    -0.0307 C.2     
   4 C4             1.0916    -0.0439     1.1678 C.2     
   5 C5             1.0833     1.4216     1.1271 C.ar    
   6 C6             0.9036     2.1655     2.2995 C.ar    
   7 C7             0.8980     3.5296     2.2444 C.ar    
   8 C8             1.0694     4.1867     1.0320 C.ar    
   9 C9             1.2479     3.4732    -0.1349 C.ar    
  10 C10            1.2567     2.0817    -0.1026 C.ar    
  11 C11            1.2901    -2.2062    -0.0457 C.2     
  12 O12            2.3460    -2.8021    -0.1487 O.2     
  13 N13            0.1353    -2.8937     0.0548 N.am    
  14 N14            0.1378    -4.2892    -0.0692 N.am    
  15 O15            1.6082    -0.5785    -2.3202 O.2     
  16 O16            0.9267    -0.7049     2.3327 O.3     
  17 C17           -1.0170    -4.9768     0.0312 C.2     
  18 C18           -1.0143    -6.4779    -0.1021 C.3     
  19 C19           -2.4421    -7.0061     0.0506 C.3     
  20 C20           -2.4393    -8.5300    -0.0848 C.3     
  21 C21           -3.8671    -9.0582     0.0679 C.3     
  22 C22           -3.8643   -10.5822    -0.0675 C.3     
  23 C23           -5.2921   -11.1104     0.0852 C.3     
  24 C24           -5.2894   -12.6344    -0.0502 C.3     
  25 C25           -6.7172   -13.1626     0.1025 C.3     
  26 C26           -6.7144   -14.6866    -0.0329 C.3     
  27 C27           -8.1422   -15.2147     0.1198 C.3     
  28 C28           -8.1394   -16.7387    -0.0156 C.3     
  29 O29           -2.0584    -4.3875     0.2289 O.2     
  30 Cl30           1.0582     5.9220     0.9855 Cl      
  31 H31            1.5562     1.8374    -2.1023 H       
  32 H32            0.7695     1.6615     3.2452 H       
  33 H33            0.7590     4.1022     3.1495 H       
  34 H34            1.3800     3.9934    -1.0721 H       
  35 H35           -0.6977    -2.4224     0.2129 H       
  36 H36            0.9707    -4.7606    -0.2273 H       
  37 H37            0.8694    -1.6652     2.2352 H       
  38 H38           -0.6274    -6.7548    -1.0828 H       
  39 H39           -0.3820    -6.9104     0.6733 H       
  40 H40           -2.8290    -6.7291     1.0312 H       
  41 H41           -3.0744    -6.5735    -0.7249 H       
  42 H42           -2.0524    -8.8070    -1.0655 H       
  43 H43           -1.8071    -8.9626     0.6906 H       
  44 H44           -4.2540    -8.7813     1.0485 H       
  45 H45           -4.4994    -8.6257    -0.7076 H       
  46 H46           -3.4774   -10.8592    -1.0482 H       
  47 H47           -3.2321   -11.0147     0.7079 H       
  48 H48           -5.6790   -10.8335     1.0658 H       
  49 H49           -5.9244   -10.6779    -0.6903 H       
  50 H50           -4.9025   -12.9113    -1.0309 H       
  51 H51           -4.6571   -13.0669     0.7252 H       
  52 H52           -7.1041   -12.8856     1.0831 H       
  53 H53           -7.3494   -12.7301    -0.6730 H       
  54 H54           -6.3275   -14.9635    -1.0136 H       
  55 H55           -6.0821   -15.1191     0.7425 H       
  56 H56           -8.5291   -14.9378     1.1004 H       
  57 H57           -8.7744   -14.7822    -0.6557 H       
  58 H58           -9.1566   -17.1150     0.0931 H       
  59 H59           -7.7525   -17.0157    -0.9963 H       
  60 H60           -7.5071   -17.1712     0.7598 H       
@<TRIPOS>BOND
   1    1    2 am
   2    1   10 1
   3    1   31 1
   4    2    3 1
   5    2   15 2
   6    3    4 2
   7    3   11 1
   8    4    5 1
   9    4   16 1
  10    5    6 ar
  11    5   10 ar
  12    6    7 ar
  13    6   32 1
  14    7    8 ar
  15    7   33 1
  16    8    9 ar
  17    8   30 1
  18    9   10 ar
  19    9   34 1
  20   11   12 2
  21   11   13 am
  22   13   14 1
  23   13   35 1
  24   14   17 am
  25   14   36 1
  26   16   37 1
  27   17   18 1
  28   17   29 2
  29   18   19 1
  30   18   38 1
  31   18   39 1
  32   19   20 1
  33   19   40 1
  34   19   41 1
  35   20   21 1
  36   20   42 1
  37   20   43 1
  38   21   22 1
  39   21   44 1
  40   21   45 1
  41   22   23 1
  42   22   46 1
  43   22   47 1
  44   23   24 1
  45   23   48 1
  46   23   49 1
  47   24   25 1
  48   24   50 1
  49   24   51 1
  50   25   26 1
  51   25   52 1
  52   25   53 1
  53   26   27 1
  54   26   54 1
  55   26   55 1
  56   27   28 1
  57   27   56 1
  58   27   57 1
  59   28   58 1
  60   28   59 1
  61   28   60 1

#	End of record

