#	Name: ASD01948277
#	Creating user name:	WinNT
#	Creation time:	15. 06. 2019 20:14

#	Modifying user name:	WinNT
#	Modification time:	15. 06. 2019 20:14

#	Program:	/corina/corina34_cracker 3.40 0067  02.08.2006

@<TRIPOS>MOLECULE
ASD01948277
  39   41    0    0    0
SMALL
NO_CHARGES


@<TRIPOS>ATOM
   1 C1             1.4573     4.9333    -1.2941 C.ar    
   2 C2             1.9399     4.9384    -2.5910 C.ar    
   3 C3             3.0501     4.1831    -2.9221 C.ar    
   4 C4             3.6818     3.4202    -1.9587 C.ar    
   5 C5             3.2017     3.4120    -0.6562 C.ar    
   6 C6             2.0846     4.1726    -0.3252 C.ar    
   7 N7             4.6430     0.4967    -0.3108 N.am    
   8 C8             4.8850     1.8091    -0.0290 C.2     
   9 N9             3.8390     2.6402     0.3210 N.pl3   
  10 C10            5.6466    -0.3317    -0.6541 C.2     
  11 C11            6.9617     0.1414    -0.7277 C.2     
  12 C12            7.2260     1.4669    -0.4460 C.2     
  13 C13            6.1708     2.3121    -0.0912 C.2     
  14 N14            6.4161     3.6666     0.2008 N.am    
  15 I15            0.9863     6.0925    -4.0565 I       
  16 O16            5.4081    -1.5044    -0.9027 O.2     
  17 F17            1.6141     4.1682     0.9412 F       
  18 C18            3.2741    -0.0192    -0.2330 C.3     
  19 S19            7.9410     4.2882     0.0263 S.o2    
  20 O20            7.8059     5.6552     0.3903 O.2     
  21 O21            8.7662     3.4082     0.7772 O.2     
  22 C22            8.2928     4.1333    -1.7465 C.3     
  23 C23            9.6373     4.6635    -2.2489 C.3     
  24 C24            9.3924     3.1555    -2.1657 C.3     
  25 F25            7.9663    -0.6938    -1.0719 F       
  26 H26            0.5926     5.5274    -1.0378 H       
  27 H27            3.4237     4.1893    -3.9354 H       
  28 H28            4.5482     2.8303    -2.2189 H       
  29 H29            3.5462     2.6887     1.2445 H       
  30 H30            8.2359     1.8460    -0.4983 H       
  31 H31            5.6919     4.2361     0.5042 H       
  32 H32            2.7600     0.1710    -1.1751 H       
  33 H33            3.3004    -1.0923    -0.0437 H       
  34 H34            2.7433     0.4798     0.5778 H       
  35 H35            7.4323     4.2370    -2.4074 H       
  36 H36            9.6612     5.1156    -3.2404 H       
  37 H37           10.3103     5.1054    -1.5141 H       
  38 H38            9.9044     2.6053    -1.3763 H       
  39 H39            9.2553     2.6155    -3.1026 H       
@<TRIPOS>BOND
   1    1    2 ar
   2    1    6 ar
   3    1   26 1
   4    2    3 ar
   5    2   15 1
   6    3    4 ar
   7    3   27 1
   8    4    5 ar
   9    4   28 1
  10    5    6 ar
  11    5    9 1
  12    6   17 1
  13    7    8 1
  14    7   10 am
  15    7   18 1
  16    8    9 1
  17    8   13 2
  18    9   29 1
  19   10   11 1
  20   10   16 2
  21   11   12 2
  22   11   25 1
  23   12   13 1
  24   12   30 1
  25   13   14 1
  26   14   19 am
  27   14   31 1
  28   18   32 1
  29   18   33 1
  30   18   34 1
  31   19   20 2
  32   19   21 2
  33   19   22 1
  34   22   23 1
  35   22   24 1
  36   22   35 1
  37   23   24 1
  38   23   36 1
  39   23   37 1
  40   24   38 1
  41   24   39 1

#	End of record

