#	Name: ASD03331784
#	Creating user name:	WinNT
#	Creation time:	15. 06. 2019 20:39

#	Modifying user name:	WinNT
#	Modification time:	15. 06. 2019 20:39

#	Program:	/corina/corina34_cracker 3.40 0067  02.08.2006

@<TRIPOS>MOLECULE
ASD03331784
  67   68    0    0    0
SMALL
NO_CHARGES


@<TRIPOS>ATOM
   1 O1            -0.0110     0.9628     0.0073 O.3     
   2 O2             3.5585     5.3644    -2.0629 O.3     
   3 O3             7.5031     3.8906     3.7292 O.3     
   4 C4             3.3112     3.2787     1.2374 C.3     
   5 C5             2.5340     3.7264    -0.0021 C.3     
   6 C6             3.4527     1.7552     1.2278 C.3     
   7 C7             1.1449     3.0852     0.0077 C.3     
   8 C8             1.2864     1.5618    -0.0018 C.3     
   9 C9             2.0636     1.1140     1.2377 C.3     
  10 C10            4.7003     3.9199     1.2275 C.3     
  11 C11            2.3946     5.2270     0.0073 C.ar    
  12 C12            5.4313     3.5732     2.5261 C.3     
  13 C13            1.9954     9.4834     0.0378 C.3     
  14 C14            2.9184     5.9793    -1.0338 C.ar    
  15 C15            1.7401     5.8540     1.0500 C.ar    
  16 C16            2.1374     7.9831     0.0249 C.ar    
  17 C17            1.2413     9.9134     1.2977 C.3     
  18 C18            2.7880     7.3606    -1.0225 C.ar    
  19 C19            1.6115     7.2305     1.0590 C.ar    
  20 C20            6.8204     4.2144     2.5163 C.3     
  21 C21            3.3834    10.1271     0.0295 C.3     
  22 C22            1.2174     9.9328    -1.2006 C.3     
  23 C23            1.0972    11.4366     1.3109 C.3     
  24 C24            0.3431    11.8666     2.5707 C.3     
  25 C25            0.1990    13.3898     2.5839 C.3     
  26 C26           -0.5551    13.8198     3.8438 C.3     
  27 C27           -0.6993    15.3430     3.8569 C.3     
  28 H28            2.7745     3.5881     2.1342 H       
  29 H29            3.0707     3.4170    -0.8989 H       
  30 H30            3.9894     1.4458     0.3310 H       
  31 H31            4.0064     1.4362     2.1109 H       
  32 H32            0.6082     3.3946     0.9045 H       
  33 H33            0.5912     3.4042    -0.8753 H       
  34 H34            1.8231     1.2523    -0.8987 H       
  35 H35            2.1644     0.0287     1.2309 H       
  36 H36            1.5269     1.4234     2.1345 H       
  37 H37            5.2691     3.5416     0.3782 H       
  38 H38            4.6003     5.0022     1.1447 H       
  39 H39            4.8624     3.9515     3.3755 H       
  40 H40            5.5313     2.4909     2.6089 H       
  41 H41            1.3282     5.2684     1.8586 H       
  42 H42            0.0021    -0.0041     0.0020 H       
  43 H43            0.2525     9.4548     1.3036 H       
  44 H44            1.7956     9.5933     2.1800 H       
  45 H45            3.1953     7.9486    -1.8317 H       
  46 H46            1.0992     7.7187     1.8748 H       
  47 H47            6.7204     5.2967     2.4335 H       
  48 H48            7.3892     3.8361     1.6670 H       
  49 H49            3.9206     9.8207    -0.8680 H       
  50 H50            3.2807    11.2122     0.0389 H       
  51 H51            3.9376     9.8069     0.9118 H       
  52 H52            0.2286     9.4742    -1.1947 H       
  53 H53            1.1147    11.0179    -1.1912 H       
  54 H54            1.7546     9.6264    -2.0981 H       
  55 H55            2.0860    11.8952     1.3050 H       
  56 H56            0.5429    11.7567     0.4286 H       
  57 H57           -0.6457    11.4080     2.5767 H       
  58 H58            0.8973    11.5465     3.4530 H       
  59 H59            2.9781     5.1175    -2.7958 H       
  60 H60            1.1878    13.8484     2.5780 H       
  61 H61           -0.3553    13.7099     1.7016 H       
  62 H62            8.3925     4.2649     3.7919 H       
  63 H63           -1.5440    13.3612     3.8497 H       
  64 H64           -0.0009    13.4997     4.7260 H       
  65 H65            0.2895    15.8016     3.8510 H       
  66 H66           -1.2535    15.6631     2.9747 H       
  67 H67           -1.2365    15.6493     4.7545 H       
@<TRIPOS>BOND
   1    1   42 1
   2    1    8 1
   3    2   14 1
   4    2   59 1
   5    3   20 1
   6    3   62 1
   7    4    5 1
   8    4    6 1
   9    4   10 1
  10    4   28 1
  11    5    7 1
  12    5   11 1
  13    5   29 1
  14    6    9 1
  15    6   30 1
  16    6   31 1
  17    7    8 1
  18    7   32 1
  19    7   33 1
  20    8    9 1
  21    8   34 1
  22    9   35 1
  23    9   36 1
  24   10   12 1
  25   10   37 1
  26   10   38 1
  27   11   14 ar
  28   11   15 ar
  29   12   20 1
  30   12   39 1
  31   12   40 1
  32   13   16 1
  33   13   17 1
  34   13   21 1
  35   13   22 1
  36   14   18 ar
  37   15   19 ar
  38   15   41 1
  39   16   18 ar
  40   16   19 ar
  41   17   23 1
  42   17   43 1
  43   17   44 1
  44   18   45 1
  45   19   46 1
  46   20   47 1
  47   20   48 1
  48   21   49 1
  49   21   50 1
  50   21   51 1
  51   22   52 1
  52   22   53 1
  53   22   54 1
  54   23   24 1
  55   23   55 1
  56   23   56 1
  57   24   25 1
  58   24   57 1
  59   24   58 1
  60   25   26 1
  61   25   60 1
  62   25   61 1
  63   26   27 1
  64   26   63 1
  65   26   64 1
  66   27   65 1
  67   27   66 1
  68   27   67 1

#	End of record

