#	Name: ASD00172017
#	Creating user name:	WinNT
#	Creation time:	15. 06. 2019 18:33

#	Modifying user name:	WinNT
#	Modification time:	15. 06. 2019 18:33

#	Program:	/corina/corina34_cracker 3.40 0067  02.08.2006

@<TRIPOS>MOLECULE
ASD00172017
  42   44    0    0    0
SMALL
NO_CHARGES


@<TRIPOS>ATOM
   1 C1            -0.0216     1.3350    -0.1124 C.2     
   2 C2             0.0099     0.0095    -0.1451 C.2     
   3 C3            -1.3394    -0.5636    -0.0805 C.2     
   4 C4            -2.3273     0.3688     0.0606 C.2     
   5 S5            -1.6658     1.9343     0.0986 S.3     
   6 N6            -3.6735     0.0805     0.1586 N.pl3   
   7 C7            -1.6020    -2.0003    -0.1604 C.2     
   8 C8            -1.7889    -2.6457    -1.4778 C.ar    
   9 O9            -1.6667    -2.6650     0.8579 O.2     
  10 C10           -1.9319    -4.0317    -1.5652 C.ar    
  11 C11           -2.1064    -4.6278    -2.7963 C.ar    
  12 C12           -2.1400    -3.8543    -3.9448 C.ar    
  13 C13           -1.9983    -2.4788    -3.8645 C.ar    
  14 C14           -1.8290    -1.8708    -2.6384 C.ar    
  15 C15            1.1707     2.2631    -0.2466 C.3     
  16 C16            1.5538     2.3315    -1.7280 C.3     
  17 C17            1.7710     0.9062    -2.2464 C.3     
  18 C18            2.9382     0.3577    -1.4507 C.3     
  19 C19            2.5393    -0.1904    -0.0921 C.3     
  20 C20            1.2099    -0.9320    -0.1503 C.3     
  21 C21            0.4270     2.9990    -2.5191 C.3     
  22 Cl22          -2.3601    -4.6118    -5.4913 Cl      
  23 H23           -3.9829    -0.8326     0.0523 H       
  24 H24           -4.3101     0.7911     0.3338 H       
  25 H25           -1.9054    -4.6358    -0.6703 H       
  26 H26           -2.2167    -5.6999    -2.8652 H       
  27 H27           -2.0247    -1.8808    -4.7634 H       
  28 H28           -1.7186    -0.7982    -2.5769 H       
  29 H29            0.9053     3.2578     0.1115 H       
  30 H30            2.0078     1.8735     0.3327 H       
  31 H31            2.4732     2.9059    -1.8417 H       
  32 H32            0.8802     0.3025    -2.0733 H       
  33 H33            2.0147     0.9247    -3.3086 H       
  34 H34            3.4080    -0.4407    -2.0251 H       
  35 H35            3.6671     1.1550    -1.3052 H       
  36 H36            3.3129    -0.8748     0.2560 H       
  37 H37            2.4544     0.6361     0.6135 H       
  38 H38            1.1396    -1.5965     0.7108 H       
  39 H39            1.1817    -1.5330    -1.0592 H       
  40 H40            0.2652     4.0080    -2.1398 H       
  41 H41            0.7017     3.0466    -3.5728 H       
  42 H42           -0.4885     2.4179    -2.4081 H       
@<TRIPOS>BOND
   1    1    2 2
   2    1   15 1
   3    1    5 1
   4    2    3 1
   5    2   20 1
   6    3    4 2
   7    3    7 1
   8    4    5 1
   9    4    6 1
  10    6   23 1
  11    6   24 1
  12    7    8 1
  13    7    9 2
  14    8   10 ar
  15    8   14 ar
  16   10   11 ar
  17   10   25 1
  18   11   12 ar
  19   11   26 1
  20   12   13 ar
  21   12   22 1
  22   13   14 ar
  23   13   27 1
  24   14   28 1
  25   15   16 1
  26   15   29 1
  27   15   30 1
  28   16   17 1
  29   16   21 1
  30   16   31 1
  31   17   18 1
  32   17   32 1
  33   17   33 1
  34   18   19 1
  35   18   34 1
  36   18   35 1
  37   19   20 1
  38   19   36 1
  39   19   37 1
  40   20   38 1
  41   20   39 1
  42   21   40 1
  43   21   41 1
  44   21   42 1

#	End of record

