#	Name: ASD01148921
#	Creating user name:	WinNT
#	Creation time:	15. 06. 2019 19:03

#	Modifying user name:	WinNT
#	Modification time:	15. 06. 2019 19:03

#	Program:	/corina/corina34_cracker 3.40 0067  02.08.2006

@<TRIPOS>MOLECULE
ASD01148921
  44   46    0    0    0
SMALL
NO_CHARGES


@<TRIPOS>ATOM
   1 C1            -0.4573     0.2898    -0.4683 C.ar    
   2 C2            -0.1352    -1.0549    -0.4508 C.ar    
   3 C3             1.1841    -1.4490    -0.3424 C.ar    
   4 C4             2.1873    -0.4935    -0.2508 C.ar    
   5 C5             1.8607     0.8558    -0.2686 C.ar    
   6 C6             0.5396     1.2437    -0.3773 C.ar    
   7 S7            -2.1409     0.7887    -0.6141 S.o2    
   8 O8            -2.1244     2.1054    -1.1483 O.2     
   9 O9            -2.8276    -0.2917    -1.2309 O.2     
  10 N10           -2.7497     0.9143     0.9208 N.am    
  11 C11           -2.6620     2.1866     1.6417 C.3     
  12 C12           -3.3758    -0.2469     1.5578 C.3     
  13 N13            3.5268    -0.8903    -0.1402 N.pl3   
  14 C14            4.4996    -0.7042    -1.0918 C.2     
  15 C15            5.6618    -1.2262    -0.6090 C.2     
  16 C16            5.3907    -1.7434     0.6687 C.2     
  17 C17            4.0851    -1.5214     0.9339 C.2     
  18 C18            3.3653    -1.9086     2.2000 C.3     
  19 C19            4.3177    -0.0534    -2.4067 C.ar    
  20 C20            5.4197     0.4581    -3.0938 C.ar    
  21 C21            5.2429     1.0641    -4.3216 C.ar    
  22 C22            3.9755     1.1648    -4.8708 C.ar    
  23 C23            2.8800     0.6596    -4.1941 C.ar    
  24 C24            3.0442     0.0469    -2.9687 C.ar    
  25 Cl25           6.6116     1.7017    -5.1783 Cl      
  26 H26           -0.9160    -1.7976    -0.5217 H       
  27 H27            1.4351    -2.4993    -0.3284 H       
  28 H28            2.6389     1.6013    -0.1972 H       
  29 H29            0.2849     2.2932    -0.3916 H       
  30 H30           -3.5512     2.7827     1.4363 H       
  31 H31           -2.5933     1.9937     2.7123 H       
  32 H32           -1.7763     2.7303     1.3129 H       
  33 H33           -2.6202    -0.8153     2.1000 H       
  34 H34           -4.1448     0.0906     2.2527 H       
  35 H35           -3.8285    -0.8799     0.7945 H       
  36 H36            6.6156    -1.2402    -1.1154 H       
  37 H37            6.1002    -2.2275     1.3234 H       
  38 H38            2.9560    -2.9131     2.0925 H       
  39 H39            4.0645    -1.8887     3.0360 H       
  40 H40            2.5550    -1.2041     2.3873 H       
  41 H41            6.4083     0.3802    -2.6659 H       
  42 H42            3.8419     1.6400    -5.8314 H       
  43 H43            1.8943     0.7413    -4.6278 H       
  44 H44            2.1884    -0.3510    -2.4438 H       
@<TRIPOS>BOND
   1    1    2 ar
   2    1    6 ar
   3    1    7 1
   4    2    3 ar
   5    2   26 1
   6    3    4 ar
   7    3   27 1
   8    4    5 ar
   9    4   13 1
  10    5    6 ar
  11    5   28 1
  12    6   29 1
  13    7    8 2
  14    7    9 2
  15    7   10 am
  16   10   11 1
  17   10   12 1
  18   11   30 1
  19   11   31 1
  20   11   32 1
  21   12   33 1
  22   12   34 1
  23   12   35 1
  24   13   14 1
  25   13   17 1
  26   14   15 2
  27   14   19 1
  28   15   16 1
  29   15   36 1
  30   16   17 2
  31   16   37 1
  32   17   18 1
  33   18   38 1
  34   18   39 1
  35   18   40 1
  36   19   20 ar
  37   19   24 ar
  38   20   21 ar
  39   20   41 1
  40   21   22 ar
  41   21   25 1
  42   22   23 ar
  43   22   42 1
  44   23   24 ar
  45   23   43 1
  46   24   44 1

#	End of record

