#	Name: ASD01190081
#	Creating user name:	WinNT
#	Creation time:	15. 06. 2019 19:07

#	Modifying user name:	WinNT
#	Modification time:	15. 06. 2019 19:07

#	Program:	/corina/corina34_cracker 3.40 0067  02.08.2006

@<TRIPOS>MOLECULE
ASD01190081
  50   54    0    0    0
SMALL
NO_CHARGES


@<TRIPOS>ATOM
   1 N1            -0.0734     2.0794    -0.4497 N.am    
   2 N2            -0.2922     3.3124    -1.0729 N.2     
   3 C3             0.8397     3.9245    -1.2647 C.2     
   4 C4             1.9061     3.0699    -0.7461 C.ar    
   5 C5             3.2972     3.1904    -0.6736 C.ar    
   6 C6             4.0364     2.1880    -0.1143 C.ar    
   7 C7             3.4193     1.0477     0.3838 C.ar    
   8 C8             2.0508     0.9073     0.3232 C.ar    
   9 C9             1.2780     1.9162    -0.2420 C.ar    
  10 C10           -1.0309     1.1964    -0.1034 C.2     
  11 O11           -0.7268     0.1508     0.4362 O.2     
  12 N12           -2.3256     1.4730    -0.3554 N.am    
  13 C13           -3.3665     0.5132     0.0210 C.3     
  14 C14           -4.7745     1.0586     0.2679 C.3     
  15 C15           -4.4797     0.2443    -0.9934 C.3     
  16 C16            5.5357     2.3197    -0.0371 C.3     
  17 C17            6.1293     2.2225    -1.4439 C.3     
  18 N18            6.7427     5.6847     0.8446 N.pl3   
  19 C19            6.6312     4.6172    -0.0042 C.2     
  20 C20            5.8923     3.6533     0.5675 C.2     
  21 C21            5.4984     4.1435     1.8905 C.ar    
  22 C22            4.7421     3.6119     2.9369 C.ar    
  23 C23            4.5521     4.3423     4.0758 C.ar    
  24 C24            5.1052     5.6095     4.2013 C.ar    
  25 C25            5.8543     6.1533     3.1812 C.ar    
  26 C26            6.0609     5.4270     2.0127 C.ar    
  27 C27            7.4825     6.9157     0.5559 C.3     
  28 O28            6.0647     1.2710     0.7767 O.3     
  29 F29            5.6113     3.2492    -2.2406 F       
  30 F30            7.5211     2.3448    -1.3723 F       
  31 F31            5.7982     0.9845    -2.0052 F       
  32 H32            0.9687     4.8926    -1.7258 H       
  33 H33            3.7854     4.0732    -1.0592 H       
  34 H34            4.0185     0.2636     0.8226 H       
  35 H35            1.5794     0.0171     0.7127 H       
  36 H36           -2.5684     2.3076    -0.7861 H       
  37 H37           -3.0349    -0.3219     0.6381 H       
  38 H38           -5.3694     0.5821     1.0470 H       
  39 H39           -4.9264     2.1315     0.1502 H       
  40 H40           -4.4378     0.7815    -1.9409 H       
  41 H41           -4.8807    -0.7680    -1.0441 H       
  42 H42            7.0721     4.5590    -0.9884 H       
  43 H43            4.3085     2.6269     2.8462 H       
  44 H44            3.9668     3.9308     4.8847 H       
  45 H45            4.9462     6.1747     5.1078 H       
  46 H46            6.2800     7.1401     3.2883 H       
  47 H47            6.8184     7.6347     0.0761 H       
  48 H48            7.8632     7.3374     1.4862 H       
  49 H49            8.3163     6.6911    -0.1092 H       
  50 H50            5.7312     1.2711     1.6843 H       
@<TRIPOS>BOND
   1    1    2 1
   2    1    9 1
   3    1   10 am
   4    2    3 2
   5    3    4 1
   6    3   32 1
   7    4    5 ar
   8    4    9 ar
   9    5    6 ar
  10    5   33 1
  11    6    7 ar
  12    6   16 1
  13    7    8 ar
  14    7   34 1
  15    8    9 ar
  16    8   35 1
  17   10   11 2
  18   10   12 am
  19   12   13 1
  20   12   36 1
  21   13   14 1
  22   13   15 1
  23   13   37 1
  24   14   15 1
  25   14   38 1
  26   14   39 1
  27   15   40 1
  28   15   41 1
  29   16   17 1
  30   16   20 1
  31   16   28 1
  32   17   29 1
  33   17   30 1
  34   17   31 1
  35   18   19 1
  36   18   26 1
  37   18   27 1
  38   19   20 2
  39   19   42 1
  40   20   21 1
  41   21   22 ar
  42   21   26 ar
  43   22   23 ar
  44   22   43 1
  45   23   24 ar
  46   23   44 1
  47   24   25 ar
  48   24   45 1
  49   25   26 ar
  50   25   46 1
  51   27   47 1
  52   27   48 1
  53   27   49 1
  54   28   50 1

#	End of record

