#	Name: ASD01880420
#	Creating user name:	WinNT
#	Creation time:	15. 06. 2019 19:40

#	Modifying user name:	WinNT
#	Modification time:	15. 06. 2019 19:40

#	Program:	/corina/corina34_cracker 3.40 0067  02.08.2006

@<TRIPOS>MOLECULE
ASD01880420
  26   26    0    0    0
SMALL
NO_CHARGES


@<TRIPOS>ATOM
   1 O1             0.6258     0.3336     1.0314 O.3     
   2 C2            -0.0056     0.0045    -0.1065 C.2     
   3 O3             0.4617     0.3294    -1.1723 O.2     
   4 C4            -1.2972    -0.7701    -0.0547 C.3     
   5 C5            -2.1826    -0.4027    -1.2634 C.3     
   6 C6            -2.8620    -1.7380    -1.6564 C.3     
   7 C7            -1.7338    -2.7750    -1.4308 C.3     
   8 C8            -1.0119    -2.2784    -0.1612 C.3     
   9 C9             0.4712    -2.5158    -0.2844 C.2     
  10 O10            0.9898    -2.5445    -1.3753 O.2     
  11 O11            1.2160    -2.6955     0.8178 O.3     
  12 N12           -4.0079    -2.0166    -0.7804 N.3     
  13 C13           -3.2861    -1.7162    -3.1023 C.2     
  14 O14           -2.7195    -0.9932    -3.8872 O.2     
  15 O15           -4.2934    -2.4999    -3.5182 O.3     
  16 H16            1.4510     0.8306     0.9477 H       
  17 H17           -1.8250    -0.5539     0.8742 H       
  18 H18           -2.9309     0.3364    -0.9775 H       
  19 H19           -1.5709    -0.0297    -2.0849 H       
  20 H20           -2.1546    -3.7670    -1.2671 H       
  21 H21           -1.0497    -2.7850    -2.2794 H       
  22 H22           -1.4015    -2.7950     0.7160 H       
  23 H23            2.1627    -2.8444     0.6885 H       
  24 H24           -4.4534    -2.8859    -1.0332 H       
  25 H25           -3.7289    -2.0219     0.1893 H       
  26 H26           -4.5295    -2.4514    -4.4547 H       
@<TRIPOS>BOND
   1    1    2 1
   2    1   16 1
   3    2    3 2
   4    2    4 1
   5    4    5 1
   6    4    8 1
   7    4   17 1
   8    5    6 1
   9    5   18 1
  10    5   19 1
  11    6    7 1
  12    6   12 1
  13    6   13 1
  14    7    8 1
  15    7   20 1
  16    7   21 1
  17    8    9 1
  18    8   22 1
  19    9   10 2
  20    9   11 1
  21   11   23 1
  22   12   24 1
  23   12   25 1
  24   13   14 2
  25   13   15 1
  26   15   26 1

#	End of record

