#	Name: ASD01884709
#	Creating user name:	WinNT
#	Creation time:	15. 06. 2019 19:48

#	Modifying user name:	WinNT
#	Modification time:	15. 06. 2019 19:48

#	Program:	/corina/corina34_cracker 3.40 0067  02.08.2006

@<TRIPOS>MOLECULE
ASD01884709
  38   39    0    0    0
SMALL
NO_CHARGES


@<TRIPOS>ATOM
   1 C1            -0.0164     1.3569     0.0095 C.2     
   2 C2             0.0021    -0.0041     0.0020 C.2     
   3 C3             1.2451    -0.6752    -0.0135 C.2     
   4 C4             2.4110     0.0555    -0.0207 C.2     
   5 N5             2.3715     1.4102    -0.0126 N.am    
   6 C6             1.1971     2.0672     0.0017 C.2     
   7 O7             1.1853     3.2874     0.0084 O.2     
   8 C8             1.2931    -2.1566    -0.0214 C.ar    
   9 C9             3.6243     2.1696    -0.0195 C.3     
  10 C10            4.0474     2.4422    -1.4643 C.3     
  11 C11            5.3558     3.2353    -1.4715 C.3     
  12 C12            6.4750     2.3783    -0.8768 C.3     
  13 C13            5.7138     3.6154    -2.9096 C.3     
  14 C14            0.8157    -2.8754     1.0753 C.ar    
  15 C15            0.8600    -4.2508     1.0695 C.ar    
  16 C16            1.3832    -4.9279    -0.0360 C.ar    
  17 C17            1.8607    -4.2066    -1.1342 C.ar    
  18 C18            1.8103    -2.8314    -1.1279 C.ar    
  19 C19            1.4304    -6.3591    -0.0433 C.1     
  20 N20            1.4678    -7.4945    -0.0490 N.1     
  21 H21           -0.9569     1.8877     0.0169 H       
  22 H22           -0.9216    -0.5637     0.0082 H       
  23 H23            3.3634    -0.4536    -0.0325 H       
  24 H24            3.4783     3.1161     0.5011 H       
  25 H25            4.4009     1.5940     0.4841 H       
  26 H26            4.1934     1.4958    -1.9849 H       
  27 H27            3.2708     3.0179    -1.9679 H       
  28 H28            5.2355     4.1402    -0.8758 H       
  29 H29            7.4071     2.9433    -0.8820 H       
  30 H30            6.2199     2.1075     0.1477 H       
  31 H31            6.5953     1.4734    -1.4725 H       
  32 H32            4.9165     4.2260    -3.3333 H       
  33 H33            6.6459     4.1805    -2.9148 H       
  34 H34            5.8342     2.7106    -3.5054 H       
  35 H35            0.4115    -2.3520     1.9292 H       
  36 H36            0.4911    -4.8069     1.9187 H       
  37 H37            2.2654    -4.7285    -1.9887 H       
  38 H38            2.1791    -2.2739    -1.9762 H       
@<TRIPOS>BOND
   1    1    2 2
   2    1    6 1
   3    1   21 1
   4    2    3 1
   5    2   22 1
   6    3    4 2
   7    3    8 1
   8    4    5 1
   9    4   23 1
  10    5    6 am
  11    5    9 1
  12    6    7 2
  13    8   14 ar
  14    8   18 ar
  15    9   10 1
  16    9   24 1
  17    9   25 1
  18   10   11 1
  19   10   26 1
  20   10   27 1
  21   11   12 1
  22   11   13 1
  23   11   28 1
  24   12   29 1
  25   12   30 1
  26   12   31 1
  27   13   32 1
  28   13   33 1
  29   13   34 1
  30   14   15 ar
  31   14   35 1
  32   15   16 ar
  33   15   36 1
  34   16   17 ar
  35   16   19 1
  36   17   18 ar
  37   17   37 1
  38   18   38 1
  39   19   20 3

#	End of record

