#	Name: ASD02030241
#	Creating user name:	WinNT
#	Creation time:	15. 06. 2019 20:14

#	Modifying user name:	WinNT
#	Modification time:	15. 06. 2019 20:14

#	Program:	/corina/corina34_cracker 3.40 0067  02.08.2006

@<TRIPOS>MOLECULE
ASD02030241
  58   62    0    0    0
SMALL
NO_CHARGES


@<TRIPOS>ATOM
   1 N1            -0.0430     1.8297     0.0665 N.am    
   2 C2             0.1911     0.3980    -0.1685 C.3     
   3 C3            -0.5673    -0.4038     0.8965 C.3     
   4 N4            -1.9512     0.0870     0.9569 N.am    
   5 C5            -2.1852     1.5188     1.1919 C.3     
   6 C6            -1.4270     2.3197     0.1325 C.3     
   7 C7             0.9930     2.6773     0.2242 C.2     
   8 C8             2.3750     2.1546     0.2721 C.2     
   9 N9             3.4574     2.8527     0.5404 N.2     
  10 N10            2.7469     0.8797     0.0547 N.2     
  11 C11            4.0475     0.8256     0.1895 C.2     
  12 N12            4.4779     2.0674     0.4934 N.pl3   
  13 C13            5.8098     2.4405     0.7187 C.ar    
  14 O14            0.7910     3.8716     0.3272 O.2     
  15 C15           -2.9871    -0.7606     0.7991 C.2     
  16 C16           -2.7400    -2.1647     0.4420 C.2     
  17 O17           -4.1268    -0.3634     0.9523 O.2     
  18 C18            6.1206     3.7584     1.0250 C.ar    
  19 C19            7.4344     4.1232     1.2466 C.ar    
  20 C20            8.4394     3.1772     1.1636 C.ar    
  21 C21            8.1329     1.8636     0.8583 C.ar    
  22 C22            6.8208     1.4915     0.6418 C.ar    
  23 C23           -3.6823     1.8177     1.0904 C.3     
  24 C24           -3.7005    -3.0715     0.1262 C.2     
  25 C25            7.7728     5.5537     1.5786 C.3     
  26 C26           -2.9988    -4.3233    -0.1556 C.ar    
  27 C27           -1.6316    -4.0432     0.0232 C.ar    
  28 O28           -1.5242    -2.7459     0.3726 O.3     
  29 C29           -3.4088    -5.6055    -0.5304 C.ar    
  30 C30           -2.4661    -6.5917    -0.7233 C.ar    
  31 C31           -1.1152    -6.3139    -0.5458 C.ar    
  32 C32           -0.6984    -5.0539    -0.1765 C.ar    
  33 F33           -2.8557    -7.8335    -1.0857 F       
  34 C34           -5.1881    -2.8356     0.0764 C.3     
  35 H35           -0.1725     0.1257    -1.1593 H       
  36 H36            1.2576     0.1850    -0.0963 H       
  37 H37           -0.5652    -1.4605     0.6291 H       
  38 H38           -0.0884    -0.2684     1.8662 H       
  39 H39           -1.8216     1.7911     2.1827 H       
  40 H40           -1.4298     3.3761     0.4010 H       
  41 H41           -1.9037     2.1852    -0.8385 H       
  42 H42            4.6642    -0.0542     0.0798 H       
  43 H43            5.3361     4.4979     1.0896 H       
  44 H44            9.4658     3.4648     1.3373 H       
  45 H45            8.9202     1.1270     0.7935 H       
  46 H46            6.5821     0.4656     0.4033 H       
  47 H47           -4.2070     1.3285     1.9111 H       
  48 H48           -3.8425     2.8944     1.1473 H       
  49 H49           -4.0641     1.4433     0.1406 H       
  50 H50            7.7427     5.6927     2.6592 H       
  51 H51            8.7720     5.7856     1.2100 H       
  52 H52            7.0483     6.2173     1.1066 H       
  53 H53           -4.4578    -5.8221    -0.6677 H       
  54 H54           -0.3848    -7.0945    -0.6993 H       
  55 H55            0.3539    -4.8513    -0.0423 H       
  56 H56           -5.4716    -2.5141    -0.9257 H       
  57 H57           -5.7109    -3.7596     0.3231 H       
  58 H58           -5.4576    -2.0624     0.7959 H       
@<TRIPOS>BOND
   1    1    2 1
   2    1    7 am
   3    1    6 1
   4    2    3 1
   5    2   35 1
   6    2   36 1
   7    3    4 1
   8    3   37 1
   9    3   38 1
  10    4    5 1
  11    4   15 am
  12    5    6 1
  13    5   23 1
  14    5   39 1
  15    6   40 1
  16    6   41 1
  17    7    8 1
  18    7   14 2
  19    8    9 2
  20    8   10 1
  21    9   12 1
  22   10   11 2
  23   11   12 1
  24   11   42 1
  25   12   13 1
  26   13   18 ar
  27   13   22 ar
  28   15   16 1
  29   15   17 2
  30   16   24 2
  31   16   28 1
  32   18   19 ar
  33   18   43 1
  34   19   20 ar
  35   19   25 1
  36   20   21 ar
  37   20   44 1
  38   21   22 ar
  39   21   45 1
  40   22   46 1
  41   23   47 1
  42   23   48 1
  43   23   49 1
  44   24   26 1
  45   24   34 1
  46   25   50 1
  47   25   51 1
  48   25   52 1
  49   26   27 ar
  50   26   29 ar
  51   27   28 1
  52   27   32 ar
  53   29   30 ar
  54   29   53 1
  55   30   31 ar
  56   30   33 1
  57   31   32 ar
  58   31   54 1
  59   32   55 1
  60   34   56 1
  61   34   57 1
  62   34   58 1

#	End of record

