#	Name: ASD01820010
#	Creating user name:	WinNT
#	Creation time:	15. 06. 2019 19:36

#	Modifying user name:	WinNT
#	Modification time:	15. 06. 2019 19:36

#	Program:	/corina/corina34_cracker 3.40 0067  02.08.2006

@<TRIPOS>MOLECULE
ASD01820010
  75   79    0    0    0
SMALL
NO_CHARGES


@<TRIPOS>ATOM
   1 C1            -1.8026     4.0480    -0.4932 C.ar    
   2 C2            -2.0409     2.5617    -0.4319 C.3     
   3 C3            -0.8977     1.8312    -1.1373 C.3     
   4 C4             0.4251     2.3600    -0.6519 C.2     
   5 N5             0.5737     3.6604    -0.3394 N.am    
   6 C6            -0.5060     4.5425    -0.4445 C.ar    
   7 C7             2.6962     4.6136    -1.0929 C.3     
   8 C8             1.8758     4.1553     0.1145 C.3     
   9 O9             1.3679     1.6053    -0.5406 O.2     
  10 C10            4.0561     5.1305    -0.6189 C.3     
  11 N11            4.8438     5.5705    -1.7781 N.3     
  12 C12            6.0520     6.2879    -1.3515 C.3     
  13 C13           -0.2858     5.9124    -0.4998 C.ar    
  14 C14           -1.3569     6.7781    -0.6040 C.ar    
  15 C15           -2.6471     6.2822    -0.6525 C.ar    
  16 C16           -2.8691     4.9182    -0.6033 C.ar    
  17 C17            4.0316     6.3911    -2.6854 C.3     
  18 C18            4.8373     6.7089    -3.9471 C.3     
  19 C19            6.1141     7.4583    -3.5561 C.3     
  20 C20            6.9181     6.6026    -2.5734 C.3     
  21 O21           10.1375     9.6478    -5.3376 O.3     
  22 C22           10.9918     9.9776    -6.3417 C.2     
  23 C23           12.1380    10.7500    -6.1607 C.2     
  24 C24           12.5340    11.2882    -4.8428 C.2     
  25 C25           13.5629    12.1051    -4.7826 C.2     
  26 C26           11.7391    10.8817    -3.6353 C.3     
  27 N27           12.4952    11.1672    -2.4094 N.3     
  28 C28           12.9722    12.5599    -2.4172 C.3     
  29 C29           14.0509    12.7018    -3.4920 C.3     
  30 C30           11.6841    10.8952    -1.2152 C.3     
  31 N31           12.8373    10.9619    -7.2472 N.2     
  32 S32           12.1353    10.2526    -8.4488 S.3     
  33 N33           10.8326     9.6005    -7.5853 N.2     
  34 C34            6.9536     7.7253    -4.8071 C.3     
  35 C35            8.1658     8.5813    -4.4346 C.3     
  36 C36            9.0053     8.8484    -5.6855 C.3     
  37 H37           -2.0870     2.2439     0.6097 H       
  38 H38           -2.9831     2.3243    -0.9259 H       
  39 H39           -0.9622     0.7646    -0.9221 H       
  40 H40           -0.9773     1.9876    -2.2131 H       
  41 H41            2.8433     3.7740    -1.7721 H       
  42 H42            2.1649     5.4117    -1.6114 H       
  43 H43            1.7287     4.9950     0.7937 H       
  44 H44            2.4071     3.3572     0.6330 H       
  45 H45            3.9090     5.9701     0.0604 H       
  46 H46            4.5874     4.3324    -0.1003 H       
  47 H47            5.7675     7.2177    -0.8589 H       
  48 H48            6.6168     5.6668    -0.6563 H       
  49 H49            0.7214     6.3003    -0.4612 H       
  50 H50           -1.1868     7.8437    -0.6472 H       
  51 H51           -3.4827     6.9615    -0.7335 H       
  52 H52           -3.8777     4.5338    -0.6416 H       
  53 H53            3.1288     5.8449    -2.9590 H       
  54 H54            3.7565     7.3204    -2.1865 H       
  55 H55            5.1010     5.7806    -4.4539 H       
  56 H56            4.2398     7.3309    -4.6134 H       
  57 H57            5.8508     8.4053    -3.0851 H       
  58 H58            7.8072     7.1488    -2.2583 H       
  59 H59            7.2145     5.6727    -3.0586 H       
  60 H60           14.0784    12.3572    -5.6975 H       
  61 H61           10.8005    11.4357    -3.6178 H       
  62 H62           11.5246     9.8143    -3.6869 H       
  63 H63           12.1430    13.2297    -2.6449 H       
  64 H64           13.3906    12.8091    -1.4420 H       
  65 H65           14.9527    12.1799    -3.1719 H       
  66 H66           14.2775    13.7575    -3.6413 H       
  67 H67           11.3892     9.8459    -1.2076 H       
  68 H68           12.2682    11.1149    -0.3215 H       
  69 H69           10.7931    11.5229    -1.2305 H       
  70 H70            7.2927     6.7780    -5.2261 H       
  71 H71            6.3489     8.2532    -5.5446 H       
  72 H72            7.8267     9.5287    -4.0155 H       
  73 H73            8.7705     8.0535    -3.6971 H       
  74 H74            8.4006     9.3762    -6.4230 H       
  75 H75            9.3444     7.9010    -6.1046 H       
@<TRIPOS>BOND
   1    1    2 1
   2    1    6 ar
   3    1   16 ar
   4    2    3 1
   5    2   37 1
   6    2   38 1
   7    3    4 1
   8    3   39 1
   9    3   40 1
  10    4    5 am
  11    4    9 2
  12    5    6 1
  13    5    8 1
  14    6   13 ar
  15    7    8 1
  16    7   10 1
  17    7   41 1
  18    7   42 1
  19    8   43 1
  20    8   44 1
  21   10   11 1
  22   10   45 1
  23   10   46 1
  24   11   12 1
  25   11   17 1
  26   12   20 1
  27   12   47 1
  28   12   48 1
  29   13   14 ar
  30   13   49 1
  31   14   15 ar
  32   14   50 1
  33   15   16 ar
  34   15   51 1
  35   16   52 1
  36   17   18 1
  37   17   53 1
  38   17   54 1
  39   18   19 1
  40   18   55 1
  41   18   56 1
  42   19   34 1
  43   19   20 1
  44   19   57 1
  45   20   58 1
  46   20   59 1
  47   21   36 1
  48   21   22 1
  49   22   23 1
  50   22   33 2
  51   23   24 1
  52   23   31 2
  53   24   25 2
  54   24   26 1
  55   25   29 1
  56   25   60 1
  57   26   27 1
  58   26   61 1
  59   26   62 1
  60   27   28 1
  61   27   30 1
  62   28   29 1
  63   28   63 1
  64   28   64 1
  65   29   65 1
  66   29   66 1
  67   30   67 1
  68   30   68 1
  69   30   69 1
  70   31   32 1
  71   32   33 1
  72   34   35 1
  73   34   70 1
  74   34   71 1
  75   35   36 1
  76   35   72 1
  77   35   73 1
  78   36   74 1
  79   36   75 1

#	End of record

