#	Name: ASD08070683
#	Creating user name:	WinNT
#	Creation time:	15. 06. 2019 21:15

#	Modifying user name:	WinNT
#	Modification time:	15. 06. 2019 21:15

#	Program:	/corina/corina34_cracker 3.40 0067  02.08.2006

@<TRIPOS>MOLECULE
ASD08070683
  44   44    0    0    0
SMALL
NO_CHARGES


@<TRIPOS>ATOM
   1 C1             0.1296     1.4540     0.4669 C.2     
   2 C2             0.0492    -0.0438     0.3217 C.3     
   3 C3            -0.8786    -0.3942    -0.8433 C.3     
   4 C4            -2.3117     0.0120    -0.4940 C.3     
   5 C5            -3.2175    -0.2215    -1.7047 C.3     
   6 O6             1.1946     2.0149     0.3623 O.2     
   7 O7            -0.9830     2.1657     0.7070 O.3     
   8 C8            -2.8076    -0.8293     0.6838 C.3     
   9 C9             1.7030    -1.8276     0.4641 C.2     
  10 C10            3.0868    -2.3310     0.2992 C.ar    
  11 C11            3.4346    -3.6198     0.7120 C.ar    
  12 C12            4.7412    -4.0534     0.5395 C.ar    
  13 N13            5.6508    -3.2642    -0.0073 N.ar    
  14 C14            5.3610    -2.0384    -0.4107 C.ar    
  15 C15            4.0763    -1.5314    -0.2785 C.ar    
  16 O16            0.8535    -2.5382     0.9640 O.2     
  17 N17            1.3866    -0.5815     0.0598 N.am    
  18 O18            5.0903    -5.3028     0.9371 O.3     
  19 C19            6.4500    -5.6923     0.7333 C.3     
  20 O20            6.3311    -1.2688    -0.9651 O.3     
  21 C21            7.6326    -1.8477    -1.0791 C.3     
  22 C22           -0.8306     3.6040     0.8352 C.3     
  23 H23           -0.3429    -0.4775     1.2417 H       
  24 H24           -0.5571     0.1402    -1.7372 H       
  25 H25           -0.8401    -1.4678    -1.0282 H       
  26 H26           -2.3341     1.0672    -0.2216 H       
  27 H27           -3.1951    -1.2767    -1.9770 H       
  28 H28           -4.2385     0.0679    -1.4559 H       
  29 H29           -2.8642     0.3778    -2.5438 H       
  30 H30           -2.6993    -1.8874     0.4456 H       
  31 H31           -2.2195    -0.5946     1.5710 H       
  32 H32           -3.8572    -0.6052     0.8739 H       
  33 H33            2.6968    -4.2692     1.1595 H       
  34 H34            3.8452    -0.5312    -0.6142 H       
  35 H35            2.0443    -0.0406    -0.4047 H       
  36 H36            7.1074    -5.0165     1.2803 H       
  37 H37            6.5942    -6.7107     1.0941 H       
  38 H38            6.6855    -5.6468    -0.3300 H       
  39 H39            8.0002    -2.1133    -0.0879 H       
  40 H40            7.5791    -2.7429    -1.6986 H       
  41 H41            8.3113    -1.1285    -1.5376 H       
  42 H42           -0.1568     3.8256     1.6628 H       
  43 H43           -0.4172     4.0093    -0.0884 H       
  44 H44           -1.8033     4.0567     1.0273 H       
@<TRIPOS>BOND
   1    1    2 1
   2    1    6 2
   3    1    7 1
   4    2    3 1
   5    2   17 1
   6    2   23 1
   7    3    4 1
   8    3   24 1
   9    3   25 1
  10    4    5 1
  11    4    8 1
  12    4   26 1
  13    5   27 1
  14    5   28 1
  15    5   29 1
  16    7   22 1
  17    8   30 1
  18    8   31 1
  19    8   32 1
  20    9   10 1
  21    9   16 2
  22    9   17 am
  23   10   11 ar
  24   10   15 ar
  25   11   12 ar
  26   11   33 1
  27   12   13 ar
  28   12   18 1
  29   13   14 ar
  30   14   15 ar
  31   14   20 1
  32   15   34 1
  33   17   35 1
  34   18   19 1
  35   19   36 1
  36   19   37 1
  37   19   38 1
  38   20   21 1
  39   21   39 1
  40   21   40 1
  41   21   41 1
  42   22   42 1
  43   22   43 1
  44   22   44 1

#	End of record

