#	Name: ASD01148005
#	Creating user name:	WinNT
#	Creation time:	15. 06. 2019 19:01

#	Modifying user name:	WinNT
#	Modification time:	15. 06. 2019 19:01

#	Program:	/corina/corina34_cracker 3.40 0067  02.08.2006

@<TRIPOS>MOLECULE
ASD01148005
  68   71    0    0    0
SMALL
NO_CHARGES


@<TRIPOS>ATOM
   1 C1            -0.1004     1.8078     0.0705 C.3     
   2 C2            -0.3681     0.3020     0.2029 C.3     
   3 C3             0.8971    -0.5256     0.3292 C.3     
   4 C4             1.8748    -0.2526    -0.8124 C.3     
   5 C5             2.0379     1.2082    -1.0710 C.3     
   6 C6             1.3757     2.1014     0.0002 C.3     
   7 C7             3.4517     1.8050    -1.1211 C.3     
   8 C8             3.1170     3.3252    -1.2186 C.3     
   9 C9             1.7327     3.5029    -0.5446 C.3     
  10 C10            0.5915    -2.0293     0.3775 C.3     
  11 C11            1.4344    -2.7525    -0.6700 C.3     
  12 C12            2.9222    -2.4814    -0.4640 C.3     
  13 C13            3.1924    -0.9725    -0.5284 C.3     
  14 C14           -0.8892    -2.2771     0.0928 C.3     
  15 C15           -1.1893    -3.7768     0.1135 C.3     
  16 C16           -0.3251    -4.5025    -0.9177 C.3     
  17 C17            1.1571    -4.2561    -0.6249 C.3     
  18 C18            0.9316    -2.5295     1.7846 C.3     
  19 C19           -0.6112    -6.0049    -0.8535 C.3     
  20 C20            2.0354     1.9983     1.3732 C.3     
  21 C21            1.8230     4.4825     0.5970 C.2     
  22 O22            2.6108     4.3822     1.6766 O.3     
  23 C23            1.1289     5.6363     0.7276 C.2     
  24 C24            1.5841     6.1714     1.9667 C.2     
  25 N25            2.4691     5.3197     2.4268 N.2     
  26 C26            1.1504     7.4327     2.6027 C.2     
  27 O27            1.6227     7.7682     3.6630 O.2     
  28 H28           -0.5945     2.1873    -0.8341 H       
  29 H29           -0.5392     2.3315     0.9309 H       
  30 H30           -1.0007     0.1322     1.0844 H       
  31 H31           -0.9351    -0.0302    -0.6766 H       
  32 H32            1.3822    -0.3164     1.2875 H       
  33 H33            1.4506    -0.7002    -1.7331 H       
  34 H34            1.5567     1.4386    -2.0501 H       
  35 H35            4.0327     1.5801    -0.2390 H       
  36 H36            3.9712     1.4794    -2.0240 H       
  37 H37            3.8703     3.9043    -0.6890 H       
  38 H38            3.0671     3.6249    -2.2635 H       
  39 H39            0.9879     3.8126    -1.2697 H       
  40 H40            1.1447    -2.3958    -1.6676 H       
  41 H41            3.2579    -2.8760     0.4913 H       
  42 H42            3.4880    -2.9734    -1.2627 H       
  43 H43            3.9040    -0.7641    -1.3265 H       
  44 H44            3.5980    -0.6347     0.4244 H       
  45 H45           -1.4951    -1.7798     0.8515 H       
  46 H46           -1.1423    -1.8776    -0.8913 H       
  47 H47           -1.0157    -4.1910     1.1027 H       
  48 H48           -2.2442    -3.9275    -0.1433 H       
  49 H49           -0.5630    -4.1328    -1.9157 H       
  50 H50            1.7561    -4.7494    -1.3976 H       
  51 H51            1.4227    -4.6727     0.3406 H       
  52 H52            0.3250    -1.9960     2.5164 H       
  53 H53            0.7245    -3.5976     1.8505 H       
  54 H54            1.9874    -2.3509     1.9884 H       
  55 H55           -1.6643    -6.1838    -1.0705 H       
  56 H56            0.0044    -6.5237    -1.5883 H       
  57 H57           -0.3775    -6.3770     0.1440 H       
  58 H58            3.0405     2.4173     1.3258 H       
  59 H59            1.4448     2.5526     2.1027 H       
  60 H60            2.0919     0.9514     1.6715 H       
  61 H61            0.3996     6.0546     0.0498 H       
  62 H62            0.4114     8.0547     2.1197 H       
  63 C63            9.5599    14.8667     9.5460 C.3     
  64 O64            9.5792    13.4379     9.5382 O.3     
  65 H65           10.5824    15.2440     9.5383 H       
  66 H66            9.0327    15.2278     8.6630 H       
  67 H67            9.0497    15.2183    10.4428 H       
  68 H68           10.0189    13.0547     8.7668 H       
@<TRIPOS>BOND
   1    1    2 1
   2    1    6 1
   3    1   28 1
   4    1   29 1
   5    2    3 1
   6    2   30 1
   7    2   31 1
   8    3    4 1
   9    3   10 1
  10    3   32 1
  11    4    5 1
  12    4   13 1
  13    4   33 1
  14    5    6 1
  15    5    7 1
  16    5   34 1
  17    6   20 1
  18    6    9 1
  19    7    8 1
  20    7   35 1
  21    7   36 1
  22    8    9 1
  23    8   37 1
  24    8   38 1
  25    9   21 1
  26    9   39 1
  27   10   14 1
  28   10   18 1
  29   10   11 1
  30   11   12 1
  31   11   17 1
  32   11   40 1
  33   12   13 1
  34   12   41 1
  35   12   42 1
  36   13   43 1
  37   13   44 1
  38   14   15 1
  39   14   45 1
  40   14   46 1
  41   15   16 1
  42   15   47 1
  43   15   48 1
  44   16   17 1
  45   16   19 1
  46   16   49 1
  47   17   50 1
  48   17   51 1
  49   18   52 1
  50   18   53 1
  51   18   54 1
  52   19   55 1
  53   19   56 1
  54   19   57 1
  55   20   58 1
  56   20   59 1
  57   20   60 1
  58   21   22 1
  59   21   23 2
  60   22   25 1
  61   23   24 1
  62   23   61 1
  63   24   25 2
  64   24   26 1
  65   26   27 2
  66   26   62 1
  67   63   64 1
  68   63   65 1
  69   63   66 1
  70   63   67 1
  71   64   68 1

#	End of record

