#	Name: ASD00190056
#	Creating user name:	WinNT
#	Creation time:	15. 06. 2019 18:33

#	Modifying user name:	WinNT
#	Modification time:	15. 06. 2019 18:33

#	Program:	/corina/corina34_cracker 3.40 0067  02.08.2006

@<TRIPOS>MOLECULE
ASD00190056
  48   52    0    0    0
SMALL
NO_CHARGES


@<TRIPOS>ATOM
   1 C1             0.1177     1.4571     1.0686 C.ar    
   2 C2             0.1639     0.0816     1.2652 C.ar    
   3 C3             1.3202    -0.6159     1.0781 C.ar    
   4 C4             2.4853     0.0578     0.6806 C.ar    
   5 C5             2.4321     1.4576     0.4815 C.ar    
   6 C6             1.2329     2.1436     0.6818 C.ar    
   7 N7             3.6346    -0.6071     0.4908 N.ar    
   8 C8             4.7468    -0.0114     0.1190 C.ar    
   9 C9             4.8067     1.3733    -0.1060 C.ar    
  10 C10            3.6546     2.1475     0.0670 C.ar    
  11 N11            5.7964     2.2514    -0.4895 N.pl3   
  12 C12            5.2438     3.4840    -0.5368 C.2     
  13 N13            3.9825     3.4183    -0.2085 N.2     
  14 N14            5.8930    -0.7726    -0.0555 N.pl3   
  15 C15            5.8288    -2.1663     0.0437 C.ar    
  16 C16            6.9105    -2.8791     0.5473 C.ar    
  17 C17            6.8436    -4.2562     0.6444 C.ar    
  18 C18            5.7014    -4.9246     0.2404 C.ar    
  19 C19            4.6231    -4.2168    -0.2614 C.ar    
  20 C20            4.6820    -2.8402    -0.3555 C.ar    
  21 C21            5.9754     4.7464    -0.9138 C.3     
  22 C22            6.6776     5.3168     0.3201 C.3     
  23 C23            7.4203     6.5985    -0.0627 C.3     
  24 C24            8.4593     6.2833    -1.1407 C.3     
  25 C25            7.7571     5.7129    -2.3746 C.3     
  26 C26            7.0144     4.4312    -1.9918 C.3     
  27 Cl27           8.3441    -2.0408     1.0532 Cl      
  28 Cl28           5.6211    -6.6544     0.3626 Cl      
  29 H29           -0.8110     1.9876     1.2190 H       
  30 H30           -0.7297    -0.4422     1.5712 H       
  31 H31            1.3396    -1.6841     1.2357 H       
  32 H32            1.1872     3.2120     0.5308 H       
  33 H33            6.7189     2.0268    -0.6883 H       
  34 H34            6.7392    -0.3383    -0.2462 H       
  35 H35            7.6836    -4.8110     1.0356 H       
  36 H36            3.7330    -4.7414    -0.5759 H       
  37 H37            3.8400    -2.2888    -0.7472 H       
  38 H38            5.2640     5.4777    -1.2976 H       
  39 H39            5.9374     5.5414     1.0880 H       
  40 H40            7.3889     4.5855     0.7038 H       
  41 H41            6.7089     7.3298    -0.4465 H       
  42 H42            7.9206     7.0049     0.8163 H       
  43 H43            8.9884     7.1964    -1.4134 H       
  44 H44            9.1706     5.5520    -0.7569 H       
  45 H45            7.0457     6.4443    -2.7583 H       
  46 H46            8.4973     5.4884    -3.1425 H       
  47 H47            7.7257     3.6999    -1.6080 H       
  48 H48            6.5141     4.0249    -2.8708 H       
@<TRIPOS>BOND
   1    1    2 ar
   2    1    6 ar
   3    1   29 1
   4    2    3 ar
   5    2   30 1
   6    3    4 ar
   7    3   31 1
   8    4    5 ar
   9    4    7 ar
  10    5    6 ar
  11    5   10 ar
  12    6   32 1
  13    7    8 ar
  14    8    9 ar
  15    8   14 1
  16    9   10 ar
  17    9   11 1
  18   10   13 1
  19   11   12 1
  20   11   33 1
  21   12   13 2
  22   12   21 1
  23   14   15 1
  24   14   34 1
  25   15   16 ar
  26   15   20 ar
  27   16   17 ar
  28   16   27 1
  29   17   18 ar
  30   17   35 1
  31   18   19 ar
  32   18   28 1
  33   19   20 ar
  34   19   36 1
  35   20   37 1
  36   21   22 1
  37   21   26 1
  38   21   38 1
  39   22   23 1
  40   22   39 1
  41   22   40 1
  42   23   24 1
  43   23   41 1
  44   23   42 1
  45   24   25 1
  46   24   43 1
  47   24   44 1
  48   25   26 1
  49   25   45 1
  50   25   46 1
  51   26   47 1
  52   26   48 1

#	End of record

