#	Name: ASD00110013
#	Creating user name:	WinNT
#	Creation time:	15. 06. 2019 18:30

#	Modifying user name:	WinNT
#	Modification time:	15. 06. 2019 18:30

#	Program:	/corina/corina34_cracker 3.40 0067  02.08.2006

@<TRIPOS>MOLECULE
ASD00110013
  75   76    0    0    0
SMALL
NO_CHARGES


@<TRIPOS>ATOM
   1 N1            -0.0178     1.4642     0.0101 N.3     
   2 C2             0.0021    -0.0041     0.0020 C.3     
   3 C3             0.6797    -0.4993    -1.2777 C.3     
   4 C4             2.1079     0.0494    -1.3384 C.3     
   5 C5             2.0615     1.5788    -1.2797 C.3     
   6 C6             1.3439     2.0138     0.0000 C.3     
   7 C7             1.2785     3.5185     0.0523 C.2     
   8 N8             2.3532     4.2262     0.4532 N.am    
   9 O9             0.2588     4.0926    -0.2663 O.2     
  10 C10            2.2896     5.6889     0.5040 C.3     
  11 C11            1.6860     6.1270     1.8400 C.3     
  12 C12            2.7702    -0.3923    -2.6450 C.3     
  13 C13            2.9217    -1.9148    -2.6507 C.3     
  14 C14            3.5840    -2.3565    -3.9572 C.3     
  15 C15            3.7355    -3.8789    -3.9630 C.3     
  16 C16            4.3978    -4.3207    -5.2695 C.3     
  17 C17            4.5493    -5.8431    -5.2753 C.3     
  18 C18            5.2116    -6.2848    -6.5818 C.3     
  19 C19            5.3631    -7.8073    -6.5876 C.3     
  20 C20            6.0254    -8.2490    -7.8941 C.3     
  21 C21            6.1769    -9.7715    -7.8998 C.3     
  22 C22            6.8392   -10.2132    -9.2064 C.3     
  23 O23            2.5611     5.7494     2.9047 O.3     
  24 C24            3.7002     6.2657     0.3681 C.3     
  25 O25            4.5159     5.7869     1.4392 O.3     
  26 C26            4.2946     5.8342    -0.9478 C.ar    
  27 C27            5.3858     5.0427    -3.3616 C.ar    
  28 C28            5.3767     4.1715    -2.2884 C.ar    
  29 C29            4.8314     4.5673    -1.0814 C.ar    
  30 C30            4.2981     6.7032    -2.0228 C.ar    
  31 C31            4.8435     6.3074    -3.2298 C.ar    
  32 H32           -0.5582     1.8228    -0.7629 H       
  33 H33            0.5557    -0.3645     0.8690 H       
  34 H34           -1.0198    -0.3814     0.0413 H       
  35 H35            0.7083    -1.5890    -1.2760 H       
  36 H36            0.1187    -0.1507    -2.1448 H       
  37 H37            2.6803    -0.3304    -0.4922 H       
  38 H38            3.0774     1.9739    -1.2795 H       
  39 H39            1.5223     1.9601    -2.1469 H       
  40 H40            1.8912     1.6439     0.8670 H       
  41 H41            3.1687     3.7670     0.7080 H       
  42 H42            1.6674     6.0542    -0.3130 H       
  43 H43            1.5565     7.2093     1.8426 H       
  44 H44            0.7181     5.6449     1.9769 H       
  45 H45            2.1511    -0.0856    -3.4880 H       
  46 H46            3.7533     0.0710    -2.7287 H       
  47 H47            3.5408    -2.2215    -1.8077 H       
  48 H48            1.9385    -2.3780    -2.5670 H       
  49 H49            2.9649    -2.0498    -4.8003 H       
  50 H50            4.5671    -1.8932    -4.0409 H       
  51 H51            4.3546    -4.1857    -3.1200 H       
  52 H52            2.7523    -4.3422    -3.8793 H       
  53 H53            3.7787    -4.0139    -6.1126 H       
  54 H54            5.3809    -3.8574    -5.3532 H       
  55 H55            5.1684    -6.1498    -4.4322 H       
  56 H56            3.5661    -6.3064    -5.1916 H       
  57 H57            4.5925    -5.9781    -7.4249 H       
  58 H58            6.1947    -5.8216    -6.6655 H       
  59 H59            5.9822    -8.1140    -5.7445 H       
  60 H60            4.3799    -8.2706    -6.5039 H       
  61 H61            5.4063    -7.9423    -8.7371 H       
  62 H62            7.0085    -7.7858    -7.9778 H       
  63 H63            6.7960   -10.0782    -7.0568 H       
  64 H64            5.1937   -10.2347    -7.8161 H       
  65 H65            7.8223    -9.7500    -9.2901 H       
  66 H66            6.9471   -11.2979    -9.2105 H       
  67 H67            6.2201    -9.9065   -10.0494 H       
  68 H68            2.2411     5.9964     3.7832 H       
  69 H69            3.6529     7.3541     0.4059 H       
  70 H70            4.6028     4.8242     1.4674 H       
  71 H71            5.8118     4.7335    -4.3046 H       
  72 H72            5.8004     3.1834    -2.3913 H       
  73 H73            4.8250     3.8870    -0.2427 H       
  74 H74            3.8745     7.6913    -1.9198 H       
  75 H75            4.8506     6.9881    -4.0682 H       
@<TRIPOS>BOND
   1    1    2 1
   2    1    6 1
   3    1   32 1
   4    2    3 1
   5    2   33 1
   6    2   34 1
   7    3    4 1
   8    3   35 1
   9    3   36 1
  10    4    5 1
  11    4   12 1
  12    4   37 1
  13    5    6 1
  14    5   38 1
  15    5   39 1
  16    6    7 1
  17    6   40 1
  18    7    8 am
  19    7    9 2
  20    8   10 1
  21    8   41 1
  22   10   11 1
  23   10   24 1
  24   10   42 1
  25   11   23 1
  26   11   43 1
  27   11   44 1
  28   12   13 1
  29   12   45 1
  30   12   46 1
  31   13   14 1
  32   13   47 1
  33   13   48 1
  34   14   15 1
  35   14   49 1
  36   14   50 1
  37   15   16 1
  38   15   51 1
  39   15   52 1
  40   16   17 1
  41   16   53 1
  42   16   54 1
  43   17   18 1
  44   17   55 1
  45   17   56 1
  46   18   19 1
  47   18   57 1
  48   18   58 1
  49   19   20 1
  50   19   59 1
  51   19   60 1
  52   20   21 1
  53   20   61 1
  54   20   62 1
  55   21   22 1
  56   21   63 1
  57   21   64 1
  58   22   65 1
  59   22   66 1
  60   22   67 1
  61   23   68 1
  62   24   25 1
  63   24   26 1
  64   24   69 1
  65   25   70 1
  66   26   30 ar
  67   26   29 ar
  68   27   28 ar
  69   27   31 ar
  70   27   71 1
  71   28   29 ar
  72   28   72 1
  73   29   73 1
  74   30   31 ar
  75   30   74 1
  76   31   75 1

#	End of record

