#	Name: ASD01913832
#	Creating user name:	WinNT
#	Creation time:	15. 06. 2019 20:02

#	Modifying user name:	WinNT
#	Modification time:	15. 06. 2019 20:02

#	Program:	/corina/corina34_cracker 3.40 0067  02.08.2006

@<TRIPOS>MOLECULE
ASD01913832
  43   46    0    0    0
SMALL
NO_CHARGES


@<TRIPOS>ATOM
   1 C1            -0.0227     1.4277    -0.0311 C.ar    
   2 C2            -0.0018    -0.0041    -0.0268 C.1     
   3 C3             0.0154    -1.1780    -0.0232 C.1     
   4 C4             0.0364    -2.6098    -0.0189 C.ar    
   5 C5            -1.1341    -3.3384     0.2412 C.ar    
   6 C6             0.1560    -5.3344    -0.0280 C.ar    
   7 N7             1.2427    -4.6189    -0.2762 N.ar    
   8 C8             1.2209    -3.3022    -0.2792 C.ar    
   9 C9            -1.0633    -4.7169     0.2344 C.ar    
  10 N10            0.2331    -6.7250    -0.0369 N.am    
  11 C11           -0.8157    -7.5617    -0.0322 C.2     
  12 N12           -0.4728    -8.8493     0.0288 N.am    
  13 C13            0.9929    -8.9669    -0.1197 C.3     
  14 C14            1.4781    -7.5100    -0.0595 C.3     
  15 O15           -1.9698    -7.1822    -0.0785 O.2     
  16 C16            1.1473     2.1463    -0.2911 C.ar    
  17 C17            1.1193     3.5252    -0.2940 C.ar    
  18 C18           -1.2272     3.4923     0.2126 C.ar    
  19 C19           -1.2145     2.1132     0.2189 C.ar    
  20 C20           -0.0634     4.1972    -0.0400 C.ar    
  21 C21           -1.3419   -10.0117     0.2613 C.3     
  22 C22           -0.7474   -10.8018     1.4362 C.3     
  23 C23            0.7338   -11.0773     1.1760 C.3     
  24 C24            1.5132    -9.7621     1.0814 C.3     
  25 H25           -2.0672    -2.8331     0.4422 H       
  26 H26            2.1276    -2.7527    -0.4853 H       
  27 H27           -1.9444    -5.3098     0.4309 H       
  28 H28            1.2622    -9.4337    -1.0671 H       
  29 H29            2.0731    -7.2681    -0.9401 H       
  30 H30            2.0513    -7.3348     0.8509 H       
  31 H31            2.0712     1.6231    -0.4888 H       
  32 H32            2.0228     4.0818    -0.4948 H       
  33 H33           -2.1475     4.0235     0.4057 H       
  34 H34           -2.1236     1.5645     0.4158 H       
  35 H35           -0.0791     5.2771    -0.0429 H       
  36 H36           -2.3488    -9.6774     0.5113 H       
  37 H37           -1.3693   -10.6381    -0.6304 H       
  38 H38           -0.8527   -10.2220     2.3532 H       
  39 H39           -1.2788   -11.7475     1.5430 H       
  40 H40            1.1374   -11.6778     1.9912 H       
  41 H41            0.8393   -11.6270     0.2406 H       
  42 H42            2.5738    -9.9746     0.9473 H       
  43 H43            1.3665    -9.1839     1.9937 H       
@<TRIPOS>BOND
   1    1    2 1
   2    1   16 ar
   3    1   19 ar
   4    2    3 3
   5    3    4 1
   6    4    5 ar
   7    4    8 ar
   8    5    9 ar
   9    5   25 1
  10    6    7 ar
  11    6   10 1
  12    6    9 ar
  13    7    8 ar
  14    8   26 1
  15    9   27 1
  16   10   11 am
  17   10   14 1
  18   11   12 am
  19   11   15 2
  20   12   13 1
  21   12   21 1
  22   13   14 1
  23   13   24 1
  24   13   28 1
  25   14   29 1
  26   14   30 1
  27   16   17 ar
  28   16   31 1
  29   17   20 ar
  30   17   32 1
  31   18   19 ar
  32   18   20 ar
  33   18   33 1
  34   19   34 1
  35   20   35 1
  36   21   22 1
  37   21   36 1
  38   21   37 1
  39   22   23 1
  40   22   38 1
  41   22   39 1
  42   23   24 1
  43   23   40 1
  44   23   41 1
  45   24   42 1
  46   24   43 1

#	End of record

