#	Name: ASD07300358
#	Creating user name:	WinNT
#	Creation time:	15. 06. 2019 21:09

#	Modifying user name:	WinNT
#	Modification time:	15. 06. 2019 21:09

#	Program:	/corina/corina34_cracker 3.40 0067  02.08.2006

@<TRIPOS>MOLECULE
ASD07300358
  20   21    0    0    0
SMALL
NO_CHARGES


@<TRIPOS>ATOM
   1 C1            -0.0168     1.3909     0.0097 C.ar    
   2 C2             0.0021    -0.0041     0.0020 C.ar    
   3 C3             1.2483    -0.6608    -0.0135 C.ar    
   4 C4             2.4061     0.1089    -0.0204 C.ar    
   5 C5             2.2941     1.4724    -0.0120 C.ar    
   6 N6             1.1129     2.0670     0.0025 N.ar    
   7 C7            -0.3853    -2.1410    -0.0057 C.2     
   8 N8            -0.9509    -0.9689     0.0060 N.2     
   9 N9             0.9698    -2.0068    -0.0180 N.pl3   
  10 S10           -1.2474    -3.6777    -0.0057 S.o2    
  11 O11           -0.3345    -4.5916     0.5864 O.2     
  12 O12           -2.4920    -3.3813     0.6125 O.2     
  13 C13           -1.4850    -4.0634    -1.7622 C.3     
  14 H14           -0.9599     1.9172     0.0170 H       
  15 H15            3.3780    -0.3619    -0.0319 H       
  16 H16            3.1896     2.0761    -0.0170 H       
  17 H17            1.6186    -2.7278    -0.0281 H       
  18 H18           -0.5142    -4.1415    -2.2517 H       
  19 H19           -2.0171    -5.0099    -1.8576 H       
  20 H20           -2.0665    -3.2706    -2.2329 H       
@<TRIPOS>BOND
   1    1    2 ar
   2    1    6 ar
   3    1   14 1
   4    2    3 ar
   5    2    8 1
   6    3    4 ar
   7    3    9 1
   8    4    5 ar
   9    4   15 1
  10    5    6 ar
  11    5   16 1
  12    7    8 2
  13    7    9 1
  14    7   10 1
  15    9   17 1
  16   10   11 2
  17   10   12 2
  18   10   13 1
  19   13   18 1
  20   13   19 1
  21   13   20 1

#	End of record

