#	Name: ASD01903182
#	Creating user name:	WinNT
#	Creation time:	15. 06. 2019 19:54

#	Modifying user name:	WinNT
#	Modification time:	15. 06. 2019 19:54

#	Program:	/corina/corina34_cracker 3.40 0067  02.08.2006

@<TRIPOS>MOLECULE
ASD01903182
  38   41    0    0    0
SMALL
NO_CHARGES


@<TRIPOS>ATOM
   1 S1            -0.0207     1.7559     0.0123 S.3     
   2 C2             0.0025    -0.0046     0.0088 C.2     
   3 N3             1.2286    -0.4225     0.0068 N.2     
   4 C4             2.1840     0.5092     0.0077 C.2     
   5 C5             1.7410     1.7836     0.0106 C.2     
   6 N6            -1.1223    -0.8207     0.0091 N.pl3   
   7 C7            -0.9809    -2.1999    -0.1048 C.ar    
   8 N8             0.2181    -2.7216    -0.3136 N.ar    
   9 C9             0.3957    -4.0242    -0.4271 C.ar    
  10 C10           -0.6710    -4.8951    -0.3316 C.ar    
  11 C11           -1.9455    -4.3884    -0.1128 C.ar    
  12 C12           -2.0998    -3.0193     0.0076 C.ar    
  13 C13            3.6290     0.1683     0.0061 C.2     
  14 C14            4.6520     0.8850    -0.6445 C.2     
  15 N15            5.7857     0.2761    -0.4143 N.2     
  16 N16            5.5343    -0.8449     0.3861 N.pl3   
  17 C17            4.2073    -0.8925     0.6393 C.2     
  18 N18            2.5419     2.9290     0.0120 N.3     
  19 C19            1.7167     4.1509     0.0152 C.3     
  20 C20            2.1318     4.9798     1.2489 C.3     
  21 C21            3.5591     4.4559     1.5578 C.3     
  22 C22            3.4266     2.9554     1.1963 C.3     
  23 H23           -2.0059    -0.4287     0.0886 H       
  24 H24            1.3885    -4.4139    -0.5972 H       
  25 H25           -0.5162    -5.9597    -0.4265 H       
  26 H26           -2.7964    -5.0489    -0.0347 H       
  27 H27           -3.0766    -2.5914     0.1785 H       
  28 H28            4.5224     1.7819    -1.2320 H       
  29 H29            6.1978    -1.4756     0.7067 H       
  30 H30            3.6967    -1.6390     1.2295 H       
  31 H31            1.8983     4.7234    -0.8944 H       
  32 H32            0.6617     3.8856     0.0846 H       
  33 H33            2.1550     6.0428     1.0090 H       
  34 H34            1.4610     4.7871     2.0862 H       
  35 H35            4.3000     4.9458     0.9261 H       
  36 H36            3.8020     4.5833     2.6127 H       
  37 H37            2.9735     2.4050     2.0208 H       
  38 H38            4.4025     2.5368     0.9503 H       
@<TRIPOS>BOND
   1    1    2 1
   2    1    5 1
   3    2    3 2
   4    2    6 1
   5    3    4 1
   6    4    5 2
   7    4   13 1
   8    5   18 1
   9    6    7 1
  10    6   23 1
  11    7    8 ar
  12    7   12 ar
  13    8    9 ar
  14    9   10 ar
  15    9   24 1
  16   10   11 ar
  17   10   25 1
  18   11   12 ar
  19   11   26 1
  20   12   27 1
  21   13   14 1
  22   13   17 2
  23   14   15 2
  24   14   28 1
  25   15   16 1
  26   16   17 1
  27   16   29 1
  28   17   30 1
  29   18   19 1
  30   18   22 1
  31   19   20 1
  32   19   31 1
  33   19   32 1
  34   20   21 1
  35   20   33 1
  36   20   34 1
  37   21   22 1
  38   21   35 1
  39   21   36 1
  40   22   37 1
  41   22   38 1

#	End of record

