#	Name: ASD08170174
#	Creating user name:	WinNT
#	Creation time:	15. 06. 2019 21:17

#	Modifying user name:	WinNT
#	Modification time:	15. 06. 2019 21:17

#	Program:	/corina/corina34_cracker 3.40 0067  02.08.2006

@<TRIPOS>MOLECULE
ASD08170174
  69   73    0    0    0
SMALL
NO_CHARGES


@<TRIPOS>ATOM
   1 C1             6.3276     5.6964     5.3462 C.ar    
   2 C2             5.8554     4.3761     4.7942 C.3     
   3 C3             5.4948     3.4560     5.9319 C.2     
   4 N4             5.0444     2.2118     5.6757 N.am    
   5 O5             5.6101     3.8350     7.0782 O.2     
   6 C6             4.7117     1.3627     6.7256 C.2     
   7 S7             4.1343    -0.2424     6.5673 S.3     
   8 N8             4.7925     1.6533     7.9890 N.2     
   9 N9             4.4506     0.7645     8.8179 N.2     
  10 C10            4.0492    -0.3640     8.3250 C.2     
  11 C11            3.5955    -1.5665     9.1118 C.3     
  12 C12            2.0859    -1.4826     9.3464 C.3     
  13 C13            1.6252    -2.7034    10.1453 C.3     
  14 C14            0.1157    -2.6195    10.3798 C.3     
  15 C15           -0.3381    -3.8220    11.1667 C.2     
  16 N16           -0.4059    -3.9094    12.4572 N.2     
  17 S17           -0.8794    -5.3608    10.4955 S.3     
  18 C18           -1.1282    -5.9452    12.0865 C.2     
  19 N19           -0.8132    -5.0075    12.9284 N.2     
  20 N20           -1.5952    -7.2117    12.4211 N.am    
  21 C21           -1.7489    -7.5529    13.7159 C.2     
  22 C22           -2.2550    -8.9253    14.0784 C.3     
  23 O23           -1.4799    -6.7555    14.5892 O.2     
  24 C24            7.6681     5.8902     5.6226 C.ar    
  25 C25            8.1013     7.1013     6.1290 C.ar    
  26 C26            7.1941     8.1187     6.3586 C.ar    
  27 C27            5.8537     7.9252     6.0814 C.ar    
  28 C28            5.4212     6.7156     5.5708 C.ar    
  29 C29           -2.3353    -9.0511    15.5780 C.ar    
  30 C30           -1.3152    -9.6284    17.6660 C.ar    
  31 C31           -1.2441    -9.5117    16.2914 C.ar    
  32 C32           -3.4982    -8.7003    16.2387 C.ar    
  33 C33           -3.5745    -8.8146    17.6133 C.ar    
  34 C34           -2.4827    -9.2820    18.3309 C.ar    
  35 O35           -2.5554    -9.3963    19.6830 O.3     
  36 C36           -3.7506    -9.1496    20.2807 C.ar    
  37 C37           -6.1834    -8.6475    21.4985 C.ar    
  38 C38           -5.8827    -9.9229    21.0572 C.ar    
  39 C39           -4.6686   -10.1763    20.4489 C.ar    
  40 C40           -4.0527    -7.8717    20.7292 C.ar    
  41 C41           -5.2682    -7.6237    21.3369 C.ar    
  42 H42            4.9794     4.5374     4.1658 H       
  43 H43            6.6505     3.9252     4.2003 H       
  44 H44            4.9522     1.9086     4.7589 H       
  45 H45            3.8266    -2.4740     8.5540 H       
  46 H46            4.1116    -1.5886    10.0716 H       
  47 H47            1.8548    -0.5750     9.9042 H       
  48 H48            1.5697    -1.4605     8.3866 H       
  49 H49            1.8564    -3.6109     9.5875 H       
  50 H50            2.1414    -2.7255    11.1050 H       
  51 H51           -0.1154    -1.7120    10.9376 H       
  52 H52           -0.4005    -2.5974     9.4201 H       
  53 H53           -1.8104    -7.8495    11.7226 H       
  54 H54           -3.2455    -9.0727    13.6479 H       
  55 H55           -1.5726    -9.6795    13.6866 H       
  56 H56            8.3769     5.0954     5.4432 H       
  57 H57            9.1485     7.2526     6.3456 H       
  58 H58            7.5324     9.0647     6.7549 H       
  59 H59            5.1449     8.7200     6.2611 H       
  60 H60            4.3740     6.5644     5.3542 H       
  61 H61           -0.4628    -9.9890    18.2226 H       
  62 H62           -0.3355    -9.7809    15.7733 H       
  63 H63           -4.3475    -8.3362    15.6797 H       
  64 H64           -4.4829    -8.5401    18.1289 H       
  65 H65           -7.1331    -8.4515    21.9739 H       
  66 H66           -6.5993   -10.7208    21.1846 H       
  67 H67           -4.4344   -11.1726    20.1041 H       
  68 H68           -3.3381    -7.0717    20.6035 H       
  69 H69           -5.5055    -6.6283    21.6824 H       
@<TRIPOS>BOND
   1    1    2 1
   2    1   24 ar
   3    1   28 ar
   4    2    3 1
   5    2   42 1
   6    2   43 1
   7    3    4 am
   8    3    5 2
   9    4    6 1
  10    4   44 1
  11    6    8 2
  12    6    7 1
  13    7   10 1
  14    8    9 1
  15    9   10 2
  16   10   11 1
  17   11   12 1
  18   11   45 1
  19   11   46 1
  20   12   13 1
  21   12   47 1
  22   12   48 1
  23   13   14 1
  24   13   49 1
  25   13   50 1
  26   14   15 1
  27   14   51 1
  28   14   52 1
  29   15   17 1
  30   15   16 2
  31   16   19 1
  32   17   18 1
  33   18   19 2
  34   18   20 1
  35   20   21 am
  36   20   53 1
  37   21   22 1
  38   21   23 2
  39   22   29 1
  40   22   54 1
  41   22   55 1
  42   24   25 ar
  43   24   56 1
  44   25   26 ar
  45   25   57 1
  46   26   27 ar
  47   26   58 1
  48   27   28 ar
  49   27   59 1
  50   28   60 1
  51   29   32 ar
  52   29   31 ar
  53   30   31 ar
  54   30   34 ar
  55   30   61 1
  56   31   62 1
  57   32   33 ar
  58   32   63 1
  59   33   34 ar
  60   33   64 1
  61   34   35 1
  62   35   36 1
  63   36   40 ar
  64   36   39 ar
  65   37   38 ar
  66   37   41 ar
  67   37   65 1
  68   38   39 ar
  69   38   66 1
  70   39   67 1
  71   40   41 ar
  72   40   68 1
  73   41   69 1

#	End of record

