#	Name: ASD01916139
#	Creating user name:	WinNT
#	Creation time:	15. 06. 2019 20:06

#	Modifying user name:	WinNT
#	Modification time:	15. 06. 2019 20:06

#	Program:	/corina/corina34_cracker 3.40 0067  02.08.2006

@<TRIPOS>MOLECULE
ASD01916139
  43   46    0    0    0
SMALL
NO_CHARGES


@<TRIPOS>ATOM
   1 C1            -0.3356     1.4187     0.4342 C.ar    
   2 C2            -0.2739     0.0379     0.3742 C.ar    
   3 C3            -1.4440    -0.7058     0.3314 C.ar    
   4 C4            -2.6733    -0.0631     0.3490 C.ar    
   5 C5            -2.7309     1.3162     0.4090 C.ar    
   6 C6            -1.5649     2.0567     0.4573 C.ar    
   7 O7            -1.3862    -2.0622     0.2720 O.3     
   8 C8            -2.6306    -2.7634     0.2305 C.3     
   9 C9            -2.3698    -4.2463     0.1672 C.2     
  10 C10           -1.1099    -4.8582     0.1508 C.2     
  11 N11           -3.2826    -5.1851     0.1238 N.2     
  12 N12           -2.6339    -6.4220     0.0769 N.pl3   
  13 C13           -1.3009    -6.1895     0.0898 C.2     
  14 C14           -3.2535    -7.7493     0.0318 C.3     
  15 C15           -2.2258    -8.7700    -0.4689 C.3     
  16 N16           -0.9513    -8.5590     0.2344 N.am    
  17 C17           -0.2530    -7.2759     0.0362 C.3     
  18 C18           -0.4373    -9.5094     1.0400 C.2     
  19 C19            0.9150    -9.3385     1.6168 C.ar    
  20 O20           -1.0842   -10.5067     1.2929 O.2     
  21 C21            1.3871   -10.2542     2.5582 C.ar    
  22 C22            2.6591   -10.0787     3.0895 C.ar    
  23 C23            3.4098    -8.9972     2.6610 C.ar    
  24 C24            2.8760    -8.1273     1.7220 C.ar    
  25 N25            1.6721    -8.3181     1.2305 N.ar    
  26 F26            0.8030     2.1446     0.4758 F       
  27 F27            0.6190   -11.2951     2.9476 F       
  28 H28            0.6842    -0.4603     0.3602 H       
  29 H29           -3.5852    -0.6407     0.3154 H       
  30 H30           -3.6882     1.8159     0.4226 H       
  31 H31           -1.6122     3.1346     0.5045 H       
  32 H32           -3.2071    -2.5338     1.1267 H       
  33 H33           -3.1921    -2.4552    -0.6515 H       
  34 H34           -0.1561    -4.3525     0.1817 H       
  35 H35           -3.5875    -8.0292     1.0310 H       
  36 H36           -4.1070    -7.7298    -0.6458 H       
  37 H37           -2.5882    -9.7787    -0.2709 H       
  38 H38           -2.0760    -8.6400    -1.5407 H       
  39 H39            0.2390    -7.2667    -0.9364 H       
  40 H40            0.4819    -7.1264     0.8272 H       
  41 H41            3.0529   -10.7697     3.8201 H       
  42 H42            4.4019    -8.8323     3.0546 H       
  43 H43            3.4600    -7.2831     1.3864 H       
@<TRIPOS>BOND
   1    1    2 ar
   2    1   26 1
   3    1    6 ar
   4    2    3 ar
   5    2   28 1
   6    3    4 ar
   7    3    7 1
   8    4    5 ar
   9    4   29 1
  10    5    6 ar
  11    5   30 1
  12    6   31 1
  13    7    8 1
  14    8    9 1
  15    8   32 1
  16    8   33 1
  17    9   10 1
  18    9   11 2
  19   10   13 2
  20   10   34 1
  21   11   12 1
  22   12   13 1
  23   12   14 1
  24   13   17 1
  25   14   15 1
  26   14   35 1
  27   14   36 1
  28   15   16 1
  29   15   37 1
  30   15   38 1
  31   16   17 1
  32   16   18 am
  33   17   39 1
  34   17   40 1
  35   18   19 1
  36   18   20 2
  37   19   21 ar
  38   19   25 ar
  39   21   22 ar
  40   21   27 1
  41   22   23 ar
  42   22   41 1
  43   23   24 ar
  44   23   42 1
  45   24   25 ar
  46   24   43 1

#	End of record

