#	Name: ASD01209246
#	Creating user name:	WinNT
#	Creation time:	15. 06. 2019 19:11

#	Modifying user name:	WinNT
#	Modification time:	15. 06. 2019 19:11

#	Program:	/corina/corina34_cracker 3.40 0067  02.08.2006

@<TRIPOS>MOLECULE
ASD01209246
  77   79    0    0    0
SMALL
NO_CHARGES


@<TRIPOS>ATOM
   1 C1             0.8241     0.9528     1.3938 C.ar    
   2 C2             1.0414    -0.4094     1.3346 C.ar    
   3 C3             2.2833    -0.9008     0.9620 C.ar    
   4 C4             3.3185    -0.0105     0.6452 C.ar    
   5 C5             3.0897     1.3661     0.7078 C.ar    
   6 C6             1.8458     1.8408     1.0812 C.ar    
   7 O7             2.4959    -2.2400     0.9046 O.3     
   8 C8             1.4531    -3.0642     1.1864 C.ar    
   9 C9             0.4629    -3.2813     0.2389 C.ar    
  10 C10           -0.5962    -4.1196     0.5280 C.ar    
  11 C11           -0.6705    -4.7418     1.7606 C.ar    
  12 C12            1.3793    -3.6947     2.4203 C.ar    
  13 C13            0.3146    -4.5269     2.7068 C.ar    
  14 S14           -2.0231    -5.8101     2.1263 S.o2    
  15 O15           -2.1341    -5.7628     3.5422 O.2     
  16 O16           -3.0747    -5.3420     1.2930 O.2     
  17 C17           -1.4644    -7.4491     1.5860 C.3     
  18 C18            4.6428    -0.5246     0.2483 C.2     
  19 O19            4.8387    -1.7236     0.1952 O.2     
  20 N20            5.6358     0.3346    -0.0556 N.am    
  21 C21            6.8873    -0.1512    -0.4307 C.2     
  22 N22            7.9724     0.5952    -0.7618 N.pl3   
  23 N23            9.0181    -0.2834    -1.0729 N.2     
  24 C24            8.5825    -1.5094    -0.9353 C.2     
  25 C25            7.2471    -1.4607    -0.5265 C.2     
  26 C26            9.3864    -2.7619    -1.1719 C.3     
  27 C27            8.0377     2.0585    -0.7893 C.3     
  28 P28            8.5608     2.6742     0.8449 P.3     
  29 O29            7.6526     2.1434     1.8859 O.2     
  30 O30            1.6219     3.1807     1.1424 O.3     
  31 C31            0.2914     3.6028     1.4486 C.3     
  32 C32            0.0666     5.0151     0.9047 C.3     
  33 O33            0.9214     5.9316     1.5912 O.3     
  34 C34            0.7894     7.2865     1.1565 C.3     
  35 C35            0.0928     3.6029     2.9657 C.3     
  36 O36           10.0653     2.1864     1.1457 O.3     
  37 C37           12.1349     1.8286     2.3413 C.3     
  38 C38           10.7245     2.4193     2.3921 C.3     
  39 O39            8.5063     4.2833     0.8547 O.3     
  40 C40            8.6250     6.5494     1.6861 C.3     
  41 C41            8.7586     5.0634     2.0251 C.3     
  42 H42           -0.1465     1.3300     1.6803 H       
  43 H43            0.2425    -1.0936     1.5794 H       
  44 H44            3.8827     2.0580     0.4654 H       
  45 H45            0.5201    -2.7950    -0.7238 H       
  46 H46           -1.3671    -4.2889    -0.2092 H       
  47 H47            2.1512    -3.5312     3.1578 H       
  48 H48            0.2540    -5.0138     3.6689 H       
  49 H49           -0.5660    -7.7268     2.1373 H       
  50 H50           -2.2487    -8.1816     1.7769 H       
  51 H51           -1.2427    -7.4240     0.5191 H       
  52 H52            5.4796     1.2910    -0.0133 H       
  53 H53            6.6114    -2.3110    -0.3285 H       
  54 H54            9.8770    -3.0593    -0.2451 H       
  55 H55            8.7243    -3.5610    -1.5052 H       
  56 H56           10.1393    -2.5712    -1.9366 H       
  57 H57            8.7567     2.3760    -1.5444 H       
  58 H58            7.0544     2.4615    -1.0317 H       
  59 H59           -0.4217     2.9186     0.9889 H       
  60 H60            0.2943     5.0345    -0.1611 H       
  61 H61           -0.9734     5.3026     1.0593 H       
  62 H62            1.4710     7.9187     1.7255 H       
  63 H63            1.0321     7.3530     0.0959 H       
  64 H64           -0.2355     7.6212     1.3163 H       
  65 H65            0.8059     4.2872     3.4254 H       
  66 H66           -0.9220     3.9249     3.1992 H       
  67 H67            0.2530     2.5968     3.3532 H       
  68 H68           12.0732     0.7559     2.1578 H       
  69 H69           12.6987     2.3027     1.5379 H       
  70 H70           12.6377     2.0062     3.2919 H       
  71 H71           10.7862     3.4920     2.5755 H       
  72 H72           10.1607     1.9451     3.1954 H       
  73 H73            9.3463     6.8117     0.9121 H       
  74 H74            7.6161     6.7506     1.3258 H       
  75 H75            8.8174     7.1444     2.5788 H       
  76 H76            8.0373     4.8010     2.7991 H       
  77 H77            9.7675     4.8622     2.3854 H       
@<TRIPOS>BOND
   1    1    2 ar
   2    1    6 ar
   3    1   42 1
   4    2    3 ar
   5    2   43 1
   6    3    4 ar
   7    3    7 1
   8    4    5 ar
   9    4   18 1
  10    5    6 ar
  11    5   44 1
  12    6   30 1
  13    7    8 1
  14    8    9 ar
  15    8   12 ar
  16    9   10 ar
  17    9   45 1
  18   10   11 ar
  19   10   46 1
  20   11   13 ar
  21   11   14 1
  22   12   13 ar
  23   12   47 1
  24   13   48 1
  25   14   15 2
  26   14   16 2
  27   14   17 1
  28   17   49 1
  29   17   50 1
  30   17   51 1
  31   18   19 2
  32   18   20 am
  33   20   21 1
  34   20   52 1
  35   21   22 1
  36   21   25 2
  37   22   23 1
  38   22   27 1
  39   23   24 2
  40   24   25 1
  41   24   26 1
  42   25   53 1
  43   26   54 1
  44   26   55 1
  45   26   56 1
  46   27   28 1
  47   27   57 1
  48   27   58 1
  49   28   29 2
  50   28   36 1
  51   28   39 1
  52   30   31 1
  53   31   32 1
  54   31   35 1
  55   31   59 1
  56   32   33 1
  57   32   60 1
  58   32   61 1
  59   33   34 1
  60   34   62 1
  61   34   63 1
  62   34   64 1
  63   35   65 1
  64   35   66 1
  65   35   67 1
  66   36   38 1
  67   37   38 1
  68   37   68 1
  69   37   69 1
  70   37   70 1
  71   38   71 1
  72   38   72 1
  73   39   41 1
  74   40   41 1
  75   40   73 1
  76   40   74 1
  77   40   75 1
  78   41   76 1
  79   41   77 1

#	End of record

