#	Name: ASD01150627
#	Creating user name:	WinNT
#	Creation time:	15. 06. 2019 19:04

#	Modifying user name:	WinNT
#	Modification time:	15. 06. 2019 19:04

#	Program:	/corina/corina34_cracker 3.40 0067  02.08.2006

@<TRIPOS>MOLECULE
ASD01150627
  49   51    0    0    0
SMALL
NO_CHARGES


@<TRIPOS>ATOM
   1 C1             0.6179     1.6565    -0.8140 C.ar    
   2 C2             0.6269     0.2874    -0.9973 C.ar    
   3 C3             2.0356     0.0354     0.9318 C.ar    
   4 C4             2.0285     1.4101     1.1178 C.ar    
   5 C5             1.3188     2.2221     0.2442 C.ar    
   6 N6             1.3094     3.6093     0.4287 N.am    
   7 C7             0.1419     4.2753     0.3886 C.2     
   8 N8             0.0961     5.6093     0.5620 N.am    
   9 C9             1.2332     6.3018     0.7808 C.2     
  10 C10            2.5133     5.5792     0.8263 C.2     
  11 N11            2.5148     4.2831     0.6581 N.2     
  12 O12            1.2000     7.5081     0.9381 O.2     
  13 C13           -1.1895     6.3101     0.5125 C.3     
  14 O14           -0.8898     3.6621     0.1921 O.2     
  15 C15           -1.8307     6.2803     1.8759 C.ar    
  16 O16            3.6755     6.2479     1.0448 O.3     
  17 C17            4.8749     5.4716     1.0741 C.3     
  18 C18            1.3330    -0.5245    -0.1288 C.ar    
  19 N19            2.7507    -0.7869     1.8105 N.am    
  20 C20            3.0851    -0.3344     3.0352 C.2     
  21 O21            2.6965     0.7526     3.4072 O.2     
  22 C22            3.9419    -1.1793     3.9425 C.3     
  23 C23           -1.1415     5.7546     2.9520 C.ar    
  24 C24           -1.7273     5.7260     4.2039 C.ar    
  25 C25           -3.0066     6.2241     4.3834 C.ar    
  26 C26           -3.7012     6.7525     3.3075 C.ar    
  27 C27           -3.1103     6.7857     2.0516 C.ar    
  28 Cl28           1.3415    -2.2447    -0.3630 Cl      
  29 O29           -3.7889     7.3035     0.9934 O.3     
  30 C30           -3.7233     8.7192     0.8105 C.3     
  31 F31           -4.9496     7.2389     3.4810 F       
  32 F32           -3.5776     6.1944     5.6074 F       
  33 H33            0.0692     2.2885    -1.4966 H       
  34 H34            0.0811    -0.1498    -1.8203 H       
  35 H35            2.5739     1.8476     1.9409 H       
  36 H36           -1.0280     7.3446     0.2094 H       
  37 H37           -1.8437     5.8185    -0.2075 H       
  38 H38            5.0037     4.9655     0.1174 H       
  39 H39            5.7271     6.1264     1.2564 H       
  40 H40            4.8089     4.7309     1.8711 H       
  41 H41            3.0054    -1.6822     1.5380 H       
  42 H42            4.9928    -0.9472     3.7697 H       
  43 H43            3.6892    -0.9678     4.9815 H       
  44 H44            3.7635    -2.2339     3.7326 H       
  45 H45           -0.1435     5.3651     2.8147 H       
  46 H46           -1.1863     5.3143     5.0431 H       
  47 H47           -4.0473     9.2189     1.7235 H       
  48 H48           -2.6976     9.0089     0.5821 H       
  49 H49           -4.3749     9.0097    -0.0135 H       
@<TRIPOS>BOND
   1    1    2 ar
   2    1    5 ar
   3    1   33 1
   4    2   18 ar
   5    2   34 1
   6    3    4 ar
   7    3   19 1
   8    3   18 ar
   9    4    5 ar
  10    4   35 1
  11    5    6 1
  12    6    7 am
  13    6   11 1
  14    7    8 am
  15    7   14 2
  16    8    9 am
  17    8   13 1
  18    9   10 1
  19    9   12 2
  20   10   11 2
  21   10   16 1
  22   13   15 1
  23   13   36 1
  24   13   37 1
  25   15   23 ar
  26   15   27 ar
  27   16   17 1
  28   17   38 1
  29   17   39 1
  30   17   40 1
  31   18   28 1
  32   19   20 am
  33   19   41 1
  34   20   21 2
  35   20   22 1
  36   22   42 1
  37   22   43 1
  38   22   44 1
  39   23   24 ar
  40   23   45 1
  41   24   25 ar
  42   24   46 1
  43   25   26 ar
  44   25   32 1
  45   26   27 ar
  46   26   31 1
  47   27   29 1
  48   29   30 1
  49   30   47 1
  50   30   48 1
  51   30   49 1

#	End of record

