#	Name: ASD03331347
#	Creating user name:	WinNT
#	Creation time:	15. 06. 2019 20:39

#	Modifying user name:	WinNT
#	Modification time:	15. 06. 2019 20:39

#	Program:	/corina/corina34_cracker 3.40 0067  02.08.2006

@<TRIPOS>MOLECULE
ASD03331347
  71   74    0    0    0
SMALL
NO_CHARGES


@<TRIPOS>ATOM
   1 N1             0.4104     1.0410     0.4123 N.3     
   2 C2             0.3011    -0.4210     0.5119 C.3     
   3 C3            -1.1712    -0.8171     0.6919 C.3     
   4 C4            -1.9763    -0.0949    -0.3600 C.2     
   5 C5            -1.5009     0.9612    -1.0630 C.2     
   6 C6            -0.1197     1.5347    -0.8702 C.3     
   7 N7            -3.2405    -0.3407    -0.7791 N.am    
   8 N8            -3.5518     0.5955    -1.7777 N.2     
   9 C9            -2.5062     1.3788    -1.9496 C.2     
  10 C10           -4.0544    -1.3118    -0.3199 C.2     
  11 O11           -3.6690    -2.0658     0.5515 O.2     
  12 N12           -5.2957    -1.4465    -0.8271 N.am    
  13 C13           -6.1804    -2.5021    -0.3279 C.3     
  14 C14           -2.4086     2.5046    -2.9108 C.ar    
  15 C15           -1.2829     2.6359    -3.7211 C.ar    
  16 C16           -1.1963     3.6860    -4.6149 C.ar    
  17 C17           -2.2279     4.6093    -4.7059 C.ar    
  18 C18           -3.3485     4.4832    -3.9021 C.ar    
  19 C19           -3.4467     3.4322    -3.0100 C.ar    
  20 F20           -2.1387     5.6348    -5.5809 F       
  21 F21           -0.1051     3.8142    -5.4012 F       
  22 F22           -4.5404     3.3100    -2.2263 F       
  23 C23            1.7979     1.4800     0.6124 C.3     
  24 C24           -7.1927    -2.8523    -1.3880 C.2     
  25 C25           -6.9051    -2.0094     0.9263 C.3     
  26 N26           -7.6560    -4.1140    -1.4868 N.am    
  27 O27           -7.5904    -1.9986    -2.1522 O.2     
  28 C28           -8.5588    -4.4964    -2.5811 C.3     
  29 C29           -7.2630    -5.1348    -0.5058 C.3     
  30 C30           -6.6934    -6.3442    -1.2540 C.3     
  31 C31           -7.7135    -6.8260    -2.2881 C.3     
  32 C32           -7.9720    -5.7143    -3.3017 C.3     
  33 C33           -7.1705    -8.0367    -3.0026 C.2     
  34 O34           -6.0758    -8.4712    -2.7133 O.2     
  35 N35           -7.9014    -8.6365    -3.9630 N.am    
  36 C36           -7.6241    -0.6948     0.6166 C.3     
  37 C37           -7.9276    -3.0578     1.3695 C.3     
  38 C38           -5.8883    -1.7829     2.0469 C.3     
  39 H39            0.6908    -0.8769    -0.3982 H       
  40 H40            0.8781    -0.7705     1.3681 H       
  41 H41           -1.2815    -1.8942     0.5661 H       
  42 H42           -1.5134    -0.5239     1.6844 H       
  43 H43           -0.1731     2.6232    -0.8511 H       
  44 H44            0.5291     1.2122    -1.6846 H       
  45 H45           -5.6034    -0.8446    -1.5228 H       
  46 H46           -5.5903    -3.3853    -0.0832 H       
  47 H47           -0.4790     1.9181    -3.6506 H       
  48 H48           -4.1490     5.2044    -3.9760 H       
  49 H49            2.4457     0.9750    -0.1041 H       
  50 H50            1.8629     2.5579     0.4642 H       
  51 H51            2.1146     1.2328     1.6257 H       
  52 H52           -9.5384    -4.7489    -2.1752 H       
  53 H53           -8.6542    -3.6677    -3.2826 H       
  54 H54           -6.5037    -4.7271     0.1615 H       
  55 H55           -8.1348    -5.4404     0.0727 H       
  56 H56           -5.7708    -6.0581    -1.7590 H       
  57 H57           -6.4872    -7.1463    -0.5453 H       
  58 H58           -8.6442    -7.0886    -1.7851 H       
  59 H59           -8.6807    -6.0640    -4.0523 H       
  60 H60           -7.0352    -5.4383    -3.7857 H       
  61 H61           -8.7770    -8.2890    -4.1943 H       
  62 H62           -7.5519    -9.4157    -4.4229 H       
  63 H63           -8.3484    -0.8562    -0.1817 H       
  64 H64           -8.1403    -0.3438     1.5101 H       
  65 H65           -6.8956     0.0520     0.3008 H       
  66 H66           -7.4087    -3.9711     1.6604 H       
  67 H67           -8.4947    -2.6760     2.2185 H       
  68 H68           -8.6077    -3.2731     0.5455 H       
  69 H69           -5.1599    -1.0361     1.7312 H       
  70 H70           -6.4046    -1.4319     2.9404 H       
  71 H71           -5.3762    -2.7195     2.2675 H       
@<TRIPOS>BOND
   1    1    2 1
   2    1   23 1
   3    1    6 1
   4    2    3 1
   5    2   39 1
   6    2   40 1
   7    3    4 1
   8    3   41 1
   9    3   42 1
  10    4    5 2
  11    4    7 1
  12    5    6 1
  13    5    9 1
  14    6   43 1
  15    6   44 1
  16    7    8 1
  17    7   10 am
  18    8    9 2
  19    9   14 1
  20   10   11 2
  21   10   12 am
  22   12   13 1
  23   12   45 1
  24   13   24 1
  25   13   25 1
  26   13   46 1
  27   14   15 ar
  28   14   19 ar
  29   15   16 ar
  30   15   47 1
  31   16   17 ar
  32   16   21 1
  33   17   18 ar
  34   17   20 1
  35   18   19 ar
  36   18   48 1
  37   19   22 1
  38   23   49 1
  39   23   50 1
  40   23   51 1
  41   24   26 am
  42   24   27 2
  43   25   36 1
  44   25   37 1
  45   25   38 1
  46   26   28 1
  47   26   29 1
  48   28   32 1
  49   28   52 1
  50   28   53 1
  51   29   30 1
  52   29   54 1
  53   29   55 1
  54   30   31 1
  55   30   56 1
  56   30   57 1
  57   31   32 1
  58   31   33 1
  59   31   58 1
  60   32   59 1
  61   32   60 1
  62   33   34 2
  63   33   35 am
  64   35   61 1
  65   35   62 1
  66   36   63 1
  67   36   64 1
  68   36   65 1
  69   37   66 1
  70   37   67 1
  71   37   68 1
  72   38   69 1
  73   38   70 1
  74   38   71 1

#	End of record

