#	Name: ASD01920031
#	Creating user name:	WinNT
#	Creation time:	15. 06. 2019 20:11

#	Modifying user name:	WinNT
#	Modification time:	15. 06. 2019 20:11

#	Program:	/corina/corina34_cracker 3.40 0067  02.08.2006

@<TRIPOS>MOLECULE
ASD01920031
  55   58    0    0    0
SMALL
NO_CHARGES


@<TRIPOS>ATOM
   1 C1             0.3485     1.5015     0.1889 C.3     
   2 C2             0.1795    -0.0158     0.0883 C.3     
   3 C3             0.9946    -0.6939     1.1918 C.3     
   4 C4             0.8507    -2.2139     1.0667 C.3     
   5 N5            -0.5782    -2.5560     1.0751 N.pl3   
   6 C6            -1.4691    -1.8923     0.1135 C.3     
   7 C7            -1.2992    -0.3759     0.2494 C.3     
   8 C8            -1.0700    -3.4759     1.9616 C.2     
   9 N9            -0.2751    -3.9744     2.8844 N.2     
  10 C10           -0.7076    -4.8741     3.7736 C.2     
  11 C11           -2.0019    -5.2878     3.7360 C.2     
  12 C12           -2.8598    -4.7633     2.7489 C.2     
  13 N13           -2.3738    -3.8554     1.8774 N.am    
  14 O14           -4.0246    -5.1208     2.6864 O.2     
  15 C15            0.2689    -5.4055     4.7896 C.3     
  16 N16           -0.4426    -6.0309     5.9088 N.3     
  17 C17           -1.4050    -7.0260     5.4090 C.3     
  18 C18           -2.5519    -6.2858     4.7194 C.3     
  19 C19            0.4996    -6.6398     6.8572 C.3     
  20 C20            1.3207    -5.5597     7.5131 C.ar    
  21 C21            0.8794    -4.9727     8.6846 C.ar    
  22 C22            1.6302    -3.9824     9.2878 C.ar    
  23 C23            2.8279    -3.5769     8.7171 C.ar    
  24 C24            3.2685    -4.1674     7.5415 C.ar    
  25 C25            2.5168    -5.1613     6.9453 C.ar    
  26 O26            3.5682    -2.6025     9.3083 O.3     
  27 C27            4.7902    -2.2356     8.6648 C.3     
  28 H28            1.4014     1.7583     0.0730 H       
  29 H29           -0.2320     1.9847    -0.5970 H       
  30 H30           -0.0036     1.8425     1.1625 H       
  31 H31            0.5321    -0.3566    -0.8852 H       
  32 H32            2.0443    -0.4182     1.0905 H       
  33 H33            0.6260    -0.3726     2.1660 H       
  34 H34            1.3009    -2.5478     0.1318 H       
  35 H35            1.3473    -2.6984     1.9074 H       
  36 H36           -1.2080    -2.2000    -0.8990 H       
  37 H37           -2.5031    -2.1646     0.3253 H       
  38 H38           -1.6462    -0.0576     1.2324 H       
  39 H39           -1.8821     0.1261    -0.5228 H       
  40 H40           -2.9479    -3.4814     1.1908 H       
  41 H41            0.9143    -6.1450     4.3155 H       
  42 H42            0.8794    -4.5844     5.1654 H       
  43 H43           -0.9124    -7.6855     4.6945 H       
  44 H44           -1.7946    -7.6099     6.2429 H       
  45 H45           -3.1485    -5.7649     5.4682 H       
  46 H46           -3.1811    -7.0036     4.1930 H       
  47 H47           -0.0549    -7.1878     7.6190 H       
  48 H48            1.1593    -7.3249     6.3247 H       
  49 H49           -0.0532    -5.2885     9.1283 H       
  50 H50            1.2850    -3.5240    10.2027 H       
  51 H51            4.2005    -3.8534     7.0953 H       
  52 H52            2.8593    -5.6213     6.0302 H       
  53 H53            5.2814    -1.4498     9.2388 H       
  54 H54            5.4447    -3.1052     8.6052 H       
  55 H55            4.5767    -1.8720     7.6597 H       
@<TRIPOS>BOND
   1    1    2 1
   2    1   28 1
   3    1   29 1
   4    1   30 1
   5    2    3 1
   6    2    7 1
   7    2   31 1
   8    3    4 1
   9    3   32 1
  10    3   33 1
  11    4    5 1
  12    4   34 1
  13    4   35 1
  14    5    6 1
  15    5    8 1
  16    6    7 1
  17    6   36 1
  18    6   37 1
  19    7   38 1
  20    7   39 1
  21    8    9 2
  22    8   13 1
  23    9   10 1
  24   10   11 2
  25   10   15 1
  26   11   12 1
  27   11   18 1
  28   12   13 am
  29   12   14 2
  30   13   40 1
  31   15   16 1
  32   15   41 1
  33   15   42 1
  34   16   17 1
  35   16   19 1
  36   17   18 1
  37   17   43 1
  38   17   44 1
  39   18   45 1
  40   18   46 1
  41   19   20 1
  42   19   47 1
  43   19   48 1
  44   20   21 ar
  45   20   25 ar
  46   21   22 ar
  47   21   49 1
  48   22   23 ar
  49   22   50 1
  50   23   24 ar
  51   23   26 1
  52   24   25 ar
  53   24   51 1
  54   25   52 1
  55   26   27 1
  56   27   53 1
  57   27   54 1
  58   27   55 1

#	End of record

