#	Name: ASD01901147
#	Creating user name:	WinNT
#	Creation time:	15. 06. 2019 19:53

#	Modifying user name:	WinNT
#	Modification time:	15. 06. 2019 19:53

#	Program:	/corina/corina34_cracker 3.40 0067  02.08.2006

@<TRIPOS>MOLECULE
ASD01901147
  52   55    0    0    0
SMALL
NO_CHARGES


@<TRIPOS>ATOM
   1 C1            -0.0166     1.3750     0.0097 C.ar    
   2 C2             0.0021    -0.0041     0.0021 C.ar    
   3 C3             1.2078    -0.6830    -0.0131 C.ar    
   4 C4             2.4027     0.0149    -0.0207 C.ar    
   5 C5             2.3997     1.3941    -0.0129 C.ar    
   6 C6             1.1860     2.0866     0.0020 C.ar    
   7 C7             1.1748     3.5185     0.0093 C.1     
   8 C8             1.1656     4.6925     0.0153 C.1     
   9 C9             1.1543     6.1244     0.0226 C.ar    
  10 C10            2.3583     6.8345     0.0149 C.ar    
  11 C11            2.3437     8.2144     0.0221 C.ar    
  12 C12            1.1325     8.8988     0.0369 C.ar    
  13 C13           -0.0678     8.1953     0.0446 C.ar    
  14 C14           -0.0608     6.8154     0.0317 C.ar    
  15 N15            1.1215    10.3012     0.0446 N.am    
  16 C16            1.1055    10.9691    -1.1209 C.2     
  17 N17            0.8560    12.2876    -1.1725 N.am    
  18 C18            0.4690    13.0279     0.0299 C.3     
  19 C19            1.2154    12.4629     1.2406 C.3     
  20 C20            1.1214    10.9575     1.2192 C.2     
  21 O21            1.3226    10.3657    -2.1533 O.2     
  22 F22            3.5068     8.9015     0.0151 F       
  23 O23            1.0497    10.3390     2.2596 O.2     
  24 F24           -1.2416     8.8640     0.0590 F       
  25 C25            0.9730    12.9953    -2.4499 C.3     
  26 C26            0.8287    14.5045    -0.1471 C.3     
  27 C27           -1.0161    12.8958     0.2491 C.ar    
  28 C28           -1.5983    13.4346     1.3812 C.ar    
  29 C29           -1.7970    12.2408    -0.6848 C.ar    
  30 C30           -3.1592    12.1195    -0.4837 C.ar    
  31 C31           -3.7405    12.6529     0.6514 C.ar    
  32 C32           -2.9606    13.3134     1.5822 C.ar    
  33 H33           -0.9584     1.9035     0.0170 H       
  34 H34           -0.9266    -0.5554     0.0083 H       
  35 H35            1.2163    -1.7630    -0.0186 H       
  36 H36            3.3399    -0.5217    -0.0326 H       
  37 H37            3.3331     1.9375    -0.0181 H       
  38 H38            3.2989     6.3039     0.0038 H       
  39 H39           -0.9929     6.2700     0.0328 H       
  40 H40            2.2614    12.7666     1.1979 H       
  41 H41            0.7625    12.8415     2.1569 H       
  42 H42            1.2680    12.2924    -3.2290 H       
  43 H43            0.0123    13.4412    -2.7076 H       
  44 H44            1.7257    13.7790    -2.3635 H       
  45 H45            1.9029    14.6004    -0.3052 H       
  46 H46            0.2971    14.9071    -1.0093 H       
  47 H47            0.5422    15.0579     0.7472 H       
  48 H48           -0.9888    13.9499     2.1087 H       
  49 H49           -1.3428    11.8240    -1.5716 H       
  50 H50           -3.7694    11.6084    -1.2136 H       
  51 H51           -4.8049    12.5586     0.8083 H       
  52 H52           -3.4154    13.7340     2.4669 H       
@<TRIPOS>BOND
   1    1    2 ar
   2    1    6 ar
   3    1   33 1
   4    2    3 ar
   5    2   34 1
   6    3    4 ar
   7    3   35 1
   8    4    5 ar
   9    4   36 1
  10    5    6 ar
  11    5   37 1
  12    6    7 1
  13    7    8 3
  14    8    9 1
  15    9   10 ar
  16    9   14 ar
  17   10   11 ar
  18   10   38 1
  19   11   12 ar
  20   11   22 1
  21   12   13 ar
  22   12   15 1
  23   13   14 ar
  24   13   24 1
  25   14   39 1
  26   15   16 am
  27   15   20 am
  28   16   17 am
  29   16   21 2
  30   17   25 1
  31   17   18 1
  32   18   19 1
  33   18   26 1
  34   18   27 1
  35   19   20 1
  36   19   40 1
  37   19   41 1
  38   20   23 2
  39   25   42 1
  40   25   43 1
  41   25   44 1
  42   26   45 1
  43   26   46 1
  44   26   47 1
  45   27   29 ar
  46   27   28 ar
  47   28   32 ar
  48   28   48 1
  49   29   30 ar
  50   29   49 1
  51   30   31 ar
  52   30   50 1
  53   31   32 ar
  54   31   51 1
  55   32   52 1

#	End of record

