#	Name: ASD02448145
#	Creating user name:	WinNT
#	Creation time:	15. 06. 2019 20:21

#	Modifying user name:	WinNT
#	Modification time:	15. 06. 2019 20:21

#	Program:	/corina/corina34_cracker 3.40 0067  02.08.2006

@<TRIPOS>MOLECULE
ASD02448145
  81   87    0    0    0
SMALL
NO_CHARGES


@<TRIPOS>ATOM
   1 C1            -0.0166     1.3760     0.0096 C.ar    
   2 C2             0.0021    -0.0041     0.0020 C.ar    
   3 C3             1.2137    -0.6821    -0.0132 C.ar    
   4 C4             2.4066     0.0277    -0.0203 C.ar    
   5 C5             2.3888     1.4082    -0.0127 C.ar    
   6 C6             1.1770     2.0868     0.0020 C.ar    
   7 N7             1.1585     3.4848     0.0092 N.am    
   8 C8             0.0921     4.3757    -0.4660 C.3     
   9 C9             0.4612     5.8123    -0.2810 C.2     
  10 N10            1.6661     6.0160     0.2701 N.am    
  11 S11            2.3398     4.5229     0.5664 S.o2    
  12 O12           -0.2720     6.7226    -0.6046 O.2     
  13 O13            2.4127     4.3683     1.9771 O.2     
  14 O14            3.4537     4.3851    -0.3051 O.2     
  15 N15            1.2323    -2.0855    -0.0209 N.pl3   
  16 C16            0.7680    -2.8978    -1.0203 C.2     
  17 C17            1.7197    -2.8900     0.9594 C.2     
  18 N18            1.5661    -4.1338     0.5996 N.2     
  19 C19            0.9826    -4.1769    -0.6153 C.2     
  20 C20            0.6363    -5.4033    -1.3749 C.ar    
  21 C21            0.9142    -6.6607    -0.8386 C.ar    
  22 C22            0.0272    -5.3034    -2.6239 C.ar    
  23 C23           -0.2930    -6.4473    -3.3268 C.ar    
  24 C24           -0.0102    -7.6928    -2.7933 C.ar    
  25 C25            0.5898    -7.7988    -1.5501 C.ar    
  26 C26            1.2646    -2.2856     3.3012 C.ar    
  27 C27            0.9514    -3.3634     4.1097 C.ar    
  28 C28            0.6005    -1.0822     3.4563 C.ar    
  29 C29           -0.3787    -0.9506     4.4200 C.ar    
  30 C30           -0.6981    -2.0330     5.2373 C.ar    
  31 C31           -0.0267    -3.2432     5.0761 C.ar    
  32 C32           -1.7496    -1.8973     6.2755 C.ar    
  33 Cl33          -0.4163    -9.1272    -3.6828 Cl      
  34 Cl34           1.6671    -6.7944     0.7200 Cl      
  35 C35            2.3374    -2.4212     2.2516 C.3     
  36 C36           -2.0691    -2.9797     7.0928 C.ar    
  37 C37           -3.0476    -2.8478     8.0571 C.ar    
  38 C38           -3.7107    -1.6439     8.2131 C.ar    
  39 C39           -3.3976    -0.5662     7.4046 C.ar    
  40 C40           -2.4171    -0.6854     6.4406 C.ar    
  41 C41           -4.7785    -1.5062     9.2675 C.3     
  42 C42           -4.3826    -0.4054    10.2536 C.3     
  43 C43           -5.4667    -0.2655    11.3241 C.3     
  44 C44           -6.7957     0.0991    10.6595 C.3     
  45 C45           -7.1916    -1.0017     9.6734 C.3     
  46 C46           -6.1075    -1.1416     8.6029 C.3     
  47 C47            3.7213    -0.7087    -0.0358 C.3     
  48 H48           -0.9591     1.9033     0.0169 H       
  49 H49           -0.9258    -0.5567     0.0083 H       
  50 H50            3.3169     1.9603    -0.0179 H       
  51 H51           -0.0861     4.1864    -1.5245 H       
  52 H52           -0.8216     4.1674     0.0907 H       
  53 H53            2.0702     6.8762     0.4637 H       
  54 H54            0.3184    -2.5830    -1.9503 H       
  55 H55           -0.1944    -4.3323    -3.0414 H       
  56 H56           -0.7655    -6.3703    -4.2950 H       
  57 H57            0.8084    -8.7729    -1.1382 H       
  58 H58            1.4730    -4.3007     3.9844 H       
  59 H59            0.8489    -0.2439     2.8223 H       
  60 H60           -0.8960    -0.0103     4.5407 H       
  61 H61           -0.2706    -4.0854     5.7066 H       
  62 H62            3.0805    -3.1465     2.5832 H       
  63 H63            2.8172    -1.4550     2.0955 H       
  64 H64           -1.5522    -3.9202     6.9716 H       
  65 H65           -3.2962    -3.6862     8.6909 H       
  66 H66           -3.9186     0.3714     7.5304 H       
  67 H67           -2.1734     0.1567     5.8098 H       
  68 H68           -4.8862    -2.4505     9.8012 H       
  69 H69           -3.4358    -0.6651    10.7271 H       
  70 H70           -4.2749     0.5389     9.7200 H       
  71 H71           -5.5743    -1.2098    11.8578 H       
  72 H72           -5.1846     0.5187    12.0266 H       
  73 H73           -7.5680     0.1987    11.4221 H       
  74 H74           -6.6880     1.0434    10.1258 H       
  75 H75           -7.2993    -1.9460    10.2070 H       
  76 H76           -8.1384    -0.7420     9.1999 H       
  77 H77           -5.9999    -0.1973     8.0692 H       
  78 H78           -6.3896    -1.9258     7.9004 H       
  79 H79            4.0291    -0.8811    -1.0672 H       
  80 H80            4.4778    -0.1124     0.4743 H       
  81 H81            3.6080    -1.6654     0.4742 H       
@<TRIPOS>BOND
   1    1    2 ar
   2    1    6 ar
   3    1   48 1
   4    2    3 ar
   5    2   49 1
   6    3    4 ar
   7    3   15 1
   8    4    5 ar
   9    4   47 1
  10    5    6 ar
  11    5   50 1
  12    6    7 1
  13    7    8 1
  14    7   11 am
  15    8    9 1
  16    8   51 1
  17    8   52 1
  18    9   10 am
  19    9   12 2
  20   10   11 am
  21   10   53 1
  22   11   13 2
  23   11   14 2
  24   15   16 1
  25   15   17 1
  26   16   19 2
  27   16   54 1
  28   17   18 2
  29   17   35 1
  30   18   19 1
  31   19   20 1
  32   20   21 ar
  33   20   22 ar
  34   21   34 1
  35   21   25 ar
  36   22   23 ar
  37   22   55 1
  38   23   24 ar
  39   23   56 1
  40   24   25 ar
  41   24   33 1
  42   25   57 1
  43   26   27 ar
  44   26   28 ar
  45   26   35 1
  46   27   31 ar
  47   27   58 1
  48   28   29 ar
  49   28   59 1
  50   29   30 ar
  51   29   60 1
  52   30   31 ar
  53   30   32 1
  54   31   61 1
  55   32   36 ar
  56   32   40 ar
  57   35   62 1
  58   35   63 1
  59   36   37 ar
  60   36   64 1
  61   37   38 ar
  62   37   65 1
  63   38   39 ar
  64   38   41 1
  65   39   40 ar
  66   39   66 1
  67   40   67 1
  68   41   42 1
  69   41   46 1
  70   41   68 1
  71   42   43 1
  72   42   69 1
  73   42   70 1
  74   43   44 1
  75   43   71 1
  76   43   72 1
  77   44   45 1
  78   44   73 1
  79   44   74 1
  80   45   46 1
  81   45   75 1
  82   45   76 1
  83   46   77 1
  84   46   78 1
  85   47   79 1
  86   47   80 1
  87   47   81 1

#	End of record

