#	Name: ASD01810431
#	Creating user name:	WinNT
#	Creation time:	15. 06. 2019 19:24

#	Modifying user name:	WinNT
#	Modification time:	15. 06. 2019 19:24

#	Program:	/corina/corina34_cracker 3.40 0067  02.08.2006

@<TRIPOS>MOLECULE
ASD01810431
  41   44    0    0    0
SMALL
NO_CHARGES


@<TRIPOS>ATOM
   1 C1            -0.0167     1.3795     0.0096 C.2     
   2 C2             0.0021    -0.0041     0.0020 C.2     
   3 N3             1.1587     2.0962     0.0023 N.pl3   
   4 C4             2.3683     1.5279    -0.0128 C.2     
   5 C5             2.5195     0.1565    -0.0221 C.2     
   6 C6             1.3143    -0.6831    -0.0142 C.2     
   7 O7             1.3941    -1.9006    -0.0219 O.2     
   8 C8             3.8577    -0.4511    -0.0396 C.2     
   9 C9             1.0795     3.5590     0.0109 C.3     
  10 C10            1.0658     4.0530     1.4345 C.ar    
  11 O11            4.8464     0.2561    -0.0460 O.2     
  12 O12            3.9887    -1.7928    -0.0485 O.3     
  13 C13            2.2572     4.3438     2.0744 C.ar    
  14 C14            2.2506     4.7965     3.3782 C.ar    
  15 C15            1.0408     4.9604     4.0499 C.ar    
  16 C16           -0.1563     4.6659     3.4005 C.ar    
  17 C17           -0.1382     4.2193     2.0947 C.ar    
  18 C18            1.0275     5.4463     5.4520 C.ar    
  19 C19           -0.1823     5.6103     6.1237 C.ar    
  20 C20           -0.1889     6.0626     7.4276 C.ar    
  21 C21            1.0025     6.3534     8.0675 C.ar    
  22 C22            2.2062     6.1929     7.4053 C.ar    
  23 C23            2.2249     5.7349     6.1034 C.ar    
  24 C24           -1.3319    -0.5753     0.0117 C.2     
  25 C25           -2.3109     0.3083     0.0258 C.2     
  26 S26           -1.6846     1.9455     0.0358 S.3     
  27 H27            3.2468     2.1561    -0.0181 H       
  28 H28            1.9435     3.9728    -0.5090 H       
  29 H29            0.1663     3.8764    -0.4926 H       
  30 H30            4.8888    -2.1459    -0.0600 H       
  31 H31            3.1943     4.2160     1.5529 H       
  32 H32            3.1813     5.0229     3.8770 H       
  33 H33           -1.0967     4.7912     3.9165 H       
  34 H34           -1.0655     3.9907     1.5904 H       
  35 H35           -1.1130     5.3841     5.6248 H       
  36 H36           -1.1259     6.1900     7.9492 H       
  37 H37            0.9927     6.7074     9.0877 H       
  38 H38            3.1335     6.4218     7.9095 H       
  39 H39            3.1653     5.6096     5.5874 H       
  40 H40           -1.5092    -1.6406     0.0073 H       
  41 H41           -3.3610     0.0561     0.0345 H       
@<TRIPOS>BOND
   1    1    2 2
   2    1    3 1
   3    1   26 1
   4    2   24 1
   5    2    6 1
   6    3    4 1
   7    3    9 1
   8    4    5 2
   9    4   27 1
  10    5    6 1
  11    5    8 1
  12    6    7 2
  13    8   11 2
  14    8   12 1
  15    9   10 1
  16    9   28 1
  17    9   29 1
  18   10   13 ar
  19   10   17 ar
  20   12   30 1
  21   13   14 ar
  22   13   31 1
  23   14   15 ar
  24   14   32 1
  25   15   16 ar
  26   15   18 1
  27   16   17 ar
  28   16   33 1
  29   17   34 1
  30   18   19 ar
  31   18   23 ar
  32   19   20 ar
  33   19   35 1
  34   20   21 ar
  35   20   36 1
  36   21   22 ar
  37   21   37 1
  38   22   23 ar
  39   22   38 1
  40   23   39 1
  41   24   25 2
  42   24   40 1
  43   25   26 1
  44   25   41 1

#	End of record

