#	Name: ASD00990005
#	Creating user name:	WinNT
#	Creation time:	15. 06. 2019 18:54

#	Modifying user name:	WinNT
#	Modification time:	15. 06. 2019 18:54

#	Program:	/corina/corina34_cracker 3.40 0067  02.08.2006

@<TRIPOS>MOLECULE
ASD00990005
  53   55    0    0    0
SMALL
NO_CHARGES


@<TRIPOS>ATOM
   1 C1            -0.0189     1.5389     0.0105 C.3     
   2 C2             0.0021    -0.0041     0.0020 C.3     
   3 N3            -1.0896    -0.4509    -0.8826 N.3     
   4 C4            -1.7950     0.7414    -1.3989 C.3     
   5 C5            -0.7547     1.8858    -1.3105 C.3     
   6 C6            -2.2153     0.5238    -2.8297 C.2     
   7 N7            -3.1750     1.2970    -3.3751 N.am    
   8 C8            -3.5836     1.0854    -4.7660 C.3     
   9 O9            -1.6899    -0.3471    -3.4902 O.2     
  10 C10           -4.6583     0.0237    -4.8465 C.2     
  11 N11           -5.8621     0.5965    -5.0185 N.am    
  12 O12           -4.4621    -1.1706    -4.7681 O.2     
  13 C13           -7.1197    -0.1443    -5.1442 C.3     
  14 C14           -7.7248    -0.3422    -3.7783 C.2     
  15 N15           -8.8925    -1.0025    -3.6477 N.am    
  16 O16           -7.1611     0.0928    -2.7965 O.2     
  17 C17           -5.7548     2.0595    -5.0636 C.3     
  18 C18           -4.2621     2.3553    -5.3299 C.3     
  19 N19            1.3443     2.0755     0.0004 N.am    
  20 C20            2.0089     2.2489     1.1600 C.2     
  21 C21            3.3810     2.7890     1.1498 C.ar    
  22 C22            3.9848     3.1189    -0.0714 C.ar    
  23 C23            5.2497     3.6178    -0.1009 C.ar    
  24 C24            5.9783     3.8090     1.1555 C.ar    
  25 C25            5.3461     3.4683     2.3793 C.ar    
  26 C26            4.0633     2.9713     2.3655 C.ar    
  27 O27            1.4771     1.9600     2.2147 O.2     
  28 O28            3.4554     2.6448     3.5340 O.3     
  29 N29            7.2093     4.2924     1.1492 N.2     
  30 N30            7.7032     4.5595     0.1755 N.1     
  31 N31            8.1972     4.8266    -0.7982 N.pl3   
  32 H32           -0.5721     1.9121     0.8724 H       
  33 H33            0.9587    -0.3598    -0.3807 H       
  34 H34           -0.1599    -0.3827     1.0112 H       
  35 H35           -0.7338    -1.0162    -1.6388 H       
  36 H36           -2.6619     0.9679    -0.7781 H       
  37 H37           -1.2465     2.8560    -1.2404 H       
  38 H38           -0.0699     1.8572    -2.1580 H       
  39 H39           -3.5953     1.9935    -2.8468 H       
  40 H40           -2.7249     0.8061    -5.3766 H       
  41 H41           -7.8120     0.4186    -5.7702 H       
  42 H42           -6.9254    -1.1154    -5.5996 H       
  43 H43           -9.3433    -1.3504    -4.4330 H       
  44 H44           -9.2820    -1.1299    -2.7686 H       
  45 H45           -6.3683     2.4580    -5.8716 H       
  46 H46           -6.0602     2.4897    -4.1098 H       
  47 H47           -3.9379     3.2440    -4.7884 H       
  48 H48           -4.0695     2.4590    -6.3977 H       
  49 H49            1.7686     2.3060    -0.8409 H       
  50 H50            3.4426     2.9756    -0.9944 H       
  51 H51            5.7134     3.8706    -1.0430 H       
  52 H52            5.8672     3.6018     3.3158 H       
  53 H53            2.9603     3.3716     3.9363 H       
@<TRIPOS>BOND
   1    1    2 1
   2    1   19 1
   3    1    5 1
   4    1   32 1
   5    2    3 1
   6    2   33 1
   7    2   34 1
   8    3    4 1
   9    3   35 1
  10    4    5 1
  11    4    6 1
  12    4   36 1
  13    5   37 1
  14    5   38 1
  15    6    7 am
  16    6    9 2
  17    7    8 1
  18    7   39 1
  19    8   10 1
  20    8   18 1
  21    8   40 1
  22   10   11 am
  23   10   12 2
  24   11   13 1
  25   11   17 1
  26   13   14 1
  27   13   41 1
  28   13   42 1
  29   14   15 am
  30   14   16 2
  31   15   43 1
  32   15   44 1
  33   17   18 1
  34   17   45 1
  35   17   46 1
  36   18   47 1
  37   18   48 1
  38   19   20 am
  39   19   49 1
  40   20   21 1
  41   20   27 2
  42   21   22 ar
  43   21   26 ar
  44   22   23 ar
  45   22   50 1
  46   23   24 ar
  47   23   51 1
  48   24   25 ar
  49   24   29 1
  50   25   26 ar
  51   25   52 1
  52   26   28 1
  53   28   53 1
  54   29   30 2
  55   30   31 2

#	End of record

