#	Name: ASD01940566
#	Creating user name:	WinNT
#	Creation time:	15. 06. 2019 20:12

#	Modifying user name:	WinNT
#	Modification time:	15. 06. 2019 20:12

#	Program:	/corina/corina34_cracker 3.40 0067  02.08.2006

@<TRIPOS>MOLECULE
ASD01940566
  77   82    0    0    0
SMALL
NO_CHARGES


@<TRIPOS>ATOM
   1 C1             0.0888     1.4752    -0.5082 C.ar    
   2 C2             0.4280     0.6430     0.5485 C.ar    
   3 C3             1.6501    -0.0146     0.5452 C.ar    
   4 C4             2.5296     0.1624    -0.5155 C.ar    
   5 C5             2.1885     0.9922    -1.5664 C.ar    
   6 C6             0.9728     1.6481    -1.5660 C.ar    
   7 N7            -1.1459     2.1361    -0.5114 N.am    
   8 C8            -1.1949     3.4816    -0.1911 C.2     
   9 C9            -2.4433     4.1481    -0.1948 C.2     
  10 C10           -3.6494     3.3668    -0.5440 C.2     
  11 N11           -3.4788     2.0086    -0.8509 N.am    
  12 C12           -2.2565     1.4522    -0.8305 C.2     
  13 C13           -0.0565     4.1962     0.1329 C.2     
  14 C14           -0.1685     5.5527     0.4471 C.2     
  15 N15           -1.3633     6.1698     0.4386 N.am    
  16 C16           -2.5067     5.4931     0.1234 C.2     
  17 N17           -3.7152     6.1454     0.1215 N.pl3   
  18 C18           -1.4397     7.5939     0.7738 C.3     
  19 O19            0.8343     6.1881     0.7344 O.2     
  20 C20            1.2897     3.5192     0.1476 C.3     
  21 C21           -4.8588     3.9344    -0.5661 C.2     
  22 C22           -4.5927     1.2269    -1.1875 C.ar    
  23 N23            1.9961    -0.8542     1.6088 N.am    
  24 C24            1.6007    -0.5528     2.8615 C.2     
  25 C25            1.8651    -1.4965     3.9666 C.ar    
  26 O26            1.0262     0.4958     3.0819 O.2     
  27 C27           -4.4979     6.1743     1.2840 C.ar    
  28 C28           -4.0081     5.6324     2.4644 C.ar    
  29 C29           -4.7787     5.6612     3.6100 C.ar    
  30 C30           -6.0447     6.2318     3.5822 C.ar    
  31 C31           -6.5363     6.7743     2.4022 C.ar    
  32 C32           -5.7630     6.7510     1.2564 C.ar    
  33 F33           -6.2384     7.2832     0.1093 F       
  34 O34           -2.1516     0.2732    -1.1080 O.2     
  35 N35           -6.8250     6.2596     4.7432 N.pl3   
  36 C36            1.4562    -1.1861     5.2652 C.ar    
  37 C37            1.7058    -2.0733     6.2965 C.ar    
  38 C38            2.3630    -3.2716     6.0402 C.ar    
  39 C39            2.7700    -3.5818     4.7512 C.ar    
  40 C40            2.5195    -2.7038     3.7147 C.ar    
  41 C41           -5.2981     1.4893    -2.3543 C.ar    
  42 C42           -6.3957     0.7193    -2.6863 C.ar    
  43 C43           -6.7944    -0.3160    -1.8546 C.ar    
  44 C44           -6.0902    -0.5796    -0.6867 C.ar    
  45 C45           -4.9874     0.1866    -0.3571 C.ar    
  46 F46            2.6062    -4.1359     7.0497 F       
  47 F47            3.4082    -4.7475     4.5079 F       
  48 O48            1.3086    -1.7735     7.5618 O.3     
  49 F49           -6.4791    -1.5881     0.1238 F       
  50 O50           -7.8758    -1.0733    -2.1823 O.3     
  51 O51           -8.1157     6.8413     4.7150 O.3     
  52 H52           -0.2574     0.5073     1.3721 H       
  53 H53            3.4810    -0.3487    -0.5185 H       
  54 H54            2.8741     1.1285    -2.3897 H       
  55 H55            0.7090     2.2957    -2.3891 H       
  56 H56           -4.0271     6.5861    -0.6843 H       
  57 H57           -0.4561     7.9477     1.0828 H       
  58 H58           -1.7699     8.1557    -0.0999 H       
  59 H59           -2.1499     7.7379     1.5881 H       
  60 H60            1.6987     3.5017    -0.8627 H       
  61 H61            1.9654     4.0681     0.8036 H       
  62 H62            1.1790     2.4980     0.5124 H       
  63 H63           -4.9791     4.9614    -0.2543 H       
  64 H64           -5.7160     3.3661    -0.8958 H       
  65 H65            2.5208    -1.6535     1.4449 H       
  66 H66           -3.0241     5.1879     2.4868 H       
  67 H67           -4.3969     5.2393     4.5280 H       
  68 H68           -7.5207     7.2181     2.3806 H       
  69 H69           -6.4819     5.8803     5.5674 H       
  70 H70            0.9464    -0.2550     5.4640 H       
  71 H71            2.8336    -2.9490     2.7109 H       
  72 H72           -4.9886     2.2959    -3.0024 H       
  73 H73           -6.9438     0.9240    -3.5941 H       
  74 H74           -4.4362    -0.0211     0.5481 H       
  75 H75            0.4172    -2.0801     7.7773 H       
  76 H76           -7.6644    -1.8493    -2.7191 H       
  77 H77           -8.5782     6.8136     5.5638 H       
@<TRIPOS>BOND
   1    1    2 ar
   2    1    6 ar
   3    1    7 1
   4    2    3 ar
   5    2   52 1
   6    3    4 ar
   7    3   23 1
   8    4    5 ar
   9    4   53 1
  10    5    6 ar
  11    5   54 1
  12    6   55 1
  13    7    8 1
  14    7   12 am
  15    8   13 2
  16    8    9 1
  17    9   10 1
  18    9   16 2
  19   10   11 1
  20   10   21 2
  21   11   12 am
  22   11   22 1
  23   12   34 2
  24   13   14 1
  25   13   20 1
  26   14   15 am
  27   14   19 2
  28   15   16 1
  29   15   18 1
  30   16   17 1
  31   17   27 1
  32   17   56 1
  33   18   57 1
  34   18   58 1
  35   18   59 1
  36   20   60 1
  37   20   61 1
  38   20   62 1
  39   21   63 1
  40   21   64 1
  41   22   41 ar
  42   22   45 ar
  43   23   24 am
  44   23   65 1
  45   24   25 1
  46   24   26 2
  47   25   36 ar
  48   25   40 ar
  49   27   28 ar
  50   27   32 ar
  51   28   29 ar
  52   28   66 1
  53   29   30 ar
  54   29   67 1
  55   30   31 ar
  56   30   35 1
  57   31   32 ar
  58   31   68 1
  59   32   33 1
  60   35   51 1
  61   35   69 1
  62   36   37 ar
  63   36   70 1
  64   37   38 ar
  65   37   48 1
  66   38   39 ar
  67   38   46 1
  68   39   40 ar
  69   39   47 1
  70   40   71 1
  71   41   42 ar
  72   41   72 1
  73   42   43 ar
  74   42   73 1
  75   43   44 ar
  76   43   50 1
  77   44   45 ar
  78   44   49 1
  79   45   74 1
  80   48   75 1
  81   50   76 1
  82   51   77 1

#	End of record

