#	Name: ASD06170188
#	Creating user name:	WinNT
#	Creation time:	15. 06. 2019 21:05

#	Modifying user name:	WinNT
#	Modification time:	15. 06. 2019 21:05

#	Program:	/corina/corina34_cracker 3.40 0067  02.08.2006

@<TRIPOS>MOLECULE
ASD06170188
  70   75    0    0    0
SMALL
NO_CHARGES


@<TRIPOS>ATOM
   1 C1             0.0488     1.2986    -0.1031 C.2     
   2 C2             0.0233    -0.0876     0.2013 C.2     
   3 C3             1.2220    -0.7431     0.4619 C.2     
   4 C4             2.4195    -0.0082     0.4147 C.2     
   5 C5             2.3850     1.3376     0.1134 C.2     
   6 N6             1.2187     1.9625    -0.1373 N.am    
   7 C7            -1.2517    -0.8198     0.2410 C.2     
   8 O8            -1.2555    -2.0271     0.3906 O.2     
   9 N9            -2.4159    -0.1532     0.1116 N.am    
  10 C10            3.7147    -0.6770     0.6880 C.ar    
  11 C11            3.7492    -2.0382     0.9931 C.ar    
  12 N12            4.8474     0.0171     0.6378 N.ar    
  13 N13            4.9042    -2.6282     1.2350 N.ar    
  14 C14            6.0274    -1.9316     1.1886 C.ar    
  15 C15            5.9985    -0.5830     0.8816 C.ar    
  16 C16            1.2238     3.3928    -0.4540 C.3     
  17 C17            1.0922     4.1895     0.8185 C.ar    
  18 C18            2.2237     4.5751     1.5127 C.ar    
  19 C19            2.1030     5.3058     2.6799 C.ar    
  20 C20            0.8508     5.6513     3.1526 C.ar    
  21 C21           -0.2807     5.2665     2.4579 C.ar    
  22 C22           -0.1598     4.5395     1.2884 C.ar    
  23 O23           -0.9914     1.8880    -0.3390 O.2     
  24 C24           -3.6162    -0.8575     0.0186 C.ar    
  25 C25           -3.5977    -2.2060    -0.3197 C.ar    
  26 C26           -4.7937    -2.8949    -0.4092 C.ar    
  27 C27           -5.9770    -2.2056    -0.1552 C.ar    
  28 C28           -5.9186    -0.8615     0.1767 C.ar    
  29 N29           -4.7597    -0.2363     0.2585 N.ar    
  30 O30           -7.1751    -2.8437    -0.2323 O.3     
  31 N31           -8.2064    -5.3627     2.8665 N.ar    
  32 C32           -7.1126    -4.6411     2.9386 C.ar    
  33 C33           -6.7329    -3.7821     1.9150 C.ar    
  34 C34           -7.5204    -3.6742     0.7823 C.ar    
  35 C35           -8.6957    -4.4559     0.7156 C.ar    
  36 C36           -9.5439    -4.4008    -0.4004 C.ar    
  37 C37          -10.6709    -5.1703    -0.4311 C.ar    
  38 C38          -10.9893    -6.0149     0.6420 C.ar    
  39 C39          -10.1814    -6.0876     1.7399 C.ar    
  40 C40           -9.0143    -5.3082     1.8008 C.ar    
  41 O41          -12.1173    -6.7707     0.5885 O.3     
  42 C42          -12.3888    -7.6115     1.7116 C.3     
  43 O43          -11.4932    -5.1170    -1.5127 O.3     
  44 C44          -11.1143    -4.2370    -2.5729 C.3     
  45 H45            1.2326    -1.7972     0.6967 H       
  46 H46            3.3072     1.8986     0.0781 H       
  47 H47           -2.4191     0.8164     0.0832 H       
  48 H48            2.8322    -2.6075     1.0315 H       
  49 H49            6.9709    -2.4181     1.3876 H       
  50 H50            6.9191    -0.0197     0.8406 H       
  51 H51            2.1593     3.6519    -0.9497 H       
  52 H52            0.3873     3.6218    -1.1142 H       
  53 H53            3.2020     4.3052     1.1433 H       
  54 H54            2.9870     5.6065     3.2226 H       
  55 H55            0.7564     6.2216     4.0649 H       
  56 H56           -1.2590     5.5362     2.8275 H       
  57 H57           -1.0437     4.2420     0.7437 H       
  58 H58           -2.6613    -2.7091    -0.5106 H       
  59 H59           -4.8097    -3.9427    -0.6704 H       
  60 H60           -6.8320    -0.3204     0.3747 H       
  61 H61           -6.4906    -4.7170     3.8182 H       
  62 H62           -5.8272    -3.2005     2.0032 H       
  63 H63           -9.3067    -3.7525    -1.2310 H       
  64 H64          -10.4389    -6.7421     2.5595 H       
  65 H65          -11.5690    -8.3177     1.8432 H       
  66 H66          -12.4886    -6.9994     2.6080 H       
  67 H67          -13.3157    -8.1587     1.5401 H       
  68 H68          -11.0601    -3.2158    -2.1957 H       
  69 H69          -10.1396    -4.5335    -2.9604 H       
  70 H70          -11.8543    -4.2905    -3.3715 H       
@<TRIPOS>BOND
   1    1    2 1
   2    1    6 am
   3    1   23 2
   4    2    3 2
   5    2    7 1
   6    3    4 1
   7    3   45 1
   8    4    5 2
   9    4   10 1
  10    5    6 1
  11    5   46 1
  12    6   16 1
  13    7    8 2
  14    7    9 am
  15    9   24 1
  16    9   47 1
  17   10   11 ar
  18   10   12 ar
  19   11   13 ar
  20   11   48 1
  21   12   15 ar
  22   13   14 ar
  23   14   15 ar
  24   14   49 1
  25   15   50 1
  26   16   17 1
  27   16   51 1
  28   16   52 1
  29   17   18 ar
  30   17   22 ar
  31   18   19 ar
  32   18   53 1
  33   19   20 ar
  34   19   54 1
  35   20   21 ar
  36   20   55 1
  37   21   22 ar
  38   21   56 1
  39   22   57 1
  40   24   25 ar
  41   24   29 ar
  42   25   26 ar
  43   25   58 1
  44   26   27 ar
  45   26   59 1
  46   27   28 ar
  47   27   30 1
  48   28   29 ar
  49   28   60 1
  50   30   34 1
  51   31   32 ar
  52   31   40 ar
  53   32   33 ar
  54   32   61 1
  55   33   34 ar
  56   33   62 1
  57   34   35 ar
  58   35   36 ar
  59   35   40 ar
  60   36   37 ar
  61   36   63 1
  62   37   38 ar
  63   37   43 1
  64   38   39 ar
  65   38   41 1
  66   39   40 ar
  67   39   64 1
  68   41   42 1
  69   42   65 1
  70   42   66 1
  71   42   67 1
  72   43   44 1
  73   44   68 1
  74   44   69 1
  75   44   70 1

#	End of record

