#	Name: ASD06020117
#	Creating user name:	WinNT
#	Creation time:	15. 06. 2019 21:04

#	Modifying user name:	WinNT
#	Modification time:	15. 06. 2019 21:04

#	Program:	/corina/corina34_cracker 3.40 0067  02.08.2006

@<TRIPOS>MOLECULE
ASD06020117
  38   41    0    0    0
SMALL
NO_CHARGES


@<TRIPOS>ATOM
   1 C1             2.2993     1.3280     0.0130 C.ar    
   2 N2             2.2983     0.0106    -0.0001 N.ar    
   3 C3             1.1548    -0.6720    -0.0054 C.ar    
   4 C4            -0.0487     0.0265     0.0031 C.ar    
   5 C5            -0.0034     1.4172     0.0168 C.ar    
   6 N6             1.1816     2.0252     0.0213 N.ar    
   7 N7             1.1634    -2.0596    -0.0197 N.pl3   
   8 N8            -1.1746     2.1590     0.0253 N.pl3   
   9 C9             3.6173     2.0585     0.0250 C.3     
  10 C10            2.3690    -2.7476    -0.1401 C.ar    
  11 C11            2.3860    -4.1430    -0.0417 C.ar    
  12 C12            3.5996    -4.8289    -0.1634 C.ar    
  13 C13            4.7636    -4.0471    -0.3842 C.ar    
  14 C14            4.6561    -2.6932    -0.4669 C.ar    
  15 N15            3.4884    -2.0788    -0.3520 N.ar    
  16 S16            1.1070    -5.3228     0.2235 S.3     
  17 C17            2.2834    -6.6285     0.1516 C.2     
  18 N18            3.4682    -6.1516    -0.0497 N.2     
  19 F19            5.9695    -4.6430    -0.5109 F       
  20 C20            1.9636    -8.0641     0.2995 C.ar    
  21 C21            2.9787    -9.0204     0.2253 C.ar    
  22 C22            2.6724   -10.3598     0.3643 C.ar    
  23 C23            1.3639   -10.7552     0.5763 C.ar    
  24 C24            0.3533    -9.8136     0.6509 C.ar    
  25 C25            0.6456    -8.4702     0.5199 C.ar    
  26 Cl26          -0.6231    -7.2897     0.6217 Cl      
  27 Cl27           4.6214    -8.5266    -0.0418 Cl      
  28 H28           -0.9933    -0.4971    -0.0013 H       
  29 H29            0.3300    -2.5505     0.0542 H       
  30 H30           -2.0338     1.7089     0.0216 H       
  31 H31           -1.1348     3.1281     0.0348 H       
  32 H32            3.9388     2.2449    -0.9997 H       
  33 H33            3.5018     3.0079     0.5479 H       
  34 H34            4.3647     1.4512     0.5355 H       
  35 H35            5.5458    -2.1043    -0.6346 H       
  36 H36            3.4564   -11.1005     0.3071 H       
  37 H37            1.1301   -11.8041     0.6836 H       
  38 H38           -0.6661   -10.1295     0.8162 H       
@<TRIPOS>BOND
   1    1    2 ar
   2    1    6 ar
   3    1    9 1
   4    2    3 ar
   5    3    4 ar
   6    3    7 1
   7    4    5 ar
   8    4   28 1
   9    5    6 ar
  10    5    8 1
  11    7   10 1
  12    7   29 1
  13    8   30 1
  14    8   31 1
  15    9   32 1
  16    9   33 1
  17    9   34 1
  18   10   11 ar
  19   10   15 ar
  20   11   12 ar
  21   11   16 1
  22   12   13 ar
  23   12   18 1
  24   13   14 ar
  25   13   19 1
  26   14   15 ar
  27   14   35 1
  28   16   17 1
  29   17   18 2
  30   17   20 1
  31   20   21 ar
  32   20   25 ar
  33   21   22 ar
  34   21   27 1
  35   22   23 ar
  36   22   36 1
  37   23   24 ar
  38   23   37 1
  39   24   25 ar
  40   24   38 1
  41   25   26 1

#	End of record

