#	Name: ASD02690070
#	Creating user name:	WinNT
#	Creation time:	15. 06. 2019 20:26

#	Modifying user name:	WinNT
#	Modification time:	15. 06. 2019 20:26

#	Program:	/corina/corina34_cracker 3.40 0067  02.08.2006

@<TRIPOS>MOLECULE
ASD02690070
  64   66    0    0    0
SMALL
NO_CHARGES


@<TRIPOS>ATOM
   1 C1             0.0045     1.1767     0.0573 C.2     
   2 O2             0.0137    -0.0334    -0.0199 O.2     
   3 N3             4.0242     2.2106    -0.8694 N.3     
   4 C4             3.7539     1.8007     0.5145 C.3     
   5 C5             2.4280     1.0386     0.5725 C.3     
   6 C6             1.3030     1.9415     0.0589 C.3     
   7 C7             1.6325     2.3935    -1.3665 C.3     
   8 C8             2.9814     3.1163    -1.3683 C.3     
   9 C9             6.4010     1.9048    -0.3600 C.3     
  10 C10            5.3540     2.8235    -0.9868 C.3     
  11 C11            5.7048     3.0169    -2.4668 C.3     
  12 C12            6.9707     3.8671    -2.5545 C.3     
  13 C13            8.0526     3.2985    -1.6740 C.ar    
  14 C14            9.3587     3.7107    -1.9062 C.ar    
  15 C15           10.3938     3.2296    -1.1318 C.ar    
  16 C16           10.1301     2.3304    -0.1151 C.ar    
  17 C17            8.8341     1.9190     0.1163 C.ar    
  18 C18            7.7905     2.4005    -0.6640 C.ar    
  19 O19            5.9356     1.7455    -3.0770 O.3     
  20 C20           -1.2746     1.8988     0.1431 C.ar    
  21 C21           -2.4804     1.1837     0.1355 C.ar    
  22 C22           -3.6806     1.8868     0.2177 C.ar    
  23 C23           -3.6315     3.2663     0.3038 C.ar    
  24 C24           -2.3999     3.9077     0.3059 C.ar    
  25 N25           -1.2800     3.2261     0.2331 N.ar    
  26 O26           -2.4788    -0.1694     0.0490 O.3     
  27 C27           -3.7507    -0.8209     0.0475 C.3     
  28 C28           -3.5485    -2.3340    -0.0555 C.3     
  29 F29           -2.8971    -2.7966     1.0929 F       
  30 H30            4.5592     1.1557     0.8661 H       
  31 H31            3.6929     2.6843     1.1497 H       
  32 H32            2.4929     0.1473    -0.0517 H       
  33 H33            2.2200     0.7480     1.6023 H       
  34 H34            1.2114     2.8134     0.7065 H       
  35 H35            1.6849     1.5235    -2.0211 H       
  36 H36            0.8562     3.0709    -1.7220 H       
  37 H37            2.9241     3.9938    -0.7243 H       
  38 H38            3.2257     3.4268    -2.3841 H       
  39 H39            6.2567     1.8797     0.7201 H       
  40 H40            6.2825     0.8984    -0.7614 H       
  41 H41            5.3600     3.7876    -0.4784 H       
  42 H42            4.8853     3.5252    -2.9749 H       
  43 H43            7.3202     3.8859    -3.5867 H       
  44 H44            6.7437     4.8838    -2.2339 H       
  45 H45            9.5655     4.4132    -2.7000 H       
  46 H46           11.4067     3.5540    -1.3191 H       
  47 H47           10.9362     1.9513     0.4956 H       
  48 H48            8.6290     1.2162     0.9103 H       
  49 H49            6.1628     1.7952    -4.0156 H       
  50 H50           -4.6271     1.3668     0.2139 H       
  51 H51           -4.5440     3.8403     0.3684 H       
  52 H52           -2.3624     4.9849     0.3732 H       
  53 H53           -4.2798    -0.5870     0.9713 H       
  54 H54           -4.3357    -0.4737    -0.8042 H       
  55 H55           -4.5176    -2.8247    -0.1461 H       
  56 H56           -2.9430    -2.5608    -0.9330 H       
  57 C57           17.5809    13.1021     6.6300 C.2     
  58 C58           17.6012    11.6080     6.6218 C.2     
  59 O59           18.6226    13.7225     6.6234 O.2     
  60 O60           16.4067    13.7589     6.6392 O.3     
  61 O61           16.5595    10.9875     6.6284 O.2     
  62 O62           18.7754    10.9512     6.6071 O.3     
  63 H63           16.4442    14.7251     6.6443 H       
  64 H64           18.7379     9.9849     6.6023 H       
@<TRIPOS>BOND
   1    1    2 2
   2    1    6 1
   3    1   20 1
   4    3    4 1
   5    3    8 1
   6    3   10 1
   7    4    5 1
   8    4   30 1
   9    4   31 1
  10    5    6 1
  11    5   32 1
  12    5   33 1
  13    6    7 1
  14    6   34 1
  15    7    8 1
  16    7   35 1
  17    7   36 1
  18    8   37 1
  19    8   38 1
  20    9   10 1
  21    9   18 1
  22    9   39 1
  23    9   40 1
  24   10   11 1
  25   10   41 1
  26   11   12 1
  27   11   19 1
  28   11   42 1
  29   12   13 1
  30   12   43 1
  31   12   44 1
  32   13   14 ar
  33   13   18 ar
  34   14   15 ar
  35   14   45 1
  36   15   16 ar
  37   15   46 1
  38   16   17 ar
  39   16   47 1
  40   17   18 ar
  41   17   48 1
  42   19   49 1
  43   20   21 ar
  44   20   25 ar
  45   21   22 ar
  46   21   26 1
  47   22   23 ar
  48   22   50 1
  49   23   24 ar
  50   23   51 1
  51   24   25 ar
  52   24   52 1
  53   26   27 1
  54   27   28 1
  55   27   53 1
  56   27   54 1
  57   28   29 1
  58   28   55 1
  59   28   56 1
  60   57   58 1
  61   57   59 2
  62   57   60 1
  63   58   61 2
  64   58   62 1
  65   60   63 1
  66   62   64 1

#	End of record

