#	Name: ASD03330050
#	Creating user name:	WinNT
#	Creation time:	15. 06. 2019 20:36

#	Modifying user name:	WinNT
#	Modification time:	15. 06. 2019 20:36

#	Program:	/corina/corina34_cracker 3.40 0067  02.08.2006

@<TRIPOS>MOLECULE
ASD03330050
  79   83    0    0    0
SMALL
NO_CHARGES


@<TRIPOS>ATOM
   1 C1            -0.9527     1.0209    -1.3156 C.2     
   2 C2            -0.9722    -0.1165    -0.5654 C.2     
   3 C3             0.1087     1.8634    -1.0578 C.2     
   4 C4             0.9686     1.4090    -0.0839 C.2     
   5 S5             0.4072    -0.1422     0.5236 S.3     
   6 C6             2.1776     2.1162     0.3796 C.ar    
   7 C7             2.4024     2.3003     1.7471 C.ar    
   8 C8             3.1059     2.5999    -0.5458 C.ar    
   9 C9             4.2339     3.2595    -0.1062 C.ar    
  10 C10            4.4490     3.4432     1.2500 C.ar    
  11 C11            3.5362     2.9626     2.1735 C.ar    
  12 Cl12           5.8728     4.2739     1.7943 Cl      
  13 C13            0.3066     3.1487    -1.7695 C.ar    
  14 C14            0.3206     3.1800    -3.1637 C.ar    
  15 C15            0.4734     4.3292    -1.0458 C.ar    
  16 C16            0.6568     5.5233    -1.7096 C.ar    
  17 C17            0.6752     5.5515    -3.0998 C.ar    
  18 C18            0.5043     4.3763    -3.8234 C.ar    
  19 Cl19           1.2587     1.6982     2.9059 Cl      
  20 C20           -1.9929    -1.1642    -0.6536 C.2     
  21 O21           -3.1679    -0.8623    -0.7527 O.2     
  22 N22           -1.6307    -2.4620    -0.6250 N.am    
  23 S23            0.9093     7.0793    -3.9457 S.3     
  24 O24            1.1498     8.2675   -10.3028 O.3     
  25 C25           -2.6300    -3.5224    -0.8138 C.3     
  26 C26           -0.2281    -2.8432    -0.4104 C.3     
  27 C27            0.2084    -3.7758    -1.5447 C.3     
  28 C28           -0.7588    -4.9589    -1.6278 C.3     
  29 C29           -2.1616    -4.4460    -1.9427 C.3     
  30 N30           -0.3242    -5.8724    -2.6929 N.3     
  31 C31           -1.2580    -6.9968    -2.8354 C.3     
  32 C32           -0.8560    -7.8455    -4.0438 C.3     
  33 C33            0.5707    -8.3647    -3.8448 C.3     
  34 C34            1.5157    -7.1756    -3.6506 C.3     
  35 C35            1.0450    -6.3464    -2.4536 C.3     
  36 F36            0.6154    -9.1870    -2.7139 F       
  37 F37            0.9638    -9.0951    -4.9713 F       
  38 C38           -0.7694    -5.6921    -0.3112 C.2     
  39 N39            0.3914    -5.9715     0.3139 N.am    
  40 O40           -1.8226    -6.0307     0.1858 O.2     
  41 C41            0.8552     6.5913    -5.6920 C.3     
  42 C42            1.0466     7.8274    -6.5731 C.3     
  43 C43            1.0010     7.4158    -8.0460 C.3     
  44 C44            1.1924     8.6519    -8.9271 C.3     
  45 H45           -1.7063     1.2430    -2.0567 H       
  46 H46            2.9403     2.4570    -1.6035 H       
  47 H47            4.9520     3.6336    -0.8209 H       
  48 H48            3.7096     3.1095     3.2293 H       
  49 H49            0.1879     2.2675    -3.7261 H       
  50 H50            0.4585     4.3078     0.0339 H       
  51 H51            0.7860     6.4377    -1.1496 H       
  52 H52            0.5190     4.4004    -4.9031 H       
  53 H53            1.2646     9.0027   -10.9204 H       
  54 H54           -2.7335    -4.0953     0.1077 H       
  55 H55           -3.5890    -3.0777    -1.0797 H       
  56 H56            0.3973    -1.9505    -0.4103 H       
  57 H57           -0.1317    -3.3596     0.5447 H       
  58 H58            0.1981    -3.2304    -2.4884 H       
  59 H59            1.2157    -4.1425    -1.3469 H       
  60 H60           -2.8473    -5.2893    -2.0253 H       
  61 H61           -2.1452    -3.8962    -2.8838 H       
  62 H62           -1.2281    -7.6100    -1.9348 H       
  63 H63           -2.2681    -6.6138    -2.9805 H       
  64 H64           -1.5400    -8.6887    -4.1400 H       
  65 H65           -0.8990    -7.2364    -4.9467 H       
  66 H66            2.5261    -7.5403    -3.4659 H       
  67 H67            1.5100    -6.5561    -4.5473 H       
  68 H68            1.7075    -5.4910    -2.3214 H       
  69 H69            1.0640    -6.9627    -1.5548 H       
  70 H70            1.2288    -5.6420    -0.0482 H       
  71 H71            0.3896    -6.5023     1.1258 H       
  72 H72            1.6512     5.8745    -5.8938 H       
  73 H73           -0.1096     6.1343    -5.9119 H       
  74 H74            0.2506     8.5442    -6.3714 H       
  75 H75            2.0115     8.2844    -6.3533 H       
  76 H76            1.7970     6.6990    -8.2478 H       
  77 H77            0.0361     6.9588    -8.2659 H       
  78 H78            2.1572     9.1089    -8.7073 H       
  79 H79            0.3964     9.3687    -8.7254 H       
@<TRIPOS>BOND
   1    1    2 2
   2    1    3 1
   3    1   45 1
   4    2   20 1
   5    2    5 1
   6    3    4 2
   7    3   13 1
   8    4    5 1
   9    4    6 1
  10    6    7 ar
  11    6    8 ar
  12    7   19 1
  13    7   11 ar
  14    8    9 ar
  15    8   46 1
  16    9   10 ar
  17    9   47 1
  18   10   11 ar
  19   10   12 1
  20   11   48 1
  21   13   14 ar
  22   13   15 ar
  23   14   18 ar
  24   14   49 1
  25   15   16 ar
  26   15   50 1
  27   16   17 ar
  28   16   51 1
  29   17   18 ar
  30   17   23 1
  31   18   52 1
  32   20   21 2
  33   20   22 am
  34   22   25 1
  35   22   26 1
  36   23   41 1
  37   24   44 1
  38   24   53 1
  39   25   29 1
  40   25   54 1
  41   25   55 1
  42   26   27 1
  43   26   56 1
  44   26   57 1
  45   27   28 1
  46   27   58 1
  47   27   59 1
  48   28   29 1
  49   28   30 1
  50   28   38 1
  51   29   60 1
  52   29   61 1
  53   30   31 1
  54   30   35 1
  55   31   32 1
  56   31   62 1
  57   31   63 1
  58   32   33 1
  59   32   64 1
  60   32   65 1
  61   33   34 1
  62   33   36 1
  63   33   37 1
  64   34   35 1
  65   34   66 1
  66   34   67 1
  67   35   68 1
  68   35   69 1
  69   38   39 am
  70   38   40 2
  71   39   70 1
  72   39   71 1
  73   41   42 1
  74   41   72 1
  75   41   73 1
  76   42   43 1
  77   42   74 1
  78   42   75 1
  79   43   44 1
  80   43   76 1
  81   43   77 1
  82   44   78 1
  83   44   79 1

#	End of record

