#	Name: ASD00110025
#	Creating user name:	WinNT
#	Creation time:	15. 06. 2019 18:30

#	Modifying user name:	WinNT
#	Modification time:	15. 06. 2019 18:30

#	Program:	/corina/corina34_cracker 3.40 0067  02.08.2006

@<TRIPOS>MOLECULE
ASD00110025
  79   80    0    0    0
SMALL
NO_CHARGES


@<TRIPOS>ATOM
   1 C1            -0.0187     1.5258     0.0104 C.3     
   2 C2             1.3899     3.5863    -0.0535 C.3     
   3 C3             2.8015     4.1130    -0.0843 C.2     
   4 N4             3.5142     4.1978     1.0565 N.am    
   5 O5             3.2963     4.4606    -1.1356 O.2     
   6 C6             4.8865     4.7099     1.0266 C.3     
   7 C7             4.8624     6.2379     1.1007 C.3     
   8 O8             4.3344     6.6452     2.3645 O.3     
   9 C9             5.6646     4.1535     2.2207 C.3     
  10 O10            5.0303     4.5616     3.4345 O.3     
  11 C11            0.0021    -0.0041     0.0020 C.3     
  12 C12           -1.4266    -0.5342     0.1385 C.3     
  13 N13            0.6784     4.0227    -1.2616 N.3     
  14 C14           -0.7167     3.5643    -1.2510 C.3     
  15 C15           -0.7521     2.0344    -1.2337 C.3     
  16 C16            1.4173     2.0571    -0.0004 C.3     
  17 C17           -1.4059    -2.0641     0.1301 C.3     
  18 C18           -2.8346    -2.5943     0.2667 C.3     
  19 C19           -2.8138    -4.1241     0.2582 C.3     
  20 C20           -4.2425    -4.6543     0.3948 C.3     
  21 C21           -4.2218    -6.1841     0.3863 C.3     
  22 C22           -5.6505    -6.7143     0.5229 C.3     
  23 C23           -5.6297    -8.2441     0.5145 C.3     
  24 C24           -7.0584    -8.7743     0.6510 C.3     
  25 C25           -7.0377   -10.3042     0.6426 C.3     
  26 C26            5.6883     2.6485     2.1477 C.ar    
  27 C27            5.7314    -0.1150     2.0124 C.ar    
  28 C28            4.6058     0.5412     2.4960 C.ar    
  29 C29            4.5878     1.9204     2.5619 C.ar    
  30 C30            6.8083     1.9990     1.6614 C.ar    
  31 C31            6.8333     0.6202     1.5922 C.ar    
  32 S32            5.7591    -1.8747     1.9271 S.3     
  33 C33            7.4037    -2.2244     1.2461 C.3     
  34 H34           -0.5307     1.8782     0.9058 H       
  35 H35            0.8779     3.9710     0.8285 H       
  36 H36            3.1185     3.9198     1.8974 H       
  37 H37            5.3703     4.3986     0.1008 H       
  38 H38            5.8759     6.6231     0.9892 H       
  39 H39            4.2344     6.6306     0.3010 H       
  40 H40            4.2897     7.6041     2.4815 H       
  41 H41            6.6856     4.5345     2.1984 H       
  42 H42            4.1166     4.2573     3.5224 H       
  43 H43            0.4324    -0.3564    -0.9354 H       
  44 H44            0.6044    -0.3639     0.8362 H       
  45 H45           -1.8569    -0.1819     1.0760 H       
  46 H46           -2.0289    -0.1745    -0.6956 H       
  47 H47            0.7289     5.0247    -1.3689 H       
  48 H48           -1.2187     3.9493    -0.3634 H       
  49 H49           -1.2257     3.9293    -2.1430 H       
  50 H50           -0.2624     1.6489    -2.1279 H       
  51 H51           -1.7876     1.6947    -1.2100 H       
  52 H52            1.9319     1.7335     0.9043 H       
  53 H53            1.9413     1.6719    -0.8752 H       
  54 H54           -0.9756    -2.4165    -0.8073 H       
  55 H55           -0.8035    -2.4239     0.9643 H       
  56 H56           -3.2648    -2.2419     1.2041 H       
  57 H57           -3.4369    -2.2345    -0.5675 H       
  58 H58           -2.3835    -4.4765    -0.6792 H       
  59 H59           -2.2115    -4.4839     1.0924 H       
  60 H60           -4.6728    -4.3019     1.3322 H       
  61 H61           -4.8448    -4.2945    -0.4394 H       
  62 H62           -3.7915    -6.5365    -0.5511 H       
  63 H63           -3.6194    -6.5439     1.2205 H       
  64 H64           -6.0807    -6.3619     1.4603 H       
  65 H65           -6.2528    -6.3545    -0.3113 H       
  66 H66           -5.1994    -8.5965    -0.4230 H       
  67 H67           -5.0274    -8.6039     1.3486 H       
  68 H68           -7.4887    -8.4219     1.5884 H       
  69 H69           -7.6607    -8.4145    -0.1832 H       
  70 H70           -8.0555   -10.6819     0.7398 H       
  71 H71           -6.6074   -10.6565    -0.2949 H       
  72 H72           -6.4353   -10.6639     1.4767 H       
  73 H73            3.7475    -0.0269     2.8231 H       
  74 H74            3.7135     2.4310     2.9376 H       
  75 H75            7.6643     2.5710     1.3351 H       
  76 H76            7.7098     0.1135     1.2162 H       
  77 H77            7.5346    -3.3020     1.1477 H       
  78 H78            7.4985    -1.7559     0.2665 H       
  79 H79            8.1663    -1.8253     1.9150 H       
@<TRIPOS>BOND
   1    1   11 1
   2    1   16 1
   3    1   15 1
   4    1   34 1
   5    2    3 1
   6    2   13 1
   7    2   16 1
   8    2   35 1
   9    3    4 am
  10    3    5 2
  11    4    6 1
  12    4   36 1
  13    6    7 1
  14    6    9 1
  15    6   37 1
  16    7    8 1
  17    7   38 1
  18    7   39 1
  19    8   40 1
  20    9   10 1
  21    9   26 1
  22    9   41 1
  23   10   42 1
  24   11   12 1
  25   11   43 1
  26   11   44 1
  27   12   17 1
  28   12   45 1
  29   12   46 1
  30   13   14 1
  31   13   47 1
  32   14   15 1
  33   14   48 1
  34   14   49 1
  35   15   50 1
  36   15   51 1
  37   16   52 1
  38   16   53 1
  39   17   18 1
  40   17   54 1
  41   17   55 1
  42   18   19 1
  43   18   56 1
  44   18   57 1
  45   19   20 1
  46   19   58 1
  47   19   59 1
  48   20   21 1
  49   20   60 1
  50   20   61 1
  51   21   22 1
  52   21   62 1
  53   21   63 1
  54   22   23 1
  55   22   64 1
  56   22   65 1
  57   23   24 1
  58   23   66 1
  59   23   67 1
  60   24   25 1
  61   24   68 1
  62   24   69 1
  63   25   70 1
  64   25   71 1
  65   25   72 1
  66   26   30 ar
  67   26   29 ar
  68   27   28 ar
  69   27   31 ar
  70   27   32 1
  71   28   29 ar
  72   28   73 1
  73   29   74 1
  74   30   31 ar
  75   30   75 1
  76   31   76 1
  77   32   33 1
  78   33   77 1
  79   33   78 1
  80   33   79 1

#	End of record

