#	Name: ASD01810455
#	Creating user name:	WinNT
#	Creation time:	15. 06. 2019 19:24

#	Modifying user name:	WinNT
#	Modification time:	15. 06. 2019 19:24

#	Program:	/corina/corina34_cracker 3.40 0067  02.08.2006

@<TRIPOS>MOLECULE
ASD01810455
  47   50    0    0    0
SMALL
NO_CHARGES


@<TRIPOS>ATOM
   1 C1            -0.0404     1.3197    -0.2121 C.ar    
   2 C2             0.0639    -0.0810    -0.1770 C.ar    
   3 N3             1.0802     2.1046    -0.0470 N.pl3   
   4 C4             2.3018     1.5931     0.1513 C.2     
   5 C5             2.5296     0.2328     0.2048 C.2     
   6 C6             1.3916    -0.6858     0.0387 C.2     
   7 O7             1.5401    -1.8946     0.0774 O.2     
   8 C8             3.8858    -0.2897     0.4239 C.2     
   9 C9             0.9286     3.5611    -0.0908 C.3     
  10 C10            0.7058     4.0851     1.3044 C.ar    
  11 O11            4.8331     0.4716     0.4529 O.2     
  12 O12            4.0792    -1.6131     0.5926 O.3     
  13 C13            1.7880     4.4522     2.0837 C.ar    
  14 C14            1.5897     4.9328     3.3622 C.ar    
  15 C15            0.2963     5.0483     3.8675 C.ar    
  16 C16           -0.7903     4.6774     3.0780 C.ar    
  17 C17           -0.5806     4.2026     1.7991 C.ar    
  18 C18            0.0769     5.5638     5.2415 C.ar    
  19 C19            1.1632     5.9396     6.0291 C.ar    
  20 C20           -1.0718    -0.8737    -0.3434 C.ar    
  21 C21           -2.2961    -0.2753    -0.5424 C.ar    
  22 C22           -2.4016     1.1081    -0.5780 C.ar    
  23 C23           -1.2895     1.9032    -0.4099 C.ar    
  24 C24           -1.2165     5.6793     5.7468 C.ar    
  25 C25           -1.4148     6.1599     7.0253 C.ar    
  26 C26           -0.3325     6.5266     7.8047 C.ar    
  27 C27            0.9533     6.4190     7.3062 C.ar    
  28 C28            3.4666     2.5340     0.3213 C.3     
  29 H29            1.8316     4.0080    -0.5069 H       
  30 H30            0.0741     3.8188    -0.7165 H       
  31 H31            4.9888    -1.9094     0.7336 H       
  32 H32            2.7901     4.3623     1.6910 H       
  33 H33            2.4355     5.2184     3.9700 H       
  34 H34           -1.7948     4.7649     3.4647 H       
  35 H35           -1.4221     3.9153     1.1861 H       
  36 H36            2.1675     5.8557     5.6410 H       
  37 H37           -0.9914    -1.9504    -0.3167 H       
  38 H38           -3.1780    -0.8852    -0.6717 H       
  39 H39           -3.3669     1.5663    -0.7351 H       
  40 H40           -1.3848     2.9786    -0.4393 H       
  41 H41           -2.0623     5.3936     5.1389 H       
  42 H42           -2.4169     6.2501     7.4178 H       
  43 H43           -0.4922     6.9021     8.8046 H       
  44 H44            1.7948     6.7063     7.9192 H       
  45 H45            3.1208     3.5626     0.2188 H       
  46 H46            3.9049     2.3948     1.3096 H       
  47 H47            4.2167     2.3251    -0.4414 H       
@<TRIPOS>BOND
   1    1    2 ar
   2    1    3 1
   3    1   23 ar
   4    2   20 ar
   5    2    6 1
   6    3    4 1
   7    3    9 1
   8    4   28 1
   9    4    5 2
  10    5    6 1
  11    5    8 1
  12    6    7 2
  13    8   11 2
  14    8   12 1
  15    9   10 1
  16    9   29 1
  17    9   30 1
  18   10   13 ar
  19   10   17 ar
  20   12   31 1
  21   13   14 ar
  22   13   32 1
  23   14   15 ar
  24   14   33 1
  25   15   16 ar
  26   15   18 1
  27   16   17 ar
  28   16   34 1
  29   17   35 1
  30   18   24 ar
  31   18   19 ar
  32   19   27 ar
  33   19   36 1
  34   20   21 ar
  35   20   37 1
  36   21   22 ar
  37   21   38 1
  38   22   23 ar
  39   22   39 1
  40   23   40 1
  41   24   25 ar
  42   24   41 1
  43   25   26 ar
  44   25   42 1
  45   26   27 ar
  46   26   43 1
  47   27   44 1
  48   28   45 1
  49   28   46 1
  50   28   47 1

#	End of record

