#	Name: ASD03731648
#	Creating user name:	WinNT
#	Creation time:	15. 06. 2019 20:46

#	Modifying user name:	WinNT
#	Modification time:	15. 06. 2019 20:46

#	Program:	/corina/corina34_cracker 3.40 0067  02.08.2006

@<TRIPOS>MOLECULE
ASD03731648
  37   38    0    0    0
SMALL
NO_CHARGES


@<TRIPOS>ATOM
   1 C1            -0.1364     1.4672     0.0333 C.2     
   2 C2            -0.0852    -0.0063     0.0191 C.ar    
   3 C3             1.1400    -0.6648    -0.1385 C.ar    
   4 C4             1.1827    -2.0445    -0.1506 C.ar    
   5 C5             0.0129    -2.7784    -0.0072 C.ar    
   6 C6            -1.2080    -2.1271     0.1493 C.ar    
   7 C7            -1.2596    -0.7502     0.1689 C.ar    
   8 O8             0.8868     2.1123    -0.0920 O.2     
   9 N9            -1.3178     2.0991     0.1796 N.am    
  10 S10           -1.3752     3.7540     0.1955 S.o2    
  11 O11           -2.7504     4.0551     0.3894 O.2     
  12 O12           -0.4002     4.1293     1.1588 O.2     
  13 C13           -0.8455     4.2414    -1.4695 C.3     
  14 F14           -2.3432    -2.8465     0.2875 F       
  15 F15            2.2786     0.0487    -0.2789 F       
  16 O16            0.0593    -4.1350    -0.0202 O.3     
  17 C17           -0.1520    -4.7693    -1.2033 C.ar    
  18 C18           -0.0459    -6.1522    -1.2794 C.ar    
  19 C19           -0.2608    -6.7974    -2.4828 C.ar    
  20 C20           -0.5820    -6.0684    -3.6124 C.ar    
  21 C21           -0.6891    -4.6871    -3.5411 C.ar    
  22 C22           -0.4792    -4.0375    -2.3342 C.ar    
  23 O23           -1.0041    -3.9713    -4.6527 O.3     
  24 C24           -1.2116    -4.7063    -5.8605 C.3     
  25 Cl25           0.3574    -7.0707     0.1375 Cl      
  26 H26            2.1273    -2.5537    -0.2721 H       
  27 H27           -2.2065    -0.2463     0.2948 H       
  28 H28           -2.1344     1.5845     0.2756 H       
  29 H29           -1.5278     3.8176    -2.2065 H       
  30 H30           -0.8535     5.3284    -1.5498 H       
  31 H31            0.1631     3.8709    -1.6529 H       
  32 H32           -0.1773    -7.8726    -2.5406 H       
  33 H33           -0.7495    -6.5747    -4.5516 H       
  34 H34           -0.5665    -2.9626    -2.2762 H       
  35 H35           -1.4557    -4.0165    -6.6683 H       
  36 H36           -0.3039    -5.2545    -6.1127 H       
  37 H37           -2.0335    -5.4087    -5.7217 H       
@<TRIPOS>BOND
   1    1    2 1
   2    1    8 2
   3    1    9 am
   4    2    3 ar
   5    2    7 ar
   6    3    4 ar
   7    3   15 1
   8    4    5 ar
   9    4   26 1
  10    5    6 ar
  11    5   16 1
  12    6    7 ar
  13    6   14 1
  14    7   27 1
  15    9   10 am
  16    9   28 1
  17   10   11 2
  18   10   12 2
  19   10   13 1
  20   13   29 1
  21   13   30 1
  22   13   31 1
  23   16   17 1
  24   17   18 ar
  25   17   22 ar
  26   18   19 ar
  27   18   25 1
  28   19   20 ar
  29   19   32 1
  30   20   21 ar
  31   20   33 1
  32   21   22 ar
  33   21   23 1
  34   22   34 1
  35   23   24 1
  36   24   35 1
  37   24   36 1
  38   24   37 1

#	End of record

