#	Name: ASD04882464
#	Creating user name:	WinNT
#	Creation time:	15. 06. 2019 20:54

#	Modifying user name:	WinNT
#	Modification time:	15. 06. 2019 20:54

#	Program:	/corina/corina34_cracker 3.40 0067  02.08.2006

@<TRIPOS>MOLECULE
ASD04882464
  77   80    0    0    0
SMALL
NO_CHARGES


@<TRIPOS>ATOM
   1 C1             0.0564     0.8208    -0.2285 C.ar    
   2 C2            -0.2647    -0.4060     0.3589 C.ar    
   3 C3            -1.5929    -0.8004     0.4673 C.ar    
   4 C4            -2.5977     0.0158    -0.0036 C.ar    
   5 C5            -2.2838     1.2438    -0.5921 C.ar    
   6 C6            -0.9487     1.6451    -0.6976 C.ar    
   7 N7             0.7484    -1.2351     0.8363 N.3     
   8 C8             0.5298    -1.5738     2.2495 C.3     
   9 C9             0.8637    -2.4504     0.0181 C.3     
  10 C10            2.0357    -3.2941     0.5250 C.3     
  11 N11            1.8170    -3.6328     1.9382 N.3     
  12 C12            1.7018    -2.4175     2.7563 C.3     
  13 C13           -3.3600     2.1179    -1.0963 C.2     
  14 O14           -3.0859     3.1862    -1.6083 O.2     
  15 N15           -4.6470     1.7323    -0.9896 N.am    
  16 N16            1.3952     1.2170    -0.3366 N.am    
  17 C17            2.8326    -4.4639     2.4166 C.ar    
  18 C18            2.5252    -5.7255     2.9095 C.ar    
  19 C19            3.5319    -6.5450     3.3815 C.ar    
  20 C20            4.8444    -6.1105     3.3640 C.ar    
  21 C21            5.1540    -4.8548     2.8739 C.ar    
  22 C22            4.1531    -4.0327     2.3953 C.ar    
  23 C23           -5.7157     2.6003    -1.4903 C.3     
  24 C24           -7.0707     1.9325    -1.2480 C.3     
  25 C25           -8.1868     2.8390    -1.7710 C.3     
  26 S26            2.0228     1.6196    -1.8152 S.o2    
  27 C27            1.0948    -6.1996     2.9298 C.3     
  28 N28           -9.4843     2.1995    -1.5390 N.am    
  29 C29          -10.2889     2.3756    -0.3242 C.3     
  30 C30          -11.3080     1.2147    -0.3330 C.3     
  31 C31          -11.4068     0.8932    -1.8423 C.3     
  32 C32          -10.0936     1.3807    -2.4138 C.2     
  33 O33           -9.6514     1.0718    -3.5000 O.2     
  34 S34            2.3508     1.2829     1.0143 S.o2    
  35 O35            3.1722     2.4238     0.8072 O.2     
  36 O36            1.4317     1.2287     2.0967 O.2     
  37 C37            3.3406    -0.2355     0.9431 C.3     
  38 O38            3.3887     1.2365    -1.7323 O.2     
  39 O39            1.1447     1.0046    -2.7479 O.2     
  40 C40            1.8720     3.4256    -1.8944 C.3     
  41 H41           -1.8379    -1.7492     0.9215 H       
  42 H42           -3.6289    -0.2937     0.0818 H       
  43 H43           -0.7030     2.5936    -1.1519 H       
  44 H44            0.4604    -0.6579     2.8364 H       
  45 H45           -0.3960    -2.1406     2.3485 H       
  46 H46           -0.0583    -3.0272     0.0919 H       
  47 H47            1.0377    -2.1737    -1.0217 H       
  48 H48            2.1051    -4.2100    -0.0619 H       
  49 H49            2.9615    -2.7273     0.4259 H       
  50 H50            2.6238    -1.8408     2.6826 H       
  51 H51            1.5278    -2.6943     3.7961 H       
  52 H52           -4.8657     0.8801    -0.5812 H       
  53 H53            3.2936    -7.5261     3.7649 H       
  54 H54            5.6296    -6.7530     3.7343 H       
  55 H55            6.1802    -4.5183     2.8621 H       
  56 H56            4.3955    -3.0524     2.0124 H       
  57 H57           -5.6828     3.5559    -0.9670 H       
  58 H58           -5.5783     2.7663    -2.5588 H       
  59 H59           -7.1036     0.9769    -1.7713 H       
  60 H60           -7.2081     1.7665    -0.1795 H       
  61 H61           -8.1540     3.7946    -1.2477 H       
  62 H62           -8.0494     3.0050    -2.8395 H       
  63 H63            0.8680    -6.7102     1.9939 H       
  64 H64            0.9519    -6.8877     3.7630 H       
  65 H65            0.4301    -5.3438     3.0472 H       
  66 H66           -9.6549     2.3143     0.5603 H       
  67 H67          -10.8082     3.3336    -0.3513 H       
  68 H68          -10.9284     0.3582     0.2242 H       
  69 H69          -12.2714     1.5384     0.0608 H       
  70 H70          -11.5185    -0.1799    -1.9972 H       
  71 H71          -12.2389     1.4335    -2.2937 H       
  72 H72            4.0219    -0.1856     0.0937 H       
  73 H73            3.9148    -0.3385     1.8638 H       
  74 H74            2.6799    -1.0949     0.8289 H       
  75 H75            2.4369     3.8736    -1.0769 H       
  76 H76            2.2660     3.7817    -2.8463 H       
  77 H77            0.8225     3.7067    -1.8076 H       
@<TRIPOS>BOND
   1    1    2 ar
   2    1   16 1
   3    1    6 ar
   4    2    3 ar
   5    2    7 1
   6    3    4 ar
   7    3   41 1
   8    4    5 ar
   9    4   42 1
  10    5    6 ar
  11    5   13 1
  12    6   43 1
  13    7    8 1
  14    7    9 1
  15    8   12 1
  16    8   44 1
  17    8   45 1
  18    9   10 1
  19    9   46 1
  20    9   47 1
  21   10   11 1
  22   10   48 1
  23   10   49 1
  24   11   12 1
  25   11   17 1
  26   12   50 1
  27   12   51 1
  28   13   14 2
  29   13   15 am
  30   15   23 1
  31   15   52 1
  32   16   26 am
  33   16   34 am
  34   17   18 ar
  35   17   22 ar
  36   18   19 ar
  37   18   27 1
  38   19   20 ar
  39   19   53 1
  40   20   21 ar
  41   20   54 1
  42   21   22 ar
  43   21   55 1
  44   22   56 1
  45   23   24 1
  46   23   57 1
  47   23   58 1
  48   24   25 1
  49   24   59 1
  50   24   60 1
  51   25   28 1
  52   25   61 1
  53   25   62 1
  54   26   38 2
  55   26   39 2
  56   26   40 1
  57   27   63 1
  58   27   64 1
  59   27   65 1
  60   28   29 1
  61   28   32 am
  62   29   30 1
  63   29   66 1
  64   29   67 1
  65   30   31 1
  66   30   68 1
  67   30   69 1
  68   31   32 1
  69   31   70 1
  70   31   71 1
  71   32   33 2
  72   34   35 2
  73   34   36 2
  74   34   37 1
  75   37   72 1
  76   37   73 1
  77   37   74 1
  78   40   75 1
  79   40   76 1
  80   40   77 1

#	End of record

