#	Name: ASD01880930
#	Creating user name:	WinNT
#	Creation time:	15. 06. 2019 19:41

#	Modifying user name:	WinNT
#	Modification time:	15. 06. 2019 19:41

#	Program:	/corina/corina34_cracker 3.40 0067  02.08.2006

@<TRIPOS>MOLECULE
ASD01880930
  45   48    0    0    0
SMALL
NO_CHARGES


@<TRIPOS>ATOM
   1 N1             0.0047     1.3269    -0.1706 N.ar    
   2 C2             0.0075     0.0104    -0.1808 C.ar    
   3 N3             1.1161    -0.6849    -0.0200 N.ar    
   4 C4             2.2809    -0.0814     0.1598 C.ar    
   5 C5             2.3288     1.3013     0.1781 C.ar    
   6 C6             1.1358     2.0076     0.0047 C.ar    
   7 C7             3.6340     2.0268     0.3805 C.3     
   8 O8             4.6664     1.0801     0.6632 O.3     
   9 C9             5.9135     1.5726     0.8728 C.ar    
  10 C10            6.9653     0.7051     1.1530 C.ar    
  11 C11            8.2265     1.2033     1.3644 C.ar    
  12 C12            8.4638     2.5807     1.3002 C.ar    
  13 C13            7.4035     3.4487     1.0182 C.ar    
  14 C14            6.1398     2.9413     0.8016 C.ar    
  15 C15            9.5525     0.5575     1.6809 C.3     
  16 N16           10.5255     1.6508     1.7863 N.am    
  17 C17            9.8927     2.8159     1.5659 C.2     
  18 O18           10.4249     3.9091     1.5831 O.2     
  19 Cl19           7.6794     5.1606     0.9352 Cl      
  20 C20            1.1293     3.4906     0.0152 C.ar    
  21 C21            2.0944     4.1994    -0.6982 C.ar    
  22 C22            2.0835     5.5794    -0.6848 C.ar    
  23 C23            1.1176     6.2591     0.0352 C.ar    
  24 C24            0.1576     5.5608     0.7454 C.ar    
  25 C25            0.1547     4.1808     0.7339 C.ar    
  26 C26           12.7293     1.3304     0.7754 C.3     
  27 C27           11.9521     1.4976     2.0826 C.3     
  28 H28           -0.9250    -0.5150    -0.3247 H       
  29 H29            3.1825    -0.6613     0.2909 H       
  30 H30            3.8863     2.5801    -0.5242 H       
  31 H31            3.5385     2.7205     1.2158 H       
  32 H32            6.7890    -0.3592     1.2044 H       
  33 H33            5.3212     3.6112     0.5835 H       
  34 H34            9.4906     0.0185     2.6263 H       
  35 H35            9.8388    -0.1229     0.8790 H       
  36 H36            2.8494     3.6697    -1.2602 H       
  37 H37            2.8308     6.1296    -1.2373 H       
  38 H38            1.1131     7.3390     0.0431 H       
  39 H39           -0.5940     6.0967     1.3061 H       
  40 H40           -0.5954     3.6366     1.2885 H       
  41 H41           13.7907     1.2164     0.9958 H       
  42 H42           12.3703     0.4456     0.2498 H       
  43 H43           12.5807     2.2102     0.1492 H       
  44 H44           12.3111     2.3824     2.6082 H       
  45 H45           12.1007     0.6178     2.7087 H       
@<TRIPOS>BOND
   1    1    2 ar
   2    1    6 ar
   3    2    3 ar
   4    2   28 1
   5    3    4 ar
   6    4    5 ar
   7    4   29 1
   8    5    6 ar
   9    5    7 1
  10    6   20 1
  11    7    8 1
  12    7   30 1
  13    7   31 1
  14    8    9 1
  15    9   10 ar
  16    9   14 ar
  17   10   11 ar
  18   10   32 1
  19   11   12 ar
  20   11   15 1
  21   12   13 ar
  22   12   17 1
  23   13   14 ar
  24   13   19 1
  25   14   33 1
  26   15   16 1
  27   15   34 1
  28   15   35 1
  29   16   17 am
  30   16   27 1
  31   17   18 2
  32   20   21 ar
  33   20   25 ar
  34   21   22 ar
  35   21   36 1
  36   22   23 ar
  37   22   37 1
  38   23   24 ar
  39   23   38 1
  40   24   25 ar
  41   24   39 1
  42   25   40 1
  43   26   27 1
  44   26   41 1
  45   26   42 1
  46   26   43 1
  47   27   44 1
  48   27   45 1

#	End of record

