#	Name: ASD02039245
#	Creating user name:	WinNT
#	Creation time:	15. 06. 2019 20:17

#	Modifying user name:	WinNT
#	Modification time:	15. 06. 2019 20:17

#	Program:	/corina/corina34_cracker 3.40 0067  02.08.2006

@<TRIPOS>MOLECULE
ASD02039245
  40   43    0    0    0
SMALL
NO_CHARGES


@<TRIPOS>ATOM
   1 N1            -0.0160     1.3037    -0.0272 N.2     
   2 C2             0.0020    -0.0039     0.0001 C.2     
   3 C3             1.3717    -0.3811     0.0201 C.2     
   4 C4             2.0347     0.7972     0.0016 C.2     
   5 O5             1.1032     1.7614    -0.0267 O.3     
   6 N6            -1.0993    -0.8548     0.0080 N.pl3   
   7 C7            -0.9163    -2.2362    -0.1067 C.ar    
   8 C8             0.1061    -2.7388    -0.9018 C.ar    
   9 C9             0.2860    -4.1035    -1.0138 C.ar    
  10 C10           -0.5511    -4.9714    -0.3354 C.ar    
  11 C11           -1.5721    -4.4739     0.4587 C.ar    
  12 C12           -1.7525    -3.1076     0.5784 C.ar    
  13 O13            4.0138     1.0222    -1.3331 O.3     
  14 C14            5.3522     1.1905    -1.5028 C.ar    
  15 C15            6.1807     1.3212    -0.3911 C.ar    
  16 C16            7.5391     1.4920    -0.5440 C.ar    
  17 C17            8.0948     1.5350    -1.8180 C.ar    
  18 C18            7.2610     1.4032    -2.9446 C.ar    
  19 C19            5.8841     1.2251    -2.7764 C.ar    
  20 N20            9.4532     1.7063    -1.9922 N.am    
  21 C21            9.9927     1.7492    -3.2229 C.2     
  22 C22            9.2004     1.6224    -4.3838 C.2     
  23 C23            7.8593     1.4513    -4.2801 C.2     
  24 O24           11.1965     1.9018    -3.3389 O.2     
  25 C25            3.5294     0.9894     0.0109 C.3     
  26 F26           -2.3883    -5.3234     1.1202 F       
  27 Cl27          -0.3225    -6.6863    -0.4796 Cl      
  28 H28            1.7870    -1.3777     0.0448 H       
  29 H29           -1.9939    -0.4895     0.0930 H       
  30 H30            0.7599    -2.0625    -1.4325 H       
  31 H31            1.0810    -4.4938    -1.6320 H       
  32 H32           -2.5480    -2.7194     1.1970 H       
  33 H33            5.7540     1.2889     0.6005 H       
  34 H34            8.1721     1.5927     0.3252 H       
  35 H35            5.2401     1.1231    -3.6374 H       
  36 H36           10.0269     1.7974    -1.2154 H       
  37 H37            9.6640     1.6614    -5.3585 H       
  38 H38            7.2457     1.3528    -5.1634 H       
  39 H39            3.7718     1.9289     0.5075 H       
  40 H40            3.9985     0.1639     0.5462 H       
@<TRIPOS>BOND
   1    1    2 2
   2    1    5 1
   3    2    3 1
   4    2    6 1
   5    3    4 2
   6    3   28 1
   7    4    5 1
   8    4   25 1
   9    6    7 1
  10    6   29 1
  11    7    8 ar
  12    7   12 ar
  13    8    9 ar
  14    8   30 1
  15    9   10 ar
  16    9   31 1
  17   10   11 ar
  18   10   27 1
  19   11   12 ar
  20   11   26 1
  21   12   32 1
  22   13   14 1
  23   13   25 1
  24   14   15 ar
  25   14   19 ar
  26   15   16 ar
  27   15   33 1
  28   16   17 ar
  29   16   34 1
  30   17   18 ar
  31   17   20 1
  32   18   19 ar
  33   18   23 1
  34   19   35 1
  35   20   21 am
  36   20   36 1
  37   21   22 1
  38   21   24 2
  39   22   23 2
  40   22   37 1
  41   23   38 1
  42   25   39 1
  43   25   40 1

#	End of record

