#	Name: ASD04660015
#	Creating user name:	WinNT
#	Creation time:	15. 06. 2019 20:52

#	Modifying user name:	WinNT
#	Modification time:	15. 06. 2019 20:52

#	Program:	/corina/corina34_cracker 3.40 0067  02.08.2006

@<TRIPOS>MOLECULE
ASD04660015
  42   45    0    0    0
SMALL
NO_CHARGES


@<TRIPOS>ATOM
   1 C1             6.3621     1.5377     2.8264 C.ar    
   2 C2             6.4308     0.1467     2.7648 C.ar    
   3 C3             5.6493    -0.6053     1.9284 C.ar    
   4 C4             4.7308     0.0458     1.0879 C.ar    
   5 C5             4.6741     1.4380     1.1622 C.ar    
   6 C6             5.4699     2.2170     2.0149 C.ar    
   7 C7             3.8632    -0.5807     0.1774 C.ar    
   8 C8             3.0267     0.2015    -0.5712 C.ar    
   9 C9             2.9914     1.5926    -0.4763 C.ar    
  10 C10            3.8289     2.2463     0.4079 C.ar    
  11 N11            4.0857     3.5590     0.7829 N.am    
  12 C12            5.0539     3.5967     1.7362 C.2     
  13 C13            0.3057    -3.6155     3.6564 C.ar    
  14 O14            2.4377    -4.5053     3.3679 O.2     
  15 C15           -0.0214    -4.5153     4.6759 C.ar    
  16 C16           -1.2625    -4.4530     5.2734 C.ar    
  17 C17           -2.1834    -3.5033     4.8668 C.ar    
  18 C18           -1.8674    -2.6096     3.8583 C.ar    
  19 C19           -0.6284    -2.6553     3.2549 C.ar    
  20 O20            5.4980     4.5983     2.2655 O.2     
  21 N21           -3.5134    -3.4433     5.5134 N.pl3   
  22 O22           -3.7950    -4.2285     6.4010 O.2     
  23 O23           -4.3263    -2.6088     5.1581 O.2     
  24 S24            3.8531    -2.3340     0.0032 S.o2    
  25 O25            2.8444    -2.6367    -0.9508 O.2     
  26 O26            5.2094    -2.7301    -0.1476 O.2     
  27 N27            3.3386    -2.9669     1.4444 N.am    
  28 C28            1.9767    -2.7033     1.9157 C.3     
  29 C29            1.6283    -3.6748     3.0138 C.2     
  30 H30            6.9990     2.0827     3.5074 H       
  31 H31            7.1342    -0.3623     3.4071 H       
  32 H32            5.7378    -1.6816     1.9149 H       
  33 H33            2.3608    -0.2822    -1.2705 H       
  34 H34            2.3101     2.1590    -1.0939 H       
  35 H35            3.6384     4.3377     0.4162 H       
  36 H36            0.6961    -5.2572     4.9940 H       
  37 H37           -1.5167    -5.1474     6.0606 H       
  38 H38           -2.5917    -1.8718     3.5460 H       
  39 H39           -0.3832    -1.9571     2.4683 H       
  40 H40            3.9390    -3.5120     1.9766 H       
  41 H41            1.9155    -1.6847     2.2988 H       
  42 H42            1.2766    -2.8232     1.0889 H       
@<TRIPOS>BOND
   1    1    2 ar
   2    1    6 ar
   3    1   30 1
   4    2    3 ar
   5    2   31 1
   6    3    4 ar
   7    3   32 1
   8    4    5 ar
   9    4    7 ar
  10    5    6 ar
  11    5   10 ar
  12    6   12 1
  13    7    8 ar
  14    7   24 1
  15    8    9 ar
  16    8   33 1
  17    9   10 ar
  18    9   34 1
  19   10   11 1
  20   11   12 am
  21   11   35 1
  22   12   20 2
  23   13   15 ar
  24   13   29 1
  25   13   19 ar
  26   14   29 2
  27   15   16 ar
  28   15   36 1
  29   16   17 ar
  30   16   37 1
  31   17   18 ar
  32   17   21 1
  33   18   19 ar
  34   18   38 1
  35   19   39 1
  36   21   22 2
  37   21   23 2
  38   24   25 2
  39   24   26 2
  40   24   27 am
  41   27   28 1
  42   27   40 1
  43   28   29 1
  44   28   41 1
  45   28   42 1

#	End of record

