#	Name: ASD01912093
#	Creating user name:	WinNT
#	Creation time:	15. 06. 2019 19:59

#	Modifying user name:	WinNT
#	Modification time:	15. 06. 2019 19:59

#	Program:	/corina/corina34_cracker 3.40 0067  02.08.2006

@<TRIPOS>MOLECULE
ASD01912093
  58   62    0    0    0
SMALL
NO_CHARGES


@<TRIPOS>ATOM
   1 N1             0.0090     1.3342    -0.2147 N.2     
   2 C2             0.0003     0.0031    -0.0847 C.2     
   3 N3             1.2254    -0.4106     0.1583 N.2     
   4 N4             2.0446     0.7297     0.1809 N.pl3   
   5 C5             1.2345     1.7875    -0.0572 C.2     
   6 C6             1.6534     3.2051    -0.1285 C.ar    
   7 C7             0.7134     4.2223     0.0372 C.ar    
   8 C8             1.1102     5.5421    -0.0304 C.ar    
   9 C9             2.4371     5.8574    -0.2624 C.ar    
  10 C10            3.3741     4.8532    -0.4276 C.ar    
  11 C11            2.9909     3.5295    -0.3560 C.ar    
  12 C12           -1.1973    -0.8664    -0.1960 C.ar    
  13 C13           -2.4458    -0.3062    -0.4574 C.ar    
  14 C14           -3.5565    -1.1190    -0.5600 C.ar    
  15 C15           -3.4316    -2.4883    -0.4032 C.ar    
  16 C16           -2.1932    -3.0498    -0.1433 C.ar    
  17 C17           -1.0758    -2.2464    -0.0451 C.ar    
  18 Br18          -4.9578    -3.5960    -0.5437 Br      
  19 C19            3.4901     0.7671     0.4157 C.3     
  20 C20            4.2164     0.5915    -0.8930 C.2     
  21 N21            5.5638     0.5926    -0.9214 N.am    
  22 O22            3.5883     0.4492    -1.9207 O.2     
  23 C23            6.2924     0.4228    -2.1878 C.3     
  24 C24            7.3205     1.5521    -2.3130 C.3     
  25 N25            8.1634     1.5783    -1.1102 N.3     
  26 C26            7.3709     1.8795     0.0894 C.3     
  27 C27            6.3447     0.7697     0.3123 C.3     
  28 C28            9.2060     2.4771    -1.2545 C.ar    
  29 N29           10.0695     2.6309    -0.2615 N.ar    
  30 C30           -4.9077    -0.5144    -0.8427 C.3     
  31 C31           11.0769     3.4815    -0.3671 C.ar    
  32 C32           11.2225     4.2157    -1.5337 C.ar    
  33 C33           10.3013     4.0302    -2.5526 C.ar    
  34 N34            9.3199     3.1594    -2.3845 N.ar    
  35 H35           -0.3229     3.9774     0.2177 H       
  36 H36            0.3834     6.3306     0.0978 H       
  37 H37            2.7426     6.8920    -0.3152 H       
  38 H38            4.4084     5.1057    -0.6089 H       
  39 H39            3.7234     2.7464    -0.4848 H       
  40 H40           -2.5444     0.7624    -0.5792 H       
  41 H41           -2.1009    -4.1189    -0.0214 H       
  42 H42           -0.1100    -2.6854     0.1573 H       
  43 H43            3.7620     1.7263     0.8563 H       
  44 H44            3.7685    -0.0374     1.0965 H       
  45 H45            6.8037    -0.5398    -2.1898 H       
  46 H46            5.5925     0.4706    -3.0221 H       
  47 H47            7.9441     1.3807    -3.1905 H       
  48 H48            6.8027     2.5058    -2.4151 H       
  49 H49            8.0310     1.9454     0.9543 H       
  50 H50            6.8524     2.8286    -0.0461 H       
  51 H51            5.6805     1.0444     1.1317 H       
  52 H52            6.8585    -0.1617     0.5502 H       
  53 H53           -5.0670    -0.4686    -1.9200 H       
  54 H54           -5.6835    -1.1292    -0.3864 H       
  55 H55           -4.9497     0.4920    -0.4261 H       
  56 H56           11.7774     3.6028     0.4460 H       
  57 H57           12.0358     4.9173    -1.6462 H       
  58 H58           10.3862     4.5869    -3.4741 H       
@<TRIPOS>BOND
   1    1    2 1
   2    1    5 2
   3    2    3 2
   4    2   12 1
   5    3    4 1
   6    4    5 1
   7    4   19 1
   8    5    6 1
   9    6    7 ar
  10    6   11 ar
  11    7    8 ar
  12    7   35 1
  13    8    9 ar
  14    8   36 1
  15    9   10 ar
  16    9   37 1
  17   10   11 ar
  18   10   38 1
  19   11   39 1
  20   12   13 ar
  21   12   17 ar
  22   13   14 ar
  23   13   40 1
  24   14   15 ar
  25   14   30 1
  26   15   16 ar
  27   15   18 1
  28   16   17 ar
  29   16   41 1
  30   17   42 1
  31   19   20 1
  32   19   43 1
  33   19   44 1
  34   20   21 am
  35   20   22 2
  36   21   23 1
  37   21   27 1
  38   23   24 1
  39   23   45 1
  40   23   46 1
  41   24   25 1
  42   24   47 1
  43   24   48 1
  44   25   26 1
  45   25   28 1
  46   26   27 1
  47   26   49 1
  48   26   50 1
  49   27   51 1
  50   27   52 1
  51   28   29 ar
  52   28   34 ar
  53   29   31 ar
  54   30   53 1
  55   30   54 1
  56   30   55 1
  57   31   32 ar
  58   31   56 1
  59   32   33 ar
  60   32   57 1
  61   33   34 ar
  62   33   58 1

#	End of record

