#	Name: ASD01810241
#	Creating user name:	WinNT
#	Creation time:	15. 06. 2019 19:24

#	Modifying user name:	WinNT
#	Modification time:	15. 06. 2019 19:24

#	Program:	/corina/corina34_cracker 3.40 0067  02.08.2006

@<TRIPOS>MOLECULE
ASD01810241
  47   51    0    0    0
SMALL
NO_CHARGES


@<TRIPOS>ATOM
   1 C1            -0.0169     1.3838    -0.0455 C.ar    
   2 C2             0.0020    -0.0038    -0.0525 C.ar    
   3 C3             1.1973    -0.6918    -0.0490 C.ar    
   4 C4             2.4035     0.0088    -0.0387 C.ar    
   5 C5             2.3796     1.4130    -0.0321 C.ar    
   6 C6             1.1623     2.0949    -0.0352 C.ar    
   7 N7             3.6055    -0.6664    -0.0346 N.pl3   
   8 C8             4.7891    -0.0407    -0.0244 C.2     
   9 C9             4.8932     1.3358    -0.0167 C.2     
  10 C10            3.6618     2.1419    -0.0212 C.2     
  11 O11            3.6999     3.3598    -0.0151 O.2     
  12 C12            6.2115     1.9855    -0.0041 C.2     
  13 O13            6.3000     3.3306     0.0033 O.3     
  14 O14            7.2221     1.3098    -0.0004 O.2     
  15 C15            3.5869    -2.1313    -0.0413 C.3     
  16 C16            3.4437    -2.6254    -1.4578 C.ar    
  17 N17            2.2417    -2.7297    -1.9905 N.ar    
  18 C18            2.0626    -3.1558    -3.2242 C.ar    
  19 C19            3.1514    -3.5147    -4.0155 C.ar    
  20 C20            4.4384    -3.4153    -3.4797 C.ar    
  21 C21            4.5752    -2.9570    -2.1808 C.ar    
  22 C22            2.9481    -3.9954    -5.4046 C.ar    
  23 F23            1.2000    -2.0428    -0.0551 F       
  24 C24            4.0501    -4.3525    -6.1881 C.ar    
  25 C25            3.8808    -4.7965    -7.4679 C.ar    
  26 C26            2.6031    -4.8989    -8.0102 C.ar    
  27 C27            1.4862    -4.5423    -7.2311 C.ar    
  28 C28            1.6640    -4.0951    -5.9223 C.ar    
  29 N29            2.1280    -5.3024    -9.2381 N.pl3   
  30 C30            0.7628    -5.2138    -9.2616 C.2     
  31 C31            0.3127    -4.7615    -8.0807 C.2     
  32 H32           -0.9608     1.9085    -0.0525 H       
  33 H33           -0.9293    -0.5508    -0.0605 H       
  34 H34            1.1450     3.1747    -0.0305 H       
  35 H35            5.6924    -0.6326    -0.0217 H       
  36 H36            7.1886     3.7120     0.0115 H       
  37 H37            4.5175    -2.5084     0.3827 H       
  38 H38            2.7459    -2.4866     0.5542 H       
  39 H39            1.0626    -3.2277    -3.6257 H       
  40 H40            5.3046    -3.6853    -4.0656 H       
  41 H41            5.5543    -2.8669    -1.7340 H       
  42 H42            5.0457    -4.2758    -5.7764 H       
  43 H43            4.7410    -5.0689    -8.0614 H       
  44 H44            0.8108    -3.8205    -5.3198 H       
  45 H45            2.6793    -5.6042    -9.9769 H       
  46 H46            0.1395    -5.4700   -10.1055 H       
  47 H47           -0.7185    -4.5914    -7.8085 H       
@<TRIPOS>BOND
   1    1    2 ar
   2    1    6 ar
   3    1   32 1
   4    2    3 ar
   5    2   33 1
   6    3    4 ar
   7    3   23 1
   8    4    5 ar
   9    4    7 1
  10    5    6 ar
  11    5   10 1
  12    6   34 1
  13    7    8 1
  14    7   15 1
  15    8    9 2
  16    8   35 1
  17    9   10 1
  18    9   12 1
  19   10   11 2
  20   12   13 1
  21   12   14 2
  22   13   36 1
  23   15   16 1
  24   15   37 1
  25   15   38 1
  26   16   17 ar
  27   16   21 ar
  28   17   18 ar
  29   18   19 ar
  30   18   39 1
  31   19   20 ar
  32   19   22 1
  33   20   21 ar
  34   20   40 1
  35   21   41 1
  36   22   24 ar
  37   22   28 ar
  38   24   25 ar
  39   24   42 1
  40   25   26 ar
  41   25   43 1
  42   26   27 ar
  43   26   29 1
  44   27   28 ar
  45   27   31 1
  46   28   44 1
  47   29   30 1
  48   29   45 1
  49   30   31 2
  50   30   46 1
  51   31   47 1

#	End of record

