#	Name: ASD03241009
#	Creating user name:	WinNT
#	Creation time:	15. 06. 2019 20:35

#	Modifying user name:	WinNT
#	Modification time:	15. 06. 2019 20:35

#	Program:	/corina/corina34_cracker 3.40 0067  02.08.2006

@<TRIPOS>MOLECULE
ASD03241009
  62   67    0    0    0
SMALL
NO_CHARGES


@<TRIPOS>ATOM
   1 C1            -0.0188     1.5336     0.0105 C.3     
   2 C2             0.0021    -0.0041     0.0020 C.3     
   3 C3             1.3815     0.0967    -0.6702 C.3     
   4 C4             1.5179     1.4762    -0.0045 C.3     
   5 O5            -0.5818     2.1049    -1.1721 O.3     
   6 C6            -0.5973     2.1316     1.2944 C.3     
   7 C7             2.3746    -0.9181    -0.1653 C.ar    
   8 C8             3.3681    -1.3872    -1.0061 C.ar    
   9 C9             4.2801    -2.3167    -0.5498 C.ar    
  10 C10            4.1992    -2.7830     0.7624 C.ar    
  11 C11            3.1954    -2.3058     1.6054 C.ar    
  12 C12            2.2926    -1.3725     1.1389 C.ar    
  13 N13            6.9679    -6.5948    -0.0357 N.pl3   
  14 C14            7.8694    -7.5266     0.4025 C.2     
  15 N15            8.3265    -7.5365     1.6672 N.2     
  16 C16            7.9366    -6.6562     2.5527 C.2     
  17 C17            6.9745    -5.6296     2.1575 C.ar    
  18 C18            6.5197    -4.6615     3.0593 C.ar    
  19 C19            5.6029    -3.7221     2.5989 C.ar    
  20 C20            5.1744    -3.7809     1.2582 C.ar    
  21 N21            5.6277    -4.7127     0.4332 N.ar    
  22 C22            6.4989    -5.6244     0.8290 C.ar    
  23 C23            8.1466    -8.3538    -0.6775 C.2     
  24 C24            7.4003    -7.9019    -1.7586 C.2     
  25 N25            6.6952    -6.8619    -1.3828 N.2     
  26 C26            7.3970    -8.5111    -3.1370 C.3     
  27 C27            5.0840    -2.6719     3.5074 C.ar    
  28 C28            4.5779    -3.0189     4.7594 C.ar    
  29 C29            4.0963    -2.0396     5.6024 C.ar    
  30 C30            4.1148    -0.7093     5.2054 C.ar    
  31 C31            4.6181    -0.3605     3.9593 C.ar    
  32 C32            5.1064    -1.3344     3.1140 C.ar    
  33 O33            3.6387     0.2533     6.0379 O.3     
  34 C34            3.6877     1.6013     5.5662 C.3     
  35 N35            1.3186     0.1546    -2.1367 N.3     
  36 H36            0.0329    -0.4458     0.9980 H       
  37 H37           -0.7629    -0.4476    -0.6353 H       
  38 H38            1.9766     2.2276    -0.6471 H       
  39 H39            1.9632     1.4391     0.9897 H       
  40 H40           -0.5977     3.0718    -1.1727 H       
  41 H41            0.0010     1.8098     2.1469 H       
  42 H42           -0.5800     3.2195     1.2285 H       
  43 H43           -1.6249     1.7917     1.4227 H       
  44 H44            3.4298    -1.0254    -2.0218 H       
  45 H45            5.0548    -2.6826    -1.2074 H       
  46 H46            3.1274    -2.6634     2.6222 H       
  47 H47            1.5175    -0.9993     1.7918 H       
  48 H48            8.3199    -6.6879     3.5619 H       
  49 H49            6.8688    -4.6447     4.0812 H       
  50 H50            8.8215    -9.1969    -0.6774 H       
  51 H51            6.6230    -9.2764    -3.1941 H       
  52 H52            7.1965    -7.7357    -3.8764 H       
  53 H53            8.3691    -8.9616    -3.3374 H       
  54 H54            4.5626    -4.0536     5.0685 H       
  55 H55            3.7042    -2.3077     6.5723 H       
  56 H56            4.6310     0.6752     3.6535 H       
  57 H57            5.5019    -1.0619     2.1467 H       
  58 H58            3.2782     2.2671     6.3258 H       
  59 H59            4.7221     1.8770     5.3609 H       
  60 H60            3.1003     1.6879     4.6522 H       
  61 H61            2.2430     0.2199    -2.5360 H       
  62 H62            0.8193    -0.6393    -2.5089 H       
@<TRIPOS>BOND
   1    1    2 1
   2    1    4 1
   3    1    5 1
   4    1    6 1
   5    2    3 1
   6    2   36 1
   7    2   37 1
   8    3    4 1
   9    3    7 1
  10    3   35 1
  11    4   38 1
  12    4   39 1
  13    5   40 1
  14    6   41 1
  15    6   42 1
  16    6   43 1
  17    7    8 ar
  18    7   12 ar
  19    8    9 ar
  20    8   44 1
  21    9   10 ar
  22    9   45 1
  23   10   11 ar
  24   10   20 1
  25   11   12 ar
  26   11   46 1
  27   12   47 1
  28   13   14 1
  29   13   22 1
  30   13   25 1
  31   14   15 1
  32   14   23 2
  33   15   16 2
  34   16   17 1
  35   16   48 1
  36   17   18 ar
  37   17   22 ar
  38   18   19 ar
  39   18   49 1
  40   19   20 ar
  41   19   27 1
  42   20   21 ar
  43   21   22 ar
  44   23   24 1
  45   23   50 1
  46   24   25 2
  47   24   26 1
  48   26   51 1
  49   26   52 1
  50   26   53 1
  51   27   28 ar
  52   27   32 ar
  53   28   29 ar
  54   28   54 1
  55   29   30 ar
  56   29   55 1
  57   30   31 ar
  58   30   33 1
  59   31   32 ar
  60   31   56 1
  61   32   57 1
  62   33   34 1
  63   34   58 1
  64   34   59 1
  65   34   60 1
  66   35   61 1
  67   35   62 1

#	End of record

