#	Name: ASD01914307
#	Creating user name:	WinNT
#	Creation time:	15. 06. 2019 20:03

#	Modifying user name:	WinNT
#	Modification time:	15. 06. 2019 20:03

#	Program:	/corina/corina34_cracker 3.40 0067  02.08.2006

@<TRIPOS>MOLECULE
ASD01914307
  46   49    0    0    0
SMALL
NO_CHARGES


@<TRIPOS>ATOM
   1 C1            -0.0038     1.4834     0.1691 C.2     
   2 C2             0.0057    -0.0142     0.0010 C.3     
   3 N3             1.1577     2.1667     0.1890 N.am    
   4 C4             1.1709     3.6284     0.3519 C.3     
   5 C5             2.1398     3.9832     1.4849 C.3     
   6 N6             3.4497     3.3766     1.2126 N.3     
   7 C7             3.3643     1.9103     1.1932 C.3     
   8 C8             2.4459     1.4699     0.0544 C.3     
   9 C9             4.3951     3.8063     2.1277 C.ar    
  10 N10            5.6381     3.3579     2.0322 N.ar    
  11 C11            6.5657     3.7486     2.8905 C.ar    
  12 C12            6.2236     4.6374     3.8975 C.ar    
  13 C13            4.9143     5.0866     3.9684 C.ar    
  14 N14            4.0367     4.6605     3.0750 N.ar    
  15 C15           -2.1775    -0.6966    -1.0740 C.2     
  16 N16           -3.3349    -1.1599    -0.6572 N.2     
  17 C17           -3.3063    -1.2869     0.6746 C.2     
  18 C18           -2.0921    -0.8913     1.1138 C.2     
  19 N19           -1.3707    -0.5156     0.0120 N.pl3   
  20 C20           -1.8100    -0.4239    -2.4803 C.ar    
  21 C21           -2.5198    -1.0269    -3.5196 C.ar    
  22 C22           -2.1722    -0.7680    -4.8294 C.ar    
  23 C23           -1.1223     0.0870    -5.1135 C.ar    
  24 C24           -0.4143     0.6876    -4.0878 C.ar    
  25 C25           -0.7558     0.4419    -2.7738 C.ar    
  26 Br26          -1.5004    -0.8611     2.9096 Br      
  27 Br27          -4.7247    -1.9131     1.7573 Br      
  28 O28           -1.0570     2.0743     0.2814 O.2     
  29 H29            0.4782    -0.2703    -0.9473 H       
  30 H30            0.5643    -0.4681     0.8196 H       
  31 H31            1.5034     4.0971    -0.5743 H       
  32 H32            0.1696     3.9779     0.6035 H       
  33 H33            2.2462     5.0662     1.5467 H       
  34 H34            1.7511     3.6010     2.4288 H       
  35 H35            4.3588     1.4899     1.0435 H       
  36 H36            2.9586     1.5569     2.1412 H       
  37 H37            2.2871     0.3929     0.1094 H       
  38 H38            2.9033     1.7271    -0.9010 H       
  39 H39            7.5772     3.3793     2.8078 H       
  40 H40            6.9612     4.9724     4.6117 H       
  41 H41            4.6151     5.7792     4.7412 H       
  42 H42           -3.3391    -1.6950    -3.2990 H       
  43 H43           -2.7207    -1.2340    -5.6346 H       
  44 H44           -0.8539     0.2862    -6.1405 H       
  45 H45            0.4045     1.3538    -4.3162 H       
  46 H46           -0.2054     0.9152    -1.9741 H       
@<TRIPOS>BOND
   1    1    2 1
   2    1    3 am
   3    1   28 2
   4    2   19 1
   5    2   29 1
   6    2   30 1
   7    3    4 1
   8    3    8 1
   9    4    5 1
  10    4   31 1
  11    4   32 1
  12    5    6 1
  13    5   33 1
  14    5   34 1
  15    6    7 1
  16    6    9 1
  17    7    8 1
  18    7   35 1
  19    7   36 1
  20    8   37 1
  21    8   38 1
  22    9   10 ar
  23    9   14 ar
  24   10   11 ar
  25   11   12 ar
  26   11   39 1
  27   12   13 ar
  28   12   40 1
  29   13   14 ar
  30   13   41 1
  31   15   16 2
  32   15   19 1
  33   15   20 1
  34   16   17 1
  35   17   18 2
  36   17   27 1
  37   18   19 1
  38   18   26 1
  39   20   21 ar
  40   20   25 ar
  41   21   22 ar
  42   21   42 1
  43   22   23 ar
  44   22   43 1
  45   23   24 ar
  46   23   44 1
  47   24   25 ar
  48   24   45 1
  49   25   46 1

#	End of record

