#	Name: ASD01885339
#	Creating user name:	WinNT
#	Creation time:	15. 06. 2019 19:49

#	Modifying user name:	WinNT
#	Modification time:	15. 06. 2019 19:49

#	Program:	/corina/corina34_cracker 3.40 0067  02.08.2006

@<TRIPOS>MOLECULE
ASD01885339
  52   55    0    0    0
SMALL
NO_CHARGES


@<TRIPOS>ATOM
   1 C1            -0.0164     1.3565     0.0095 C.ar    
   2 C2             0.0021    -0.0041     0.0020 C.ar    
   3 C3             1.2052    -0.7063    -0.0132 C.ar    
   4 C4             2.3986    -0.0481    -0.0211 C.ar    
   5 C5             2.4181     1.3524    -0.0137 C.ar    
   6 C6             1.1963     2.0715     0.0018 C.ar    
   7 C7             3.6402     2.0714    -0.0215 C.ar    
   8 C8             3.5783     3.4584    -0.0135 C.ar    
   9 C9             2.3315     4.0925     0.0018 C.ar    
  10 N10            1.2047     3.4051     0.0084 N.ar    
  11 C11            4.9416     1.3652    -0.0371 C.2     
  12 C12            2.2743     5.5743     0.0102 C.2     
  13 O13            3.3022     6.2220     0.0039 O.2     
  14 N14            1.0820     6.2025     0.0249 N.am    
  15 C15           -1.2996    -0.7634     0.0109 C.3     
  16 N16           -1.7363    -1.0027    -1.3712 N.3     
  17 C17           -2.8679    -1.9378    -1.4111 C.3     
  18 C18           -3.3879    -2.0504    -2.8460 C.3     
  19 C19           -2.2599    -2.5459    -3.7551 C.3     
  20 C20           -1.0754    -1.5804    -3.6581 C.3     
  21 C21           -0.6224    -1.4814    -2.1996 C.3     
  22 C22            5.3341     0.3202     0.8248 C.2     
  23 N23            6.5465    -0.0398     0.4987 N.2     
  24 N24            6.9741     0.7520    -0.5737 N.pl3   
  25 C25            5.9803     1.6027    -0.8935 C.2     
  26 C26            8.2772     0.6663    -1.2376 C.3     
  27 C27           -4.5527    -3.0414    -2.8908 C.3     
  28 F28           -5.5811    -2.5904    -2.0565 F       
  29 F29           -5.0276    -3.1439    -4.2028 F       
  30 F30           -4.1145    -4.2962    -2.4542 F       
  31 H31           -0.9577     1.8859     0.0168 H       
  32 H32            1.1920    -1.7862    -0.0186 H       
  33 H33            3.3247    -0.6037    -0.0325 H       
  34 H34            4.4860     4.0435    -0.0186 H       
  35 H35            0.2613     5.6854     0.0299 H       
  36 H36            1.0445     7.1718     0.0304 H       
  37 H37           -1.1600    -1.7179     0.5182 H       
  38 H38           -2.0567    -0.1805     0.5354 H       
  39 H39           -2.5410    -2.9184    -1.0652 H       
  40 H40           -3.6647    -1.5716    -0.7637 H       
  41 H41           -3.7278    -1.0727    -3.1876 H       
  42 H42           -1.9462    -3.5403    -3.4374 H       
  43 H43           -2.6135    -2.5862    -4.7853 H       
  44 H44           -0.2530    -1.9506    -4.2702 H       
  45 H45           -1.3789    -0.5953    -4.0125 H       
  46 H46            0.2117    -0.7837    -2.1250 H       
  47 H47           -0.3060    -2.4641    -1.8501 H       
  48 H48            4.7367    -0.1074     1.6164 H       
  49 H49            6.0011     2.3405    -1.6819 H       
  50 H50            8.2186    -0.0431    -2.0630 H       
  51 H51            8.5548     1.6481    -1.6213 H       
  52 H52            9.0279     0.3303    -0.5223 H       
@<TRIPOS>BOND
   1    1    2 ar
   2    1    6 ar
   3    1   31 1
   4    2    3 ar
   5    2   15 1
   6    3    4 ar
   7    3   32 1
   8    4    5 ar
   9    4   33 1
  10    5    7 ar
  11    5    6 ar
  12    6   10 ar
  13    7    8 ar
  14    7   11 1
  15    8    9 ar
  16    8   34 1
  17    9   10 ar
  18    9   12 1
  19   11   22 1
  20   11   25 2
  21   12   13 2
  22   12   14 am
  23   14   35 1
  24   14   36 1
  25   15   16 1
  26   15   37 1
  27   15   38 1
  28   16   17 1
  29   16   21 1
  30   17   18 1
  31   17   39 1
  32   17   40 1
  33   18   19 1
  34   18   27 1
  35   18   41 1
  36   19   20 1
  37   19   42 1
  38   19   43 1
  39   20   21 1
  40   20   44 1
  41   20   45 1
  42   21   46 1
  43   21   47 1
  44   22   23 2
  45   22   48 1
  46   23   24 1
  47   24   25 1
  48   24   26 1
  49   25   49 1
  50   26   50 1
  51   26   51 1
  52   26   52 1
  53   27   28 1
  54   27   29 1
  55   27   30 1

#	End of record

