#	Name: ASD00843591
#	Creating user name:	WinNT
#	Creation time:	15. 06. 2019 18:47

#	Modifying user name:	WinNT
#	Modification time:	15. 06. 2019 18:47

#	Program:	/corina/corina34_cracker 3.40 0067  02.08.2006

@<TRIPOS>MOLECULE
ASD00843591
  97  102    0    0    0
SMALL
NO_CHARGES


@<TRIPOS>ATOM
   1 F1             5.5849    -2.7379    -1.8748 F       
   2 N2             0.8126     0.9561    -0.4834 N.ar    
   3 C3             0.9762    -0.3408    -0.6839 C.ar    
   4 C4             0.8008    -1.2454     0.3558 C.ar    
   5 C5             0.4518    -0.7720     1.6084 C.ar    
   6 C6             0.2897     0.5964     1.7775 C.ar    
   7 C7             0.4800     1.4374     0.6995 C.ar    
   8 C8             0.9877    -2.7225     0.1226 C.3     
   9 C9             0.6042    -3.5073     1.3590 C.2     
  10 C10            0.1630    -3.1822    -1.0813 C.3     
  11 C11           -1.2776    -2.7861    -0.8840 C.2     
  12 N12           -2.2127    -3.1817    -1.7704 N.am    
  13 O13           -1.5955    -2.1114     0.0723 O.2     
  14 C14           -3.6037    -2.7172    -1.6581 C.3     
  15 C15           -4.0408    -2.1567    -3.0157 C.3     
  16 N16           -3.8049    -3.1654    -4.0572 N.3     
  17 C17           -2.3746    -3.4748    -4.1852 C.3     
  18 C18           -1.8679    -4.0845    -2.8791 C.3     
  19 C19           -4.3676    -2.7348    -5.3441 C.3     
  20 C20           -3.9959    -3.7485    -6.4299 C.3     
  21 C21           -4.6354    -3.3270    -7.7548 C.3     
  22 N22           -6.0940    -3.2639    -7.5976 N.3     
  23 C23           -6.4771    -2.2631    -6.5936 C.3     
  24 C24           -5.8926    -2.6528    -5.2340 C.3     
  25 C25           -6.7512    -2.9973    -8.8840 C.3     
  26 O26           -0.4898    -3.5389     1.8815 O.2     
  27 N27            1.7034    -4.1627     1.7684 N.am    
  28 C28            2.4503    -3.0457    -0.0795 C.ar    
  29 C29            2.8042    -3.9134     0.9461 C.ar    
  30 C30            3.3740    -2.6514    -1.0214 C.ar    
  31 C31            4.6755    -3.1218    -0.9524 C.ar    
  32 C32            5.0410    -3.9884     0.0665 C.ar    
  33 C33            4.1137    -4.3838     1.0115 C.ar    
  34 F34            6.3094    -4.4483     0.1356 F       
  35 C35            1.3388    -6.7763     2.5498 C.ar    
  36 C36            0.0731    -7.0402     2.0461 C.ar    
  37 C37            2.2807    -7.7852     2.6181 C.ar    
  38 C38            1.9651    -9.0586     2.1850 C.ar    
  39 C39            0.7004    -9.3276     1.6804 C.ar    
  40 C40           -0.2462    -8.3174     1.6112 C.ar    
  41 O41            0.3903   -10.5805     1.2550 O.3     
  42 O42           -0.8528    -6.0477     1.9795 O.3     
  43 C43            1.4144   -11.5720     1.3561 C.3     
  44 C44           -2.1349    -6.3911     1.4500 C.3     
  45 C45           -3.0361    -5.1547     1.4540 C.3     
  46 C46           -8.2622    -3.1847    -8.7334 C.3     
  47 O47            1.3180    -0.7923    -1.9168 O.3     
  48 C48            1.4207     0.1805    -2.9585 C.3     
  49 C49            1.9162    -0.4940    -4.2392 C.3     
  50 F50            3.1298    -1.1421    -3.9855 F       
  51 F51            0.9692    -1.4294    -4.6700 F       
  52 S52            1.7478    -5.1517     3.0959 S.o2    
  53 O53            3.1045    -5.1992     3.5157 O.2     
  54 O54            0.6862    -4.7341     3.9431 O.2     
  55 H55            0.3084    -1.4516     2.4354 H       
  56 H56            0.0172     0.9986     2.7421 H       
  57 H57            0.3555     2.5027     0.8258 H       
  58 H58            0.5482    -2.7125    -1.9864 H       
  59 H59            0.2321    -4.2658    -1.1766 H       
  60 H60           -4.2475    -3.5524    -1.3823 H       
  61 H61           -3.6688    -1.9356    -0.9011 H       
  62 H62           -5.1019    -1.9093    -2.9825 H       
  63 H63           -3.4646    -1.2593    -3.2412 H       
  64 H64           -2.2273    -4.1835    -5.0002 H       
  65 H65           -1.8217    -2.5591    -4.3945 H       
  66 H66           -0.7862    -4.2095    -2.9288 H       
  67 H67           -2.3440    -5.0516    -2.7175 H       
  68 H68           -3.9673    -1.7558    -5.6074 H       
  69 H69           -2.9122    -3.7800    -6.5426 H       
  70 H70           -4.3618    -4.7354    -6.1469 H       
  71 H71           -4.2585    -2.3460    -8.0441 H       
  72 H72           -4.3844    -4.0544    -8.5268 H       
  73 H73           -6.0916    -1.2870    -6.8883 H       
  74 H74           -7.5638    -2.2177    -6.5222 H       
  75 H75           -6.2884    -3.6225    -4.9322 H       
  76 H76           -6.1640    -1.9015    -4.4923 H       
  77 H77           -6.5411    -1.9737    -9.1941 H       
  78 H78           -6.3724    -3.6897    -9.6359 H       
  79 H79            3.0843    -1.9766    -1.8133 H       
  80 H80            4.4050    -5.0587     1.8027 H       
  81 H81            3.2653    -7.5779     3.0105 H       
  82 H82            2.7031    -9.8452     2.2388 H       
  83 H83           -1.2310    -8.5249     1.2192 H       
  84 H84            2.2761   -11.2661     0.7629 H       
  85 H85            1.7118   -11.6820     2.3989 H       
  86 H86            1.0364   -12.5241     0.9837 H       
  87 H87           -2.0207    -6.7541     0.4286 H       
  88 H88           -2.5849    -7.1708     2.0646 H       
  89 H89           -4.0141    -5.4166     1.0501 H       
  90 H90           -3.1503    -4.7916     2.4754 H       
  91 H91           -2.5861    -4.3750     0.8394 H       
  92 H92           -8.4723    -4.2083    -8.4233 H       
  93 H93           -8.6410    -2.4923    -7.9816 H       
  94 H94           -8.7498    -2.9869    -9.6880 H       
  95 H95            0.4421     0.6259    -3.1375 H       
  96 H96            2.1248     0.9578    -2.6615 H       
  97 H97            2.0614     0.2591    -5.0137 H       
@<TRIPOS>BOND
   1    1   31 1
   2    2    3 ar
   3    2    7 ar
   4    3    4 ar
   5    3   47 1
   6    4    5 ar
   7    4    8 1
   8    5    6 ar
   9    5   55 1
  10    6    7 ar
  11    6   56 1
  12    7   57 1
  13    8    9 1
  14    8   10 1
  15    8   28 1
  16    9   26 2
  17    9   27 am
  18   10   11 1
  19   10   58 1
  20   10   59 1
  21   11   12 am
  22   11   13 2
  23   12   14 1
  24   12   18 1
  25   14   15 1
  26   14   60 1
  27   14   61 1
  28   15   16 1
  29   15   62 1
  30   15   63 1
  31   16   17 1
  32   16   19 1
  33   17   18 1
  34   17   64 1
  35   17   65 1
  36   18   66 1
  37   18   67 1
  38   19   20 1
  39   19   24 1
  40   19   68 1
  41   20   21 1
  42   20   69 1
  43   20   70 1
  44   21   22 1
  45   21   71 1
  46   21   72 1
  47   22   23 1
  48   22   25 1
  49   23   24 1
  50   23   73 1
  51   23   74 1
  52   24   75 1
  53   24   76 1
  54   25   46 1
  55   25   77 1
  56   25   78 1
  57   27   52 am
  58   27   29 1
  59   28   29 ar
  60   28   30 ar
  61   29   33 ar
  62   30   31 ar
  63   30   79 1
  64   31   32 ar
  65   32   33 ar
  66   32   34 1
  67   33   80 1
  68   35   36 ar
  69   35   37 ar
  70   35   52 1
  71   36   42 1
  72   36   40 ar
  73   37   38 ar
  74   37   81 1
  75   38   39 ar
  76   38   82 1
  77   39   40 ar
  78   39   41 1
  79   40   83 1
  80   41   43 1
  81   42   44 1
  82   43   84 1
  83   43   85 1
  84   43   86 1
  85   44   45 1
  86   44   87 1
  87   44   88 1
  88   45   89 1
  89   45   90 1
  90   45   91 1
  91   46   92 1
  92   46   93 1
  93   46   94 1
  94   47   48 1
  95   48   49 1
  96   48   95 1
  97   48   96 1
  98   49   50 1
  99   49   51 1
 100   49   97 1
 101   52   53 2
 102   52   54 2

#	End of record

