#	Name: ASD00530009
#	Creating user name:	WinNT
#	Creation time:	15. 06. 2019 18:36

#	Modifying user name:	WinNT
#	Modification time:	15. 06. 2019 18:36

#	Program:	/corina/corina34_cracker 3.40 0067  02.08.2006

@<TRIPOS>MOLECULE
ASD00530009
  50   51    0    0    0
SMALL
NO_CHARGES


@<TRIPOS>ATOM
   1 C1            -0.0187     1.5258     0.0104 C.3     
   2 C2             0.0021    -0.0041     0.0020 C.3     
   3 N3            -1.3723    -0.5112     0.0124 N.am    
   4 S4            -2.1195    -0.9073    -1.4113 S.o2    
   5 O5            -3.5170    -0.8211    -1.1687 O.2     
   6 O6            -1.4604    -0.1674    -2.4298 O.2     
   7 C7            -1.7732    -2.6059    -1.7271 C.2     
   8 C8            -2.5215    -3.6322    -1.3132 C.2     
   9 C9            -2.0574    -4.8792    -1.6781 C.2     
  10 C10           -0.9156    -4.8664    -2.3988 C.2     
  11 S11           -0.3948    -3.2039    -2.6407 S.3     
  12 C12           -0.2175    -6.0590    -2.9079 C.2     
  13 C13            0.9243    -6.0462    -3.6286 C.2     
  14 C14            1.3889    -7.2933    -3.9927 C.2     
  15 C15            0.6410    -8.3196    -3.5782 C.2     
  16 S16           -0.7377    -7.7216    -2.6650 S.3     
  17 S17            0.9874   -10.0182    -3.8938 S.o2    
  18 O18           -0.2522   -10.7057    -3.7941 O.2     
  19 O19            1.8036   -10.0519    -5.0566 O.2     
  20 N20            1.9281   -10.5666    -2.6462 N.am    
  21 C21            1.3007   -11.1411    -1.4534 C.3     
  22 C22            1.2386   -12.6635    -1.5929 C.3     
  23 C23            3.3876   -10.4774    -2.7351 C.3     
  24 C24            3.8631    -9.1960    -2.0473 C.3     
  25 C25           -2.0857    -0.6677     1.2824 C.3     
  26 C26           -2.7298     0.6639     1.6731 C.3     
  27 H27            1.0039     1.9031     0.0027 H       
  28 H28           -0.5459     1.8868    -0.8726 H       
  29 H29           -0.5289     1.8773     0.9072 H       
  30 H30            0.5123    -0.3556    -0.8948 H       
  31 H31            0.5293    -0.3651     0.8851 H       
  32 H32           -3.4235    -3.4957    -0.7351 H       
  33 H33           -2.5665    -5.7927    -1.4085 H       
  34 H34            1.4331    -5.1326    -3.8988 H       
  35 H35            2.2910    -7.4297    -4.5708 H       
  36 H36            1.8878   -10.8806    -0.5728 H       
  37 H37            0.2909   -10.7445    -1.3473 H       
  38 H38            0.7718   -13.0909    -0.7055 H       
  39 H39            0.6515   -12.9240    -2.4735 H       
  40 H40            2.2483   -13.0601    -1.6991 H       
  41 H41            3.8351   -11.3412    -2.2435 H       
  42 H42            3.6874   -10.4600    -3.7829 H       
  43 H43            3.5633    -9.2134    -0.9995 H       
  44 H44            4.9490    -9.1296    -2.1135 H       
  45 H45            3.4156    -8.3323    -2.5390 H       
  46 H46           -2.8597    -1.4275     1.1731 H       
  47 H47           -1.3837    -0.9732     2.0582 H       
  48 H48           -1.9559     1.4237     1.7824 H       
  49 H49           -3.4319     0.9694     0.8972 H       
  50 H50           -3.2606     0.5474     2.6179 H       
@<TRIPOS>BOND
   1    1    2 1
   2    1   27 1
   3    1   28 1
   4    1   29 1
   5    2    3 1
   6    2   30 1
   7    2   31 1
   8    3    4 am
   9    3   25 1
  10    4    5 2
  11    4    6 2
  12    4    7 1
  13    7    8 2
  14    7   11 1
  15    8    9 1
  16    8   32 1
  17    9   10 2
  18    9   33 1
  19   10   11 1
  20   10   12 1
  21   12   13 2
  22   12   16 1
  23   13   14 1
  24   13   34 1
  25   14   15 2
  26   14   35 1
  27   15   16 1
  28   15   17 1
  29   17   18 2
  30   17   19 2
  31   17   20 am
  32   20   21 1
  33   20   23 1
  34   21   22 1
  35   21   36 1
  36   21   37 1
  37   22   38 1
  38   22   39 1
  39   22   40 1
  40   23   24 1
  41   23   41 1
  42   23   42 1
  43   24   43 1
  44   24   44 1
  45   24   45 1
  46   25   26 1
  47   25   46 1
  48   25   47 1
  49   26   48 1
  50   26   49 1
  51   26   50 1

#	End of record

