#	Name: ASD02500171
#	Creating user name:	WinNT
#	Creation time:	15. 06. 2019 20:22

#	Modifying user name:	WinNT
#	Modification time:	15. 06. 2019 20:22

#	Program:	/corina/corina34_cracker 3.40 0067  02.08.2006

@<TRIPOS>MOLECULE
ASD02500171
  61   65    0    0    0
SMALL
NO_CHARGES


@<TRIPOS>ATOM
   1 N1             1.2981     2.2617     3.0750 N.am    
   2 C2             0.7600     1.0930     2.3649 C.3     
   3 C3             0.9706     1.2947     0.8591 C.3     
   4 N4             2.3695     1.6815     0.6283 N.am    
   5 C5             2.9076     2.8502     1.3385 C.3     
   6 C6             2.6970     2.6485     2.8442 C.3     
   7 C7             0.5210     2.9694     3.9186 C.2     
   8 O8            -0.6358     2.6430     4.0976 O.2     
   9 O9             1.0264     4.0384     4.5632 O.3     
  10 C10            3.1452     0.9768    -0.2191 C.2     
  11 C11            4.5066     1.4474    -0.5374 C.ar    
  12 C12            5.5275     0.5242    -0.7822 C.ar    
  13 C13            6.7964     0.9663    -1.0788 C.ar    
  14 C14            7.0641     2.3313    -1.1352 C.ar    
  15 C15            6.0498     3.2532    -0.8914 C.ar    
  16 C16            4.7773     2.8174    -0.6005 C.ar    
  17 O17            2.7228    -0.0469    -0.7214 O.2     
  18 S18            8.5655     4.0023    -2.5251 S.o2    
  19 O19            7.7067     5.0584    -2.1173 O.2     
  20 O20            9.9696     4.1577    -2.6787 O.2     
  21 N21            8.3474     2.7749    -1.4351 N.am    
  22 N22            9.6634     1.7729    -4.2128 N.ar    
  23 C23           10.2606     0.7805    -4.8267 C.ar    
  24 C24            9.8113     0.3020    -6.0557 C.ar    
  25 C25            8.7211     0.8696    -6.6511 C.ar    
  26 C26            8.0820     1.9348    -5.9886 C.ar    
  27 C27            6.9565     2.5681    -6.5390 C.ar    
  28 C28            6.3667     3.5954    -5.8674 C.ar    
  29 C29            6.8650     4.0265    -4.6398 C.ar    
  30 C30            7.9548     3.4358    -4.0777 C.ar    
  31 C31            8.5915     2.3724    -4.7408 C.ar    
  32 C32            0.1643     4.7659     5.3224 C.ar    
  33 C33           -0.3738     4.2195     6.4781 C.ar    
  34 C34           -1.2492     4.9598     7.2488 C.ar    
  35 C35           -1.5894     6.2468     6.8680 C.ar    
  36 C36           -1.0533     6.7933     5.7143 C.ar    
  37 C37           -0.1733     6.0572     4.9449 C.ar    
  38 F38           -2.4456     6.9699     7.6226 F       
  39 H39            1.2837     0.1941     2.6903 H       
  40 H40           -0.3050     0.9954     2.5754 H       
  41 H41            0.7564     0.3650     0.3320 H       
  42 H42            0.3091     2.0828     0.4996 H       
  43 H43            3.9727     2.9479     1.1279 H       
  44 H44            2.3840     3.7491     1.0131 H       
  45 H45            2.9112     3.5782     3.3714 H       
  46 H46            3.3586     1.8604     3.2038 H       
  47 H47            5.3205    -0.5349    -0.7382 H       
  48 H48            7.5856     0.2536    -1.2676 H       
  49 H49            6.2607     4.3115    -0.9352 H       
  50 H50            3.9896     3.5331    -0.4165 H       
  51 H51            9.1148     2.3653    -1.0059 H       
  52 H52           11.1239     0.3219    -4.3678 H       
  53 H53           10.3250    -0.5169    -6.5374 H       
  54 H54            8.3595     0.5116    -7.6037 H       
  55 H55            6.5608     2.2427    -7.4898 H       
  56 H56            5.5009     4.0821    -6.2915 H       
  57 H57            6.3800     4.8438    -4.1270 H       
  58 H58           -0.1089     3.2155     6.7752 H       
  59 H59           -1.6686     4.5345     8.1486 H       
  60 H60           -1.3200     7.7970     5.4180 H       
  61 H61            0.2485     6.4854     4.0476 H       
@<TRIPOS>BOND
   1    1    2 1
   2    1    6 1
   3    1    7 am
   4    2    3 1
   5    2   39 1
   6    2   40 1
   7    3    4 1
   8    3   41 1
   9    3   42 1
  10    4    5 1
  11    4   10 am
  12    5    6 1
  13    5   43 1
  14    5   44 1
  15    6   45 1
  16    6   46 1
  17    7    8 2
  18    7    9 1
  19    9   32 1
  20   10   11 1
  21   10   17 2
  22   11   12 ar
  23   11   16 ar
  24   12   13 ar
  25   12   47 1
  26   13   14 ar
  27   13   48 1
  28   14   15 ar
  29   14   21 1
  30   15   16 ar
  31   15   49 1
  32   16   50 1
  33   18   19 2
  34   18   20 2
  35   18   21 am
  36   18   30 1
  37   21   51 1
  38   22   23 ar
  39   22   31 ar
  40   23   24 ar
  41   23   52 1
  42   24   25 ar
  43   24   53 1
  44   25   26 ar
  45   25   54 1
  46   26   27 ar
  47   26   31 ar
  48   27   28 ar
  49   27   55 1
  50   28   29 ar
  51   28   56 1
  52   29   30 ar
  53   29   57 1
  54   30   31 ar
  55   32   33 ar
  56   32   37 ar
  57   33   34 ar
  58   33   58 1
  59   34   35 ar
  60   34   59 1
  61   35   36 ar
  62   35   38 1
  63   36   37 ar
  64   36   60 1
  65   37   61 1

#	End of record

