#	Name: ASD02401003
#	Creating user name:	WinNT
#	Creation time:	15. 06. 2019 20:20

#	Modifying user name:	WinNT
#	Modification time:	15. 06. 2019 20:20

#	Program:	/corina/corina34_cracker 3.40 0067  02.08.2006

@<TRIPOS>MOLECULE
ASD02401003
  31   32    0    0    0
SMALL
NO_CHARGES


@<TRIPOS>ATOM
   1 C1            -0.0168     1.3891     0.0097 C.ar    
   2 C2             0.0021    -0.0041     0.0020 C.ar    
   3 C3            -1.1918    -0.7102     0.0096 C.ar    
   4 C4            -2.3959    -0.0311     0.0247 C.ar    
   5 C5            -2.4137     1.3511     0.0318 C.ar    
   6 C6            -1.2272     2.0617     0.0306 C.ar    
   7 C7            -3.7295     2.0856     0.0478 C.3     
   8 C8            -4.1549     2.3232     1.4738 C.ar    
   9 C9            -3.7654     3.4782     2.1259 C.ar    
  10 C10           -4.1531     3.7017     3.4339 C.ar    
  11 C11           -4.9347     2.7656     4.0948 C.ar    
  12 C12           -5.3268     1.6017     3.4367 C.ar    
  13 C13           -4.9386     1.3878     2.1247 C.ar    
  14 O14            1.1507     2.0868     0.0023 O.3     
  15 O15           -6.0928     0.6800     4.0799 O.3     
  16 N16           -5.3280     2.9893     5.4192 N.pl3   
  17 N17            1.2224    -0.6892    -0.0137 N.pl3   
  18 H18           -1.1807    -1.7901     0.0033 H       
  19 H19           -3.3249    -0.5819     0.0306 H       
  20 H20           -1.2446     3.1416     0.0366 H       
  21 H21           -3.6177     3.0423    -0.4623 H       
  22 H22           -4.4853     1.4881    -0.4621 H       
  23 H23           -3.1565     4.2075     1.6124 H       
  24 H24           -3.8471     4.6047     3.9412 H       
  25 H25           -5.2411     0.4866     1.6123 H       
  26 H26            1.4799     2.2933    -0.8832 H       
  27 H27           -7.0443     0.8209     3.9802 H       
  28 H28           -5.0541     3.7999     5.8762 H       
  29 H29           -5.8746     2.3338     5.8802 H       
  30 H30            2.0566    -0.1941    -0.0193 H       
  31 H31            1.2341    -1.6591    -0.0191 H       
@<TRIPOS>BOND
   1    1    2 ar
   2    1   14 1
   3    1    6 ar
   4    2    3 ar
   5    2   17 1
   6    3    4 ar
   7    3   18 1
   8    4    5 ar
   9    4   19 1
  10    5    6 ar
  11    5    7 1
  12    6   20 1
  13    7    8 1
  14    7   21 1
  15    7   22 1
  16    8    9 ar
  17    8   13 ar
  18    9   10 ar
  19    9   23 1
  20   10   11 ar
  21   10   24 1
  22   11   12 ar
  23   11   16 1
  24   12   13 ar
  25   12   15 1
  26   13   25 1
  27   14   26 1
  28   15   27 1
  29   16   28 1
  30   16   29 1
  31   17   30 1
  32   17   31 1

#	End of record

