#	Name: ASD01908118
#	Creating user name:	WinNT
#	Creation time:	15. 06. 2019 19:54

#	Modifying user name:	WinNT
#	Modification time:	15. 06. 2019 19:54

#	Program:	/corina/corina34_cracker 3.40 0067  02.08.2006

@<TRIPOS>MOLECULE
ASD01908118
  43   46    0    0    0
SMALL
NO_CHARGES


@<TRIPOS>ATOM
   1 C1            -0.0173     1.3861     0.0216 C.ar    
   2 C2             1.1711     2.1094     0.0076 C.ar    
   3 C3             2.3740     1.4268     0.0162 C.ar    
   4 C4             2.3481     0.0384     0.0386 C.ar    
   5 C5             1.1322    -0.6150     0.0515 C.ar    
   6 N6            -0.0002     0.0623     0.0429 N.ar    
   7 N7            -1.2345     2.0600     0.0191 N.pl3   
   8 S8            -2.5475    -0.3870    -0.3562 S.3     
   9 C9            -2.4213     1.3484    -0.0840 C.2     
  10 N10           -3.6113     1.8574     0.0057 N.2     
  11 C11           -4.6338     1.0217    -0.1178 C.2     
  12 C12           -4.3051    -0.2651    -0.3230 C.2     
  13 Cl13          -5.4202    -1.5806    -0.5221 Cl      
  14 N14           -7.8529     2.5711     0.5413 N.pl3   
  15 N15           -8.2064     1.6151    -0.4186 N.2     
  16 C16           -7.1309     0.9585    -0.7662 C.2     
  17 C17           -6.0454     1.4768    -0.0344 C.2     
  18 C18           -6.5249     2.4724     0.7648 C.2     
  19 C19           -8.7648     3.5188     1.1868 C.3     
  20 C20           -9.4944     4.3112     0.1328 C.ar    
  21 C21          -10.6978     3.8498    -0.3678 C.ar    
  22 C22          -11.3686     4.5743    -1.3340 C.ar    
  23 C23          -10.8337     5.7658    -1.8020 C.ar    
  24 C24           -9.6261     6.2266    -1.2980 C.ar    
  25 C25           -8.9620     5.5012    -0.3278 C.ar    
  26 O26          -11.4914     6.4801    -2.7528 O.3     
  27 C27          -10.8817     7.6972    -3.1874 C.3     
  28 H28            1.1546     3.1891    -0.0100 H       
  29 H29            3.3124     1.9614     0.0054 H       
  30 H30            3.2699    -0.5244     0.0455 H       
  31 H31            1.1074    -1.6946     0.0686 H       
  32 H32           -1.2536     3.0273     0.0893 H       
  33 H33           -7.0833     0.1574    -1.4889 H       
  34 H34           -5.9472     3.0731     1.4516 H       
  35 H35           -9.4859     2.9725     1.7947 H       
  36 H36           -8.1945     4.1971     1.8214 H       
  37 H37          -11.1136     2.9220    -0.0035 H       
  38 H38          -12.3084     4.2133    -1.7250 H       
  39 H39           -9.2077     7.1538    -1.6607 H       
  40 H40           -8.0243     5.8619     0.0682 H       
  41 H41          -10.7714     8.3718    -2.3383 H       
  42 H42           -9.9004     7.4814    -3.6098 H       
  43 H43          -11.5083     8.1670    -3.9456 H       
@<TRIPOS>BOND
   1    1    2 ar
   2    1    6 ar
   3    1    7 1
   4    2    3 ar
   5    2   28 1
   6    3    4 ar
   7    3   29 1
   8    4    5 ar
   9    4   30 1
  10    5    6 ar
  11    5   31 1
  12    7    9 1
  13    7   32 1
  14    8    9 1
  15    8   12 1
  16    9   10 2
  17   10   11 1
  18   11   12 2
  19   11   17 1
  20   12   13 1
  21   14   15 1
  22   14   18 1
  23   14   19 1
  24   15   16 2
  25   16   17 1
  26   16   33 1
  27   17   18 2
  28   18   34 1
  29   19   20 1
  30   19   35 1
  31   19   36 1
  32   20   21 ar
  33   20   25 ar
  34   21   22 ar
  35   21   37 1
  36   22   23 ar
  37   22   38 1
  38   23   24 ar
  39   23   26 1
  40   24   25 ar
  41   24   39 1
  42   25   40 1
  43   26   27 1
  44   27   41 1
  45   27   42 1
  46   27   43 1

#	End of record

