#	Name: ASD01910084
#	Creating user name:	WinNT
#	Creation time:	15. 06. 2019 19:55

#	Modifying user name:	WinNT
#	Modification time:	15. 06. 2019 19:55

#	Program:	/corina/corina34_cracker 3.40 0067  02.08.2006

@<TRIPOS>MOLECULE
ASD01910084
  25   26    0    0    0
SMALL
NO_CHARGES


@<TRIPOS>ATOM
   1 C1            -0.0158     1.3144     0.0093 C.ar    
   2 N2             0.0021    -0.0041     0.0020 N.ar    
   3 C3             1.1439    -0.6688    -0.0124 C.ar    
   4 C4             2.3462     0.0505    -0.0200 C.ar    
   5 C5             2.2776     1.4498    -0.0119 C.ar    
   6 N6             1.0910     2.0310     0.0025 N.ar    
   7 C7             3.6087    -0.6251    -0.0352 C.1     
   8 C8             4.6438    -1.1789    -0.0477 C.1     
   9 C9             5.9063    -1.8545    -0.0629 C.ar    
  10 C10            7.0953    -1.1205    -0.0703 C.ar    
  11 C11            8.3076    -1.7780    -0.0849 C.ar    
  12 C12            8.3482    -3.1612    -0.0923 C.ar    
  13 C13            7.1749    -3.8948    -0.0856 C.ar    
  14 C14            5.9553    -3.2510    -0.0646 C.ar    
  15 C15            9.6769    -3.8722    -0.1084 C.3     
  16 H16           -0.9680     1.8239     0.0165 H       
  17 H17            1.1503    -1.7488    -0.0179 H       
  18 H18            3.1797     2.0437    -0.0169 H       
  19 H19            7.0651    -0.0409    -0.0649 H       
  20 H20            9.2274    -1.2120    -0.0910 H       
  21 H21            7.2143    -4.9740    -0.0918 H       
  22 H22            5.0404    -3.8248    -0.0590 H       
  23 H23           10.0068    -4.0488     0.9153 H       
  24 H24            9.5725    -4.8257    -0.6261 H       
  25 H25           10.4123    -3.2563    -0.6260 H       
@<TRIPOS>BOND
   1    1    2 ar
   2    1    6 ar
   3    1   16 1
   4    2    3 ar
   5    3    4 ar
   6    3   17 1
   7    4    5 ar
   8    4    7 1
   9    5    6 ar
  10    5   18 1
  11    7    8 3
  12    8    9 1
  13    9   10 ar
  14    9   14 ar
  15   10   11 ar
  16   10   19 1
  17   11   12 ar
  18   11   20 1
  19   12   13 ar
  20   12   15 1
  21   13   14 ar
  22   13   21 1
  23   14   22 1
  24   15   23 1
  25   15   24 1
  26   15   25 1

#	End of record

