#	Name: ASD01420117
#	Creating user name:	WinNT
#	Creation time:	15. 06. 2019 19:20

#	Modifying user name:	WinNT
#	Modification time:	15. 06. 2019 19:20

#	Program:	/corina/corina34_cracker 3.40 0067  02.08.2006

@<TRIPOS>MOLECULE
ASD01420117
  65   69    0    0    0
SMALL
NO_CHARGES


@<TRIPOS>ATOM
   1 C1            -0.0144     1.2120     0.0087 C.2     
   2 O2             0.2424     0.1772     0.5938 O.2     
   3 C3             2.3278     1.3992    -0.8858 C.3     
   4 N4             0.9262     1.8083    -0.7503 N.am    
   5 C5             0.7437     2.9900    -1.5991 C.3     
   6 C6             2.0672     3.2919    -2.2554 C.ar    
   7 C7             2.4396     4.2890    -3.1404 C.ar    
   8 C8             3.7395     4.3522    -3.6065 C.ar    
   9 C9             4.6695     3.4177    -3.1873 C.ar    
  10 C10            4.2978     2.4232    -2.3038 C.ar    
  11 C11            2.9958     2.3594    -1.8373 C.ar    
  12 Br12           4.2459     5.7144    -4.8164 Br      
  13 C13           -1.3558     1.8105     0.1248 C.ar    
  14 C14           -2.4979     0.9968     0.0519 C.ar    
  15 C15           -3.7586     1.5597     0.1605 C.ar    
  16 C16           -3.8980     2.9256     0.3412 C.ar    
  17 C17           -2.7614     3.7462     0.4157 C.ar    
  18 C18           -1.4934     3.1863     0.3131 C.ar    
  19 C19           -2.9128     5.2031     0.6081 C.2     
  20 C20           -3.3069     5.9678    -0.4012 C.2     
  21 C21           -2.6194     5.8202     1.9512 C.3     
  22 O22           -5.1352     3.4717     0.4461 O.3     
  23 C23           -6.2478     2.5789     0.3612 C.3     
  24 C24           -7.5297     3.3593     0.4977 C.ar    
  25 C25           -8.1504     3.8710    -0.6265 C.ar    
  26 C26           -9.3263     4.5869    -0.5013 C.ar    
  27 C27           -9.8817     4.7908     0.7480 C.ar    
  28 C28           -9.2615     4.2784     1.8721 C.ar    
  29 C29           -8.0879     3.5587     1.7465 C.ar    
  30 O30           -2.3664    -0.3414    -0.1255 O.3     
  31 C31           -3.5701    -1.1086    -0.1906 C.3     
  32 C32           -3.2288    -2.5630    -0.3891 C.ar    
  33 C33           -3.0383    -3.3840     0.7066 C.ar    
  34 C34           -2.7251    -4.7180     0.5246 C.ar    
  35 C35           -2.6028    -5.2312    -0.7532 C.ar    
  36 C36           -2.7942    -4.4104    -1.8489 C.ar    
  37 C37           -3.1117    -3.0773    -1.6668 C.ar    
  38 H38            2.8200     1.4396     0.0859 H       
  39 H39            2.3801     0.3865    -1.2856 H       
  40 H40           -0.0082     2.7850    -2.3611 H       
  41 H41            0.4317     3.8380    -0.9896 H       
  42 H42            1.7134     5.0185    -3.4675 H       
  43 H43            5.6854     3.4656    -3.5508 H       
  44 H44            5.0239     1.6937    -1.9767 H       
  45 H45           -4.6354     0.9317     0.1037 H       
  46 H46           -0.6173     3.8148     0.3745 H       
  47 H47           -3.4175     7.0329    -0.2606 H       
  48 H48           -3.5171     5.5255    -1.3638 H       
  49 H49           -2.3115     5.0418     2.6493 H       
  50 H50           -1.8188     6.5526     1.8475 H       
  51 H51           -3.5157     6.3127     2.3284 H       
  52 H52           -6.2328     2.0704    -0.6028 H       
  53 H53           -6.1841     1.8419     1.1618 H       
  54 H54           -7.7165     3.7117    -1.6026 H       
  55 H55           -9.8109     4.9872    -1.3796 H       
  56 H56          -10.8000     5.3507     0.8459 H       
  57 H57           -9.6952     4.4379     2.8482 H       
  58 H58           -7.6053     3.1552     2.6244 H       
  59 H59           -4.1275    -0.9898     0.7385 H       
  60 H60           -4.1779    -0.7608    -1.0259 H       
  61 H61           -3.1337    -2.9831     1.7049 H       
  62 H62           -2.5755    -5.3593     1.3806 H       
  63 H63           -2.3575    -6.2733    -0.8954 H       
  64 H64           -2.6984    -4.8112    -2.8472 H       
  65 H65           -3.2649    -2.4369    -2.5229 H       
@<TRIPOS>BOND
   1    1    2 2
   2    1    4 am
   3    1   13 1
   4    3    4 1
   5    3   11 1
   6    3   38 1
   7    3   39 1
   8    4    5 1
   9    5    6 1
  10    5   40 1
  11    5   41 1
  12    6    7 ar
  13    6   11 ar
  14    7    8 ar
  15    7   42 1
  16    8    9 ar
  17    8   12 1
  18    9   10 ar
  19    9   43 1
  20   10   11 ar
  21   10   44 1
  22   13   14 ar
  23   13   18 ar
  24   14   15 ar
  25   14   30 1
  26   15   16 ar
  27   15   45 1
  28   16   17 ar
  29   16   22 1
  30   17   18 ar
  31   17   19 1
  32   18   46 1
  33   19   20 2
  34   19   21 1
  35   20   47 1
  36   20   48 1
  37   21   49 1
  38   21   50 1
  39   21   51 1
  40   22   23 1
  41   23   24 1
  42   23   52 1
  43   23   53 1
  44   24   25 ar
  45   24   29 ar
  46   25   26 ar
  47   25   54 1
  48   26   27 ar
  49   26   55 1
  50   27   28 ar
  51   27   56 1
  52   28   29 ar
  53   28   57 1
  54   29   58 1
  55   30   31 1
  56   31   32 1
  57   31   59 1
  58   31   60 1
  59   32   33 ar
  60   32   37 ar
  61   33   34 ar
  62   33   61 1
  63   34   35 ar
  64   34   62 1
  65   35   36 ar
  66   35   63 1
  67   36   37 ar
  68   36   64 1
  69   37   65 1

#	End of record

