#	Name: ASD00960217
#	Creating user name:	WinNT
#	Creation time:	15. 06. 2019 18:53

#	Modifying user name:	WinNT
#	Modification time:	15. 06. 2019 18:53

#	Program:	/corina/corina34_cracker 3.40 0067  02.08.2006

@<TRIPOS>MOLECULE
ASD00960217
  34   36    0    0    0
SMALL
NO_CHARGES


@<TRIPOS>ATOM
   1 C1             0.2300     1.4542    -0.1799 C.2     
   2 C2             0.3156     0.0657    -0.2632 C.2     
   3 N3             1.4934     1.9561    -0.0507 N.pl3   
   4 C4             2.3827     0.9060    -0.0506 C.2     
   5 C5             1.6577    -0.2773    -0.1827 C.2     
   6 N6             1.9971     3.2585     0.0722 N.2     
   7 C7             3.2842     3.4537     0.1834 C.2     
   8 N8             4.1549     2.4480     0.1849 N.2     
   9 C9             3.7608     1.1900     0.0733 C.2     
  10 N10            4.6865     0.1657     0.0783 N.pl3   
  11 N11            2.1874    -1.5762    -0.2253 N.pl3   
  12 C12           -0.9650     2.2164    -0.2273 C.2     
  13 O13           -2.0388     1.6572    -0.3503 O.2     
  14 O14           -0.9113     3.5618    -0.1359 O.3     
  15 C15           -2.1536     4.2659    -0.1910 C.3     
  16 C16           -1.8975     5.7464    -0.0745 C.ar    
  17 C17           -1.6837     6.5024    -1.2119 C.ar    
  18 C18           -1.4488     7.8604    -1.1050 C.ar    
  19 C19           -1.4281     8.4625     0.1391 C.ar    
  20 C20           -1.6428     7.7067     1.2764 C.ar    
  21 C21           -1.8821     6.3494     1.1693 C.ar    
  22 H22           -0.5125    -0.6191    -0.3706 H       
  23 H23            3.6533     4.4644     0.2767 H       
  24 H24            5.6345     0.3686     0.0458 H       
  25 H25            4.3889    -0.7568     0.1143 H       
  26 H26            3.1472    -1.7071    -0.2763 H       
  27 H27            1.5938    -2.3430    -0.2038 H       
  28 H28           -2.6484     4.0562    -1.1393 H       
  29 H29           -2.7917     3.9417     0.6312 H       
  30 H30           -1.6999     6.0320    -2.1839 H       
  31 H31           -1.2810     8.4510    -1.9936 H       
  32 H32           -1.2438     9.5234     0.2226 H       
  33 H33           -1.6263     8.1770     2.2485 H       
  34 H34           -2.0535     5.7595     2.0576 H       
@<TRIPOS>BOND
   1    1    2 2
   2    1    3 1
   3    1   12 1
   4    2    5 1
   5    2   22 1
   6    3    4 1
   7    3    6 1
   8    4    5 2
   9    4    9 1
  10    5   11 1
  11    6    7 2
  12    7    8 1
  13    7   23 1
  14    8    9 2
  15    9   10 1
  16   10   24 1
  17   10   25 1
  18   11   26 1
  19   11   27 1
  20   12   13 2
  21   12   14 1
  22   14   15 1
  23   15   16 1
  24   15   28 1
  25   15   29 1
  26   16   17 ar
  27   16   21 ar
  28   17   18 ar
  29   17   30 1
  30   18   19 ar
  31   18   31 1
  32   19   20 ar
  33   19   32 1
  34   20   21 ar
  35   20   33 1
  36   21   34 1

#	End of record

