#	Name: ASD03430484
#	Creating user name:	WinNT
#	Creation time:	15. 06. 2019 20:41

#	Modifying user name:	WinNT
#	Modification time:	15. 06. 2019 20:41

#	Program:	/corina/corina34_cracker 3.40 0067  02.08.2006

@<TRIPOS>MOLECULE
ASD03430484
  19   20    0    0    0
SMALL
NO_CHARGES


@<TRIPOS>ATOM
   1 C1            -0.0173     1.4248     0.0099 C.3     
   2 O2             0.0021    -0.0041     0.0020 O.3     
   3 O3             2.1293     2.2064     1.0959 O.3     
   4 C4             1.3965     1.9464    -0.0008 C.2     
   5 C5             2.1057     2.2179    -1.1049 C.2     
   6 C6             3.4145     2.6960    -0.6434 C.ar    
   7 C7             3.3535     2.6607     0.7593 C.ar    
   8 C8             4.5752     3.1288    -1.2832 C.ar    
   9 C9             5.6548     3.5192    -0.5400 C.ar    
  10 C10            5.6025     3.4873     0.8456 C.ar    
  11 C11            4.4617     3.0628     1.4975 C.ar    
  12 F12            4.4228     3.0361     2.8477 F       
  13 H13           -0.5445     1.7859    -0.8732 H       
  14 H14           -0.5275     1.7763     0.9067 H       
  15 H15           -0.8759    -0.4094     0.0082 H       
  16 H16            1.7800     2.1068    -2.1286 H       
  17 H17            4.6217     3.1554    -2.3619 H       
  18 H18            6.5541     3.8542    -1.0354 H       
  19 H19            6.4624     3.7984     1.4204 H       
@<TRIPOS>BOND
   1    1    2 1
   2    1    4 1
   3    1   13 1
   4    1   14 1
   5    2   15 1
   6    3    4 1
   7    3    7 1
   8    4    5 2
   9    5    6 1
  10    5   16 1
  11    6    7 ar
  12    6    8 ar
  13    7   11 ar
  14    8    9 ar
  15    8   17 1
  16    9   10 ar
  17    9   18 1
  18   10   11 ar
  19   10   19 1
  20   11   12 1

#	End of record

