#	Name: ASD01001005
#	Creating user name:	WinNT
#	Creation time:	15. 06. 2019 18:54

#	Modifying user name:	WinNT
#	Modification time:	15. 06. 2019 18:54

#	Program:	/corina/corina34_cracker 3.40 0067  02.08.2006

@<TRIPOS>MOLECULE
ASD01001005
  69   72    0    0    0
SMALL
NO_CHARGES


@<TRIPOS>ATOM
   1 C1             1.4552     0.8606     2.1945 C.ar    
   2 C2             1.6456    -0.4138     1.6939 C.ar    
   3 C3             0.6325     1.7493     1.5279 C.ar    
   4 C4             1.0133    -0.7995     0.5268 C.ar    
   5 C5             0.0002     1.3636     0.3608 C.ar    
   6 C6             0.1902     0.0890    -0.1395 C.ar    
   7 C7             1.2216    -2.1884    -0.0195 C.3     
   8 C8             0.6503    -2.2717    -1.4115 C.ar    
   9 C9             2.6964    -2.4953    -0.0627 C.ar    
  10 S10            0.3849    -3.3908     1.0504 S.3     
  11 C11            1.0701    -1.3847    -2.3851 C.ar    
  12 C12           -0.2894    -3.2386    -1.7163 C.ar    
  13 C13            3.1325    -3.8016     0.0665 C.ar    
  14 C14            3.6087    -1.4703    -0.2369 C.ar    
  15 C15            0.5460    -1.4610    -3.6620 C.ar    
  16 C16           -0.8135    -3.3150    -2.9932 C.ar    
  17 C17            4.4820    -4.0883     0.0277 C.ar    
  18 C18            4.9605    -1.7456    -0.2771 C.ar    
  19 C19           -0.3976    -2.4246    -3.9654 C.ar    
  20 C20            5.4057    -3.0590    -0.1419 C.ar    
  21 C21           -1.3115    -2.7534     1.1319 C.3     
  22 C22           -2.1283    -3.6008     2.1095 C.3     
  23 N23           -1.5876    -3.4412     3.4660 N.3     
  24 C24            6.8579    -3.3611    -0.1839 C.ar    
  25 C25            7.3031    -4.6745    -0.0486 C.ar    
  26 C26            8.6549    -4.9498    -0.0889 C.ar    
  27 C27            9.5672    -3.9248    -0.2632 C.ar    
  28 C28            9.1308    -2.6192    -0.3980 C.ar    
  29 C29            7.7810    -2.3331    -0.3645 C.ar    
  30 C30           11.0420    -4.2316    -0.3059 C.3     
  31 C31           11.3309    -5.1869    -1.4655 C.3     
  32 C32           11.8273    -2.9339    -0.5064 C.3     
  33 C33           11.4652    -4.8855     1.0111 C.3     
  34 C34           -3.5660    -3.1497     2.0855 C.2     
  35 O35           -3.9846    -2.4193     2.9522 O.2     
  36 O36           -4.3816    -3.5593     1.1012 O.3     
  37 H37            1.9457     1.1605     3.1088 H       
  38 H38            2.2887    -1.1079     2.2145 H       
  39 H39            0.4835     2.7448     1.9192 H       
  40 H40           -0.6431     2.0576    -0.1596 H       
  41 H41           -0.3033    -0.2121    -1.0518 H       
  42 H42            1.8073    -0.6319    -2.1481 H       
  43 H43           -0.6139    -3.9346    -0.9569 H       
  44 H44            2.4157    -4.5986     0.1982 H       
  45 H45            3.2625    -0.4527    -0.3419 H       
  46 H46            0.8734    -0.7676    -4.4225 H       
  47 H47           -1.5474    -4.0706    -3.2313 H       
  48 H48            4.8214    -5.1086     0.1290 H       
  49 H49            5.6720    -0.9445    -0.4128 H       
  50 H50           -0.8073    -2.4840    -4.9629 H       
  51 H51           -1.2948    -1.7187     1.4741 H       
  52 H52           -1.7656    -2.8015     0.1422 H       
  53 H53           -2.0716    -4.6492     1.8168 H       
  54 H54           -0.6451    -3.7966     3.5237 H       
  55 H55           -1.6292    -2.4771     3.7607 H       
  56 H56            6.5917    -5.4755     0.0878 H       
  57 H57            9.0011    -5.9674     0.0161 H       
  58 H58            9.8474    -1.8226    -0.5334 H       
  59 H59            7.4413    -1.3133    -0.4698 H       
  60 H60           11.0294    -4.7211    -2.4037 H       
  61 H61           12.3976    -5.4088    -1.4964 H       
  62 H62           10.7714    -6.1114    -1.3227 H       
  63 H63           11.6215    -2.2533     0.3198 H       
  64 H64           12.8940    -3.1558    -0.5373 H       
  65 H65           11.5258    -2.4681    -1.4446 H       
  66 H66           10.9058    -5.8100     1.1539 H       
  67 H67           12.5320    -5.1074     0.9802 H       
  68 H68           11.2595    -4.2049     1.8372 H       
  69 H69           -5.2952    -3.2437     1.1282 H       
@<TRIPOS>BOND
   1    1    2 ar
   2    1    3 ar
   3    1   37 1
   4    2    4 ar
   5    2   38 1
   6    3    5 ar
   7    3   39 1
   8    4    6 ar
   9    4    7 1
  10    5    6 ar
  11    5   40 1
  12    6   41 1
  13    7    8 1
  14    7    9 1
  15    7   10 1
  16    8   11 ar
  17    8   12 ar
  18    9   13 ar
  19    9   14 ar
  20   10   21 1
  21   11   15 ar
  22   11   42 1
  23   12   16 ar
  24   12   43 1
  25   13   17 ar
  26   13   44 1
  27   14   18 ar
  28   14   45 1
  29   15   19 ar
  30   15   46 1
  31   16   19 ar
  32   16   47 1
  33   17   20 ar
  34   17   48 1
  35   18   20 ar
  36   18   49 1
  37   19   50 1
  38   20   24 1
  39   21   22 1
  40   21   51 1
  41   21   52 1
  42   22   23 1
  43   22   34 1
  44   22   53 1
  45   23   54 1
  46   23   55 1
  47   24   25 ar
  48   24   29 ar
  49   25   26 ar
  50   25   56 1
  51   26   27 ar
  52   26   57 1
  53   27   28 ar
  54   27   30 1
  55   28   29 ar
  56   28   58 1
  57   29   59 1
  58   30   31 1
  59   30   32 1
  60   30   33 1
  61   31   60 1
  62   31   61 1
  63   31   62 1
  64   32   63 1
  65   32   64 1
  66   32   65 1
  67   33   66 1
  68   33   67 1
  69   33   68 1
  70   34   35 2
  71   34   36 1
  72   36   69 1

#	End of record

