#	Name: ASD01884198
#	Creating user name:	WinNT
#	Creation time:	15. 06. 2019 19:47

#	Modifying user name:	WinNT
#	Modification time:	15. 06. 2019 19:47

#	Program:	/corina/corina34_cracker 3.40 0067  02.08.2006

@<TRIPOS>MOLECULE
ASD01884198
  51   55    0    0    0
SMALL
NO_CHARGES


@<TRIPOS>ATOM
   1 S1            -0.0219     1.7672     0.0118 S.3     
   2 C2             0.0021    -0.0041     0.0020 C.2     
   3 N3             1.2907    -0.3577    -0.0122 N.am    
   4 C4             2.2519     0.6365    -0.0160 C.ar    
   5 C5             1.7391     1.9357    -0.0042 C.ar    
   6 C6             2.5666     3.0413    -0.0061 C.ar    
   7 C7             3.9491     2.8718    -0.0202 C.ar    
   8 C8             4.4761     1.5802    -0.0322 C.ar    
   9 C9             3.6480     0.4853    -0.0309 C.ar    
  10 O10           -0.9607    -0.7487     0.0076 O.2     
  11 C11            4.8501     4.0505    -0.0230 C.ar    
  12 C12            6.2326     3.8740    -0.0371 C.ar    
  13 C13            7.0659     4.9739    -0.0396 C.ar    
  14 C14            6.5315     6.2499    -0.0280 C.ar    
  15 C15            5.1604     6.4309    -0.0140 C.ar    
  16 C16            4.3173     5.3379    -0.0172 C.ar    
  17 C17            1.6774    -1.7707    -0.0230 C.3     
  18 C18            1.7987    -2.2552    -1.4692 C.3     
  19 C19            2.3095    -3.6794    -1.6966 C.3     
  20 C20            0.8340    -3.3493    -1.9309 C.3     
  21 F21            3.1072    -3.9074    -2.8230 F       
  22 F22            2.6298    -4.4390    -0.5662 F       
  23 C23            8.5609     4.7848    -0.0544 C.3     
  24 N24            9.0338     4.7300    -1.4441 N.3     
  25 C25           10.5017     4.7847    -1.5036 C.3     
  26 C26           10.9528     4.6649    -2.9618 C.3     
  27 O27           10.3406     5.7031    -3.7317 O.3     
  28 C28            8.9111     5.6794    -3.6965 C.3     
  29 C29            8.4394     5.8094    -2.2459 C.3     
  30 H30            2.1429     4.0347     0.0029 H       
  31 H31            5.5469     1.4402    -0.0435 H       
  32 H32            4.0761    -0.5062    -0.0403 H       
  33 H33            6.6508     2.8784    -0.0458 H       
  34 H34            7.1874     7.1080    -0.0297 H       
  35 H35            4.7486     7.4293    -0.0047 H       
  36 H36            3.2468     5.4803    -0.0107 H       
  37 H37            2.6364    -1.8888     0.4814 H       
  38 H38            0.9197    -2.3588     0.4949 H       
  39 H39            2.0846    -1.4958    -2.1970 H       
  40 H40            0.1129    -3.7239    -1.2044 H       
  41 H41            0.4849    -3.3098    -2.9627 H       
  42 H42            9.0379     5.6197     0.4591 H       
  43 H43            8.8144     3.8538     0.4527 H       
  44 H44           10.8476     5.7330    -1.0924 H       
  45 H45           10.9204     3.9617    -0.9244 H       
  46 H46           12.0370     4.7622    -3.0165 H       
  47 H47           10.6534     3.6941    -3.3568 H       
  48 H48            8.5188     6.5104    -4.2827 H       
  49 H49            8.5524     4.7380    -4.1129 H       
  50 H50            7.3526     5.7344    -2.2084 H       
  51 H51            8.7523     6.7741    -1.8465 H       
@<TRIPOS>BOND
   1    1    2 1
   2    1    5 1
   3    2    3 am
   4    2   10 2
   5    3    4 1
   6    3   17 1
   7    4    5 ar
   8    4    9 ar
   9    5    6 ar
  10    6    7 ar
  11    6   30 1
  12    7    8 ar
  13    7   11 1
  14    8    9 ar
  15    8   31 1
  16    9   32 1
  17   11   12 ar
  18   11   16 ar
  19   12   13 ar
  20   12   33 1
  21   13   14 ar
  22   13   23 1
  23   14   15 ar
  24   14   34 1
  25   15   16 ar
  26   15   35 1
  27   16   36 1
  28   17   18 1
  29   17   37 1
  30   17   38 1
  31   18   19 1
  32   18   20 1
  33   18   39 1
  34   19   20 1
  35   19   21 1
  36   19   22 1
  37   20   40 1
  38   20   41 1
  39   23   24 1
  40   23   42 1
  41   23   43 1
  42   24   25 1
  43   24   29 1
  44   25   26 1
  45   25   44 1
  46   25   45 1
  47   26   27 1
  48   26   46 1
  49   26   47 1
  50   27   28 1
  51   28   29 1
  52   28   48 1
  53   28   49 1
  54   29   50 1
  55   29   51 1

#	End of record

