#	Name: ASD02039410
#	Creating user name:	WinNT
#	Creation time:	15. 06. 2019 20:18

#	Modifying user name:	WinNT
#	Modification time:	15. 06. 2019 20:18

#	Program:	/corina/corina34_cracker 3.40 0067  02.08.2006

@<TRIPOS>MOLECULE
ASD02039410
  48   50    0    0    0
SMALL
NO_CHARGES


@<TRIPOS>ATOM
   1 C1            -0.1270     1.5236    -0.1523 C.ar    
   2 C2            -0.1248     0.1394    -0.0541 C.ar    
   3 C3             1.1588     2.3043    -0.0621 C.3     
   4 N4             1.7993     2.3442    -1.3791 N.am    
   5 C5             1.3658     3.3273    -2.3750 C.3     
   6 C6             2.7873     1.4764    -1.6745 C.2     
   7 C7             3.1636     0.4313    -0.7067 C.2     
   8 C8             4.1821    -0.4658    -0.8440 C.2     
   9 N9             2.5636     0.1894     0.4868 N.2     
  10 C10            3.1668    -0.8078     1.0667 C.2     
  11 N11            4.1771    -1.2389     0.2674 N.pl3   
  12 O12            3.3683     1.5561    -2.7400 O.2     
  13 C13           -1.3210    -0.5486    -0.1412 C.ar    
  14 N14           -2.4588     0.0922    -0.3161 N.ar    
  15 C15           -2.5041     1.4148    -0.4149 C.ar    
  16 C16           -1.3359     2.1708    -0.3408 C.ar    
  17 C17           -3.8078     2.0933    -0.6120 C.ar    
  18 C18           -4.9803     1.3434    -0.6929 C.ar    
  19 C19           -3.8641     3.4829    -0.7110 C.ar    
  20 C20           -5.0778     4.1108    -0.8942 C.ar    
  21 C21           -6.2432     3.3608    -0.9802 C.ar    
  22 C22           -6.1910     1.9771    -0.8762 C.ar    
  23 C23            2.5146     4.2934    -2.6715 C.3     
  24 C24            0.9615     2.6054    -3.6620 C.3     
  25 O25           -7.4376     3.9824    -1.1603 O.3     
  26 C26           -8.5965     3.1502    -1.2400 C.3     
  27 F27           -8.7282     2.4192    -0.0545 F       
  28 F28           -9.7312     3.9474    -1.4248 F       
  29 F29           -8.4648     2.2693    -2.3189 F       
  30 H30            0.8025    -0.3954     0.0887 H       
  31 H31            0.9444     3.3206     0.2685 H       
  32 H32            1.8267     1.8231     0.6523 H       
  33 H33            0.5130     3.8848    -1.9879 H       
  34 H34            4.8620    -0.5445    -1.6794 H       
  35 H35            2.9079    -1.2233     2.0294 H       
  36 H36            4.7854    -1.9699     0.4584 H       
  37 H37           -1.3227    -1.6259    -0.0651 H       
  38 H38           -1.3741     3.2471    -0.4213 H       
  39 H39           -4.9403     0.2671    -0.6125 H       
  40 H40           -2.9581     4.0668    -0.6438 H       
  41 H41           -5.1221     5.1872    -0.9706 H       
  42 H42           -7.0991     1.3964    -0.9438 H       
  43 H43            3.3339     3.7501    -3.1424 H       
  44 H44            2.1655     5.0779    -3.3430 H       
  45 H45            2.8628     4.7405    -1.7404 H       
  46 H46            0.2087     1.8508    -3.4341 H       
  47 H47            0.5511     3.3261    -4.3692 H       
  48 H48            1.8368     2.1250    -4.0994 H       
@<TRIPOS>BOND
   1    1    2 ar
   2    1    3 1
   3    1   16 ar
   4    2   13 ar
   5    2   30 1
   6    3    4 1
   7    3   31 1
   8    3   32 1
   9    4    5 1
  10    4    6 am
  11    5   23 1
  12    5   24 1
  13    5   33 1
  14    6    7 1
  15    6   12 2
  16    7    8 2
  17    7    9 1
  18    8   11 1
  19    8   34 1
  20    9   10 2
  21   10   11 1
  22   10   35 1
  23   11   36 1
  24   13   14 ar
  25   13   37 1
  26   14   15 ar
  27   15   16 ar
  28   15   17 1
  29   16   38 1
  30   17   18 ar
  31   17   19 ar
  32   18   22 ar
  33   18   39 1
  34   19   20 ar
  35   19   40 1
  36   20   21 ar
  37   20   41 1
  38   21   22 ar
  39   21   25 1
  40   22   42 1
  41   23   43 1
  42   23   44 1
  43   23   45 1
  44   24   46 1
  45   24   47 1
  46   24   48 1
  47   25   26 1
  48   26   27 1
  49   26   28 1
  50   26   29 1

#	End of record

