#	Name: ASD02038057
#	Creating user name:	WinNT
#	Creation time:	15. 06. 2019 20:16

#	Modifying user name:	WinNT
#	Modification time:	15. 06. 2019 20:16

#	Program:	/corina/corina34_cracker 3.40 0067  02.08.2006

@<TRIPOS>MOLECULE
ASD02038057
  50   52    0    0    0
SMALL
NO_CHARGES


@<TRIPOS>ATOM
   1 C1            -0.4787     1.3484    -0.1431 C.2     
   2 N2             0.8333     3.3839     0.1166 N.am    
   3 C3             0.7921     2.0371     0.0886 C.2     
   4 C4             0.9721     6.7977    -0.0090 C.3     
   5 O5             0.2480     7.6182    -0.9279 O.3     
   6 C6             0.1171     8.9338    -0.6101 C.ar    
   7 C7            -0.5740     9.7866    -1.4582 C.ar    
   8 C8             0.6699     9.4214     0.5651 C.ar    
   9 C9             0.5366    10.7572     0.8889 C.ar    
  10 C10           -0.1504    11.6123     0.0379 C.ar    
  11 C11           -0.7072    11.1228    -1.1360 C.ar    
  12 O12            1.8114     1.3935     0.2559 O.2     
  13 N13           -0.2865    12.9680     0.3662 N.am    
  14 C14           -0.5199     0.0008    -0.1711 C.2     
  15 C15            1.8707     4.4078     0.3129 C.3     
  16 C16            1.0138     5.3605    -0.5322 C.3     
  17 C17           -0.1381     4.4767    -0.0422 C.3     
  18 C18           -1.7974    -0.6915    -0.4041 C.ar    
  19 C19           -1.8439    -2.0893    -0.4337 C.ar    
  20 C20           -2.9715     0.0448    -0.5910 C.ar    
  21 C21           -4.1655    -0.6112    -0.8090 C.ar    
  22 C22           -4.2024    -1.9966    -0.8427 C.ar    
  23 C23           -3.0435    -2.7316    -0.6524 C.ar    
  24 Cl24          -5.6248     0.3001    -1.0408 Cl      
  25 Cl25          -5.7089    -2.8144    -1.1169 Cl      
  26 C26            0.7155    13.6127     0.9962 C.2     
  27 N27            0.6240    14.9372     1.2281 N.am    
  28 O28            1.7021    12.9993     1.3552 O.2     
  29 C29            1.7132    15.6379     1.9128 C.3     
  30 H30           -1.3839     1.9195    -0.2872 H       
  31 H31            1.9889     7.1768     0.0933 H       
  32 H32            0.4778     6.8165     0.9623 H       
  33 H33           -1.0076     9.4055    -2.3710 H       
  34 H34            1.2043     8.7561     1.2270 H       
  35 H35            0.9664    11.1366     1.8042 H       
  36 H36           -1.2417    11.7875    -1.7984 H       
  37 H37           -1.1018    13.4423     0.1401 H       
  38 H38            0.3846    -0.5703    -0.0226 H       
  39 H39            1.9772     4.7245     1.3504 H       
  40 H40            2.8240     4.1543    -0.1510 H       
  41 H41            1.1980     5.2951    -1.6045 H       
  42 H42           -0.8915     4.2828    -0.8056 H       
  43 H43           -0.5696     4.8098     0.9017 H       
  44 H44           -0.9414    -2.6639    -0.2860 H       
  45 H45           -2.9436     1.1241    -0.5645 H       
  46 H46           -3.0794    -3.8107    -0.6803 H       
  47 H47           -0.1630    15.4265     0.9416 H       
  48 H48            1.8567    15.2064     2.9034 H       
  49 H49            2.6316    15.5346     1.3349 H       
  50 H50            1.4616    16.6940     2.0095 H       
@<TRIPOS>BOND
   1    1   14 2
   2    1    3 1
   3    1   30 1
   4    2    3 am
   5    2   15 1
   6    2   17 1
   7    3   12 2
   8    4    5 1
   9    4   16 1
  10    4   31 1
  11    4   32 1
  12    5    6 1
  13    6    7 ar
  14    6    8 ar
  15    7   11 ar
  16    7   33 1
  17    8    9 ar
  18    8   34 1
  19    9   10 ar
  20    9   35 1
  21   10   11 ar
  22   10   13 1
  23   11   36 1
  24   13   26 am
  25   13   37 1
  26   14   18 1
  27   14   38 1
  28   15   16 1
  29   15   39 1
  30   15   40 1
  31   16   17 1
  32   16   41 1
  33   17   42 1
  34   17   43 1
  35   18   19 ar
  36   18   20 ar
  37   19   23 ar
  38   19   44 1
  39   20   21 ar
  40   20   45 1
  41   21   22 ar
  42   21   24 1
  43   22   23 ar
  44   22   25 1
  45   23   46 1
  46   26   27 am
  47   26   28 2
  48   27   29 1
  49   27   47 1
  50   29   48 1
  51   29   49 1
  52   29   50 1

#	End of record

