#	Name: ASD01140524
#	Creating user name:	WinNT
#	Creation time:	15. 06. 2019 19:01

#	Modifying user name:	WinNT
#	Modification time:	15. 06. 2019 19:01

#	Program:	/corina/corina34_cracker 3.40 0067  02.08.2006

@<TRIPOS>MOLECULE
ASD01140524
  36   37    0    0    0
SMALL
NO_CHARGES


@<TRIPOS>ATOM
   1 C1             0.5801     1.7594     2.7083 C.ar    
   2 C2             1.0349     2.1527     3.9607 C.ar    
   3 C3             1.6908     1.2471     4.7711 C.ar    
   4 C4             1.8955    -0.0499     4.3370 C.ar    
   5 C5             1.4444    -0.4446     3.0907 C.ar    
   6 C6             0.7870     0.4556     2.2756 C.ar    
   7 N7            -0.0890     2.6715     1.8882 N.pl3   
   8 C8             0.3618     3.9907     1.7975 C.ar    
   9 C9            -0.0945     6.3450     1.7766 C.ar    
  10 C10           -0.5436     5.0422     1.8666 C.ar    
  11 C11            1.7172     4.2543     1.6437 C.ar    
  12 C12            2.1593     5.5596     1.5543 C.ar    
  13 C13            1.2547     6.6036     1.6182 C.ar    
  14 N14            2.5994    -1.0177     5.2082 N.pl3   
  15 N15            0.8171     3.5411     4.4258 N.pl3   
  16 N16            0.3041     0.0320     0.9419 N.pl3   
  17 N17           -1.9880     4.7663     2.0361 N.pl3   
  18 N18            1.7324     8.0014     1.5221 N.pl3   
  19 N19            2.6863     3.1375     1.5761 N.pl3   
  20 O20            0.9373     8.9222     1.5825 O.2     
  21 O21            2.9204     8.2308     1.3826 O.2     
  22 O22           -2.7919     5.6803     1.9916 O.2     
  23 O23           -2.3726     3.6254     2.2201 O.2     
  24 O24            3.7493     3.2170     2.1654 O.2     
  25 O25            2.4207     2.1389     0.9313 O.2     
  26 O26            0.5640    -1.0829     0.5260 O.2     
  27 O27           -0.3530     0.7984     0.2605 O.2     
  28 O28            1.6939     4.1222     5.0397 O.2     
  29 O29           -0.2389     4.1022     4.1944 O.2     
  30 O30            2.9975    -0.6714     6.3059 O.2     
  31 O31            2.7804    -2.1604     4.8273 O.2     
  32 H32            2.0446     1.5522     5.7448 H       
  33 H33            1.6066    -1.4581     2.7545 H       
  34 H34           -0.8665     2.3887     1.3818 H       
  35 H35           -0.7979     7.1628     1.8299 H       
  36 H36            3.2128     5.7652     1.4347 H       
@<TRIPOS>BOND
   1    1    2 ar
   2    1    6 ar
   3    1    7 1
   4    2    3 ar
   5    2   15 1
   6    3    4 ar
   7    3   32 1
   8    4    5 ar
   9    4   14 1
  10    5    6 ar
  11    5   33 1
  12    6   16 1
  13    7    8 1
  14    7   34 1
  15    8   11 ar
  16    8   10 ar
  17    9   10 ar
  18    9   13 ar
  19    9   35 1
  20   10   17 1
  21   11   12 ar
  22   11   19 1
  23   12   13 ar
  24   12   36 1
  25   13   18 1
  26   14   30 2
  27   14   31 2
  28   15   28 2
  29   15   29 2
  30   16   26 2
  31   16   27 2
  32   17   22 2
  33   17   23 2
  34   18   20 2
  35   18   21 2
  36   19   24 2
  37   19   25 2

#	End of record

