#	Name: ASD01882195
#	Creating user name:	WinNT
#	Creation time:	15. 06. 2019 19:44

#	Modifying user name:	WinNT
#	Modification time:	15. 06. 2019 19:44

#	Program:	/corina/corina34_cracker 3.40 0067  02.08.2006

@<TRIPOS>MOLECULE
ASD01882195
  27   28    0    0    0
SMALL
NO_CHARGES


@<TRIPOS>ATOM
   1 C1            -0.0183     1.4604     0.0140 C.2     
   2 C2             0.0013    -0.0038     0.0032 C.2     
   3 C3             1.2421    -0.6483    -0.0196 C.2     
   4 C4             2.4141     0.1257    -0.0313 C.2     
   5 C5             2.3572     1.4725    -0.0204 C.2     
   6 N6             1.1709     2.1420     0.0013 N.pl3   
   7 N7            -1.0063     2.3399     0.0401 N.2     
   8 C8            -0.5053     3.5744     0.0392 C.2     
   9 C9             0.8584     3.4877     0.0160 C.2     
  10 C10           -1.2175    -0.7555     0.0163 C.1     
  11 N11           -2.1843    -1.3518     0.0266 N.1     
  12 C12            1.8085     4.6089     0.0102 C.2     
  13 C13            1.3615     5.8595    -0.0764 C.2     
  14 C14            2.3247     7.0133     0.0339 C.3     
  15 C15            2.1863     7.9126    -1.1961 C.3     
  16 F16            0.8781     8.4027    -1.2707 F       
  17 F17            3.0805     8.9837    -1.0937 F       
  18 F18            2.4739     7.1737    -2.3487 F       
  19 O19            1.3128    -2.0006    -0.0298 O.3     
  20 H20            3.3757    -0.3657    -0.0489 H       
  21 H21            3.2780     2.0368    -0.0292 H       
  22 H22           -1.0796     4.4888     0.0573 H       
  23 H23            2.8695     4.4180     0.0762 H       
  24 H24            0.3086     6.0475    -0.2257 H       
  25 H25            2.1007     7.5890     0.9320 H       
  26 H26            3.3440     6.6314     0.0920 H       
  27 H27            2.2155    -2.3472    -0.0456 H       
@<TRIPOS>BOND
   1    1    2 1
   2    1    6 1
   3    1    7 2
   4    2    3 2
   5    2   10 1
   6    3    4 1
   7    3   19 1
   8    4    5 2
   9    4   20 1
  10    5    6 1
  11    5   21 1
  12    6    9 1
  13    7    8 1
  14    8    9 2
  15    8   22 1
  16    9   12 1
  17   10   11 3
  18   12   13 2
  19   12   23 1
  20   13   14 1
  21   13   24 1
  22   14   15 1
  23   14   25 1
  24   14   26 1
  25   15   16 1
  26   15   17 1
  27   15   18 1
  28   19   27 1

#	End of record

