#	Name: ASD04640010
#	Creating user name:	WinNT
#	Creation time:	15. 06. 2019 20:52

#	Modifying user name:	WinNT
#	Modification time:	15. 06. 2019 20:52

#	Program:	/corina/corina34_cracker 3.40 0067  02.08.2006

@<TRIPOS>MOLECULE
ASD04640010
  32   33    0    0    0
SMALL
NO_CHARGES


@<TRIPOS>ATOM
   1 C1            -0.0179     1.4664     0.0101 C.2     
   2 C2             0.0021    -0.0041     0.0020 C.2     
   3 O3             1.0637    -0.5979    -0.0113 O.2     
   4 N4            -1.1558    -0.6938     0.0094 N.am    
   5 C5            -1.1360    -2.1586     0.0013 C.3     
   6 C6            -2.5713    -2.6882     0.0122 C.3     
   7 C7            -2.5506    -4.2180     0.0038 C.3     
   8 C8            -3.9860    -4.7476     0.0146 C.3     
   9 C9             1.0784     2.2690     0.0039 C.2     
  10 C10            0.6295     3.6118     0.0146 C.ar    
  11 C11           -0.7784     3.5742     0.0273 C.ar    
  12 N12           -1.1543     2.2518     0.0191 N.pl3   
  13 C13            1.2903     4.8472     0.0141 C.ar    
  14 C14            0.5667     6.0039     0.0260 C.ar    
  15 C15           -0.8222     5.9695     0.0390 C.ar    
  16 C16           -1.4946     4.7682     0.0397 C.ar    
  17 H17           -2.0023    -0.2203     0.0200 H       
  18 H18           -0.6258    -2.5101    -0.8955 H       
  19 H19           -0.6088    -2.5197     0.8844 H       
  20 H20           -3.0815    -2.3367     0.9090 H       
  21 H21           -3.0985    -2.3271    -0.8709 H       
  22 H22           -2.0404    -4.5695    -0.8930 H       
  23 H23           -2.0234    -4.5791     0.8868 H       
  24 H24           -3.9712    -5.8375     0.0086 H       
  25 H25           -4.4962    -4.3961     0.9114 H       
  26 H26           -4.5132    -4.3865    -0.8684 H       
  27 H27            2.1075     1.9415    -0.0065 H       
  28 H28           -2.0672     1.9242     0.0242 H       
  29 H29            2.3696     4.8839     0.0048 H       
  30 H30            1.0783     6.9550     0.0256 H       
  31 H31           -1.3799     6.8944     0.0486 H       
  32 H32           -2.5744     4.7519     0.0495 H       
@<TRIPOS>BOND
   1    1    2 1
   2    1    9 2
   3    1   12 1
   4    2    3 2
   5    2    4 am
   6    4    5 1
   7    4   17 1
   8    5    6 1
   9    5   18 1
  10    5   19 1
  11    6    7 1
  12    6   20 1
  13    6   21 1
  14    7    8 1
  15    7   22 1
  16    7   23 1
  17    8   24 1
  18    8   25 1
  19    8   26 1
  20    9   10 1
  21    9   27 1
  22   10   11 ar
  23   10   13 ar
  24   11   12 1
  25   11   16 ar
  26   12   28 1
  27   13   14 ar
  28   13   29 1
  29   14   15 ar
  30   14   30 1
  31   15   16 ar
  32   15   31 1
  33   16   32 1

#	End of record

