#	Name: ASD00330010
#	Creating user name:	WinNT
#	Creation time:	15. 06. 2019 18:35

#	Modifying user name:	WinNT
#	Modification time:	15. 06. 2019 18:35

#	Program:	/corina/corina34_cracker 3.40 0067  02.08.2006

@<TRIPOS>MOLECULE
ASD00330010
  27   26    0    0    0
SMALL
NO_CHARGES


@<TRIPOS>ATOM
   1 O1             0.0021    -0.0041     0.0020 O.2     
   2 C2            -0.0144     1.2086     0.0087 C.2     
   3 C3             1.2803     1.9798     0.0005 C.3     
   4 P4             1.9389     2.0434    -1.6982 P.3     
   5 O5             0.9122     2.6043    -2.6047 O.2     
   6 O6             3.2507     2.9763    -1.7306 O.3     
   7 O7             2.3257     0.5567    -2.1799 O.3     
   8 N8            -1.1906     1.8666     0.0178 N.am    
   9 C9            -2.4492     1.1169     0.0197 C.3     
  10 C10           -2.8242     0.7611    -1.3959 C.2     
  11 O11           -2.1130     1.0991    -2.3123 O.2     
  12 O12           -3.9482     0.0688    -1.6386 O.3     
  13 C13           -3.5535     1.9758     0.6393 C.3     
  14 C14           -3.2381     2.2290     2.0910 C.2     
  15 O15           -2.2294     1.7679     2.5818 O.2     
  16 N16           -4.0769     2.9679     2.8439 N.am    
  17 H17            1.1017     2.9935     0.3591 H       
  18 H18            2.0016     1.4858     0.6515 H       
  19 H19            3.6552     3.0560    -2.6053 H       
  20 H20            2.9952     0.1268    -1.6302 H       
  21 H21           -1.2037     2.8365     0.0232 H       
  22 H22           -2.3279     0.2045     0.6037 H       
  23 H23           -4.1468    -0.1359    -2.5626 H       
  24 H24           -3.6146     2.9265     0.1096 H       
  25 H25           -4.5072     1.4539     0.5603 H       
  26 H26           -4.8836     3.3367     2.4514 H       
  27 H27           -3.8739     3.1308     3.7783 H       
@<TRIPOS>BOND
   1    1    2 2
   2    2    3 1
   3    2    8 am
   4    3    4 1
   5    3   17 1
   6    3   18 1
   7    4    5 2
   8    4    6 1
   9    4    7 1
  10    6   19 1
  11    7   20 1
  12    8    9 1
  13    8   21 1
  14    9   10 1
  15    9   13 1
  16    9   22 1
  17   10   11 2
  18   10   12 1
  19   12   23 1
  20   13   14 1
  21   13   24 1
  22   13   25 1
  23   14   15 2
  24   14   16 am
  25   16   26 1
  26   16   27 1

#	End of record

