#	Name: ASD01918102
#	Creating user name:	WinNT
#	Creation time:	15. 06. 2019 20:10

#	Modifying user name:	WinNT
#	Modification time:	15. 06. 2019 20:10

#	Program:	/corina/corina34_cracker 3.40 0067  02.08.2006

@<TRIPOS>MOLECULE
ASD01918102
  44   47    0    0    0
SMALL
NO_CHARGES


@<TRIPOS>ATOM
   1 N1            -0.1213     1.4393    -0.5202 N.am    
   2 C2            -0.0490     0.0428    -0.5393 C.2     
   3 C3             1.8494     0.0225    -2.1590 C.3     
   4 C4             1.3845     1.4552    -2.4439 C.3     
   5 C5             1.0159     2.1555    -1.1314 C.3     
   6 C6            -0.7940    -0.8682     0.1228 C.2     
   7 C7            -0.3258    -2.1393    -0.2335 C.2     
   8 N8             0.6653    -1.9957    -1.0803 N.2     
   9 N9             0.8641    -0.6328    -1.2952 N.pl3   
  10 C10           -0.8694    -3.4511     0.2712 C.3     
  11 O11           -1.9459    -3.2034     1.1777 O.3     
  12 C12           -1.1696     2.0925     0.0190 C.2     
  13 C13           -1.1405     3.5654     0.1385 C.ar    
  14 O14           -2.1392     1.4702     0.4072 O.2     
  15 C15           -2.5515    -4.2886     1.7277 C.ar    
  16 C16           -3.6038    -4.1213     2.6162 C.ar    
  17 C17           -4.2177    -5.2261     3.1739 C.ar    
  18 C18           -3.7842    -6.4977     2.8472 C.ar    
  19 C19           -2.7355    -6.6671     1.9622 C.ar    
  20 C20           -2.1223    -5.5658     1.3971 C.ar    
  21 C21            0.0912     5.6035     0.4513 C.ar    
  22 C22            0.0711     4.2286     0.3407 C.ar    
  23 C23           -2.3238     4.3000     0.0439 C.ar    
  24 C24           -2.2896     5.6745     0.1563 C.ar    
  25 C25           -1.0860     6.3251     0.3623 C.ar    
  26 H26            1.9355    -0.5267    -3.0966 H       
  27 H27            2.8168     0.0456    -1.6572 H       
  28 H28            2.1873     2.0054    -2.9348 H       
  29 H29            0.5127     1.4296    -3.0977 H       
  30 H30            0.7317     3.1880    -1.3346 H       
  31 H31            1.8689     2.1345    -0.4531 H       
  32 H32           -1.6043    -0.6552     0.8044 H       
  33 H33           -1.2316    -4.0420    -0.5701 H       
  34 H34           -0.0794    -3.9978     0.7860 H       
  35 H35           -3.9424    -3.1282     2.8720 H       
  36 H36           -5.0366    -5.0963     3.8659 H       
  37 H37           -4.2655    -7.3602     3.2842 H       
  38 H38           -2.3983    -7.6615     1.7092 H       
  39 H39           -1.3031    -5.6986     0.7059 H       
  40 H40            1.0278     6.1178     0.6081 H       
  41 H41            0.9906     3.6665     0.4107 H       
  42 H42           -3.2639     3.7934    -0.1173 H       
  43 H43           -3.2043     6.2440     0.0829 H       
  44 H44           -1.0648     7.4013     0.4500 H       
@<TRIPOS>BOND
   1    1    2 1
   2    1    5 1
   3    1   12 am
   4    2    6 2
   5    2    9 1
   6    3    4 1
   7    3    9 1
   8    3   26 1
   9    3   27 1
  10    4    5 1
  11    4   28 1
  12    4   29 1
  13    5   30 1
  14    5   31 1
  15    6    7 1
  16    6   32 1
  17    7    8 2
  18    7   10 1
  19    8    9 1
  20   10   11 1
  21   10   33 1
  22   10   34 1
  23   11   15 1
  24   12   13 1
  25   12   14 2
  26   13   23 ar
  27   13   22 ar
  28   15   16 ar
  29   15   20 ar
  30   16   17 ar
  31   16   35 1
  32   17   18 ar
  33   17   36 1
  34   18   19 ar
  35   18   37 1
  36   19   20 ar
  37   19   38 1
  38   20   39 1
  39   21   22 ar
  40   21   25 ar
  41   21   40 1
  42   22   41 1
  43   23   24 ar
  44   23   42 1
  45   24   25 ar
  46   24   43 1
  47   25   44 1

#	End of record

