#	Name: ASD05130052
#	Creating user name:	WinNT
#	Creation time:	15. 06. 2019 20:56

#	Modifying user name:	WinNT
#	Modification time:	15. 06. 2019 20:56

#	Program:	/corina/corina34_cracker 3.40 0067  02.08.2006

@<TRIPOS>MOLECULE
ASD05130052
  65   68    0    0    0
SMALL
NO_CHARGES


@<TRIPOS>ATOM
   1 N1            -0.1620     1.5508     0.1045 N.am    
   2 C2             0.0503     0.4228     0.8110 C.2     
   3 O3             1.1175     0.2448     1.3660 O.2     
   4 N4            -0.9202    -0.5079     0.9022 N.am    
   5 C5            -0.6649    -1.7242     1.5453 C.ar    
   6 C6            -1.6757    -2.3640     2.2507 C.ar    
   7 C7            -1.4205    -3.5644     2.8843 C.ar    
   8 C8            -0.1601    -4.1293     2.8168 C.ar    
   9 C9             0.8486    -3.4945     2.1155 C.ar    
  10 C10            0.5982    -2.2970     1.4746 C.ar    
  11 C11            0.8124     2.5576     0.0826 C.ar    
  12 C12            0.4361     3.8865    -0.0892 C.ar    
  13 C13            1.3952     4.8835    -0.1109 C.ar    
  14 C14            2.7314     4.5649     0.0374 C.ar    
  15 C15            3.1164     3.2348     0.2101 C.ar    
  16 C16            2.1494     2.2309     0.2377 C.ar    
  17 F17           -0.8690     4.2037    -0.2356 F       
  18 N18            6.5391     2.8502     1.7786 N.am    
  19 C19            5.2367     3.1638     1.6329 C.2     
  20 C20            4.5488     2.8908     0.3689 C.2     
  21 C21            5.2375     2.3157    -0.6640 C.2     
  22 C22            6.6047     1.9964    -0.4868 C.ar    
  23 C23            7.3480     1.4074    -1.5170 C.ar    
  24 N24            8.6179     1.1174    -1.3360 N.ar    
  25 C25            9.2442     1.3641    -0.1903 C.ar    
  26 C26            8.5826     1.9451     0.8821 C.ar    
  27 C27            7.2388     2.2724     0.7444 C.ar    
  28 O28            4.6286     3.6746     2.5566 O.2     
  29 C29            7.2174     3.1338     3.0457 C.3     
  30 C30            7.0843     1.9270     3.9768 C.3     
  31 N31           10.5857     1.0338    -0.0637 N.pl3   
  32 C32           11.2901     1.2995     1.1930 C.3     
  33 C33           12.7454     0.8444     1.0681 C.3     
  34 N34           13.4517     1.1109     2.3283 N.3     
  35 C35           14.7772     0.4776     2.3330 C.3     
  36 C36           13.5572     2.5547     2.5775 C.3     
  37 Cl37           3.9313     5.8191     0.0084 Cl      
  38 H38           -0.9876     1.6640    -0.3920 H       
  39 H39           -1.7957    -0.3346     0.5222 H       
  40 H40           -2.6602    -1.9231     2.3041 H       
  41 H41           -2.2061    -4.0622     3.4333 H       
  42 H42            0.0369    -5.0680     3.3131 H       
  43 H43            1.8321    -3.9379     2.0653 H       
  44 H44            1.3850    -1.8043     0.9228 H       
  45 H45            1.0987     5.9134    -0.2445 H       
  46 H46            2.4425     1.2006     0.3753 H       
  47 H47            4.7442     2.1079    -1.6020 H       
  48 H48            6.8764     1.1902    -2.4640 H       
  49 H49            9.1032     2.1404     1.8080 H       
  50 H50            8.2724     3.3322     2.8567 H       
  51 H51            6.7619     4.0062     3.5144 H       
  52 H52            6.0293     1.7286     4.1658 H       
  53 H53            7.5397     1.0546     3.5081 H       
  54 H54            7.5890     2.1380     4.9195 H       
  55 H55           11.0573     0.6269    -0.8074 H       
  56 H56           11.2605     2.3679     1.4072 H       
  57 H57           10.8068     0.7531     2.0030 H       
  58 H58           12.7750    -0.2239     0.8539 H       
  59 H59           13.2287     1.3908     0.2581 H       
  60 H60           15.3715     0.8726     1.5090 H       
  61 H61           15.2784     0.6907     3.2772 H       
  62 H62           14.6653    -0.6003     2.2162 H       
  63 H63           12.5584     2.9868     2.6386 H       
  64 H64           14.0842     2.7238     3.5166 H       
  65 H65           14.1073     3.0249     1.7624 H       
@<TRIPOS>BOND
   1    1    2 am
   2    1   11 1
   3    1   38 1
   4    2    3 2
   5    2    4 am
   6    4    5 1
   7    4   39 1
   8    5    6 ar
   9    5   10 ar
  10    6    7 ar
  11    6   40 1
  12    7    8 ar
  13    7   41 1
  14    8    9 ar
  15    8   42 1
  16    9   10 ar
  17    9   43 1
  18   10   44 1
  19   11   12 ar
  20   11   16 ar
  21   12   13 ar
  22   12   17 1
  23   13   14 ar
  24   13   45 1
  25   14   15 ar
  26   14   37 1
  27   15   16 ar
  28   15   20 1
  29   16   46 1
  30   18   19 am
  31   18   27 1
  32   18   29 1
  33   19   20 1
  34   19   28 2
  35   20   21 2
  36   21   22 1
  37   21   47 1
  38   22   23 ar
  39   22   27 ar
  40   23   24 ar
  41   23   48 1
  42   24   25 ar
  43   25   26 ar
  44   25   31 1
  45   26   27 ar
  46   26   49 1
  47   29   30 1
  48   29   50 1
  49   29   51 1
  50   30   52 1
  51   30   53 1
  52   30   54 1
  53   31   32 1
  54   31   55 1
  55   32   33 1
  56   32   56 1
  57   32   57 1
  58   33   34 1
  59   33   58 1
  60   33   59 1
  61   34   35 1
  62   34   36 1
  63   35   60 1
  64   35   61 1
  65   35   62 1
  66   36   63 1
  67   36   64 1
  68   36   65 1

#	End of record

