#	Name: ASD01916299
#	Creating user name:	WinNT
#	Creation time:	15. 06. 2019 20:07

#	Modifying user name:	WinNT
#	Modification time:	15. 06. 2019 20:07

#	Program:	/corina/corina34_cracker 3.40 0067  02.08.2006

@<TRIPOS>MOLECULE
ASD01916299
  40   41    0    0    0
SMALL
NO_CHARGES


@<TRIPOS>ATOM
   1 C1            -0.0169     1.3953     0.0097 C.ar    
   2 C2             0.0021    -0.0041     0.0020 C.ar    
   3 C3             1.2344    -0.6675    -0.0133 C.ar    
   4 N4             2.3595     0.0087    -0.0204 N.ar    
   5 C5             2.3777     1.3371    -0.0135 C.ar    
   6 C6             1.1906     2.0687     0.0018 C.ar    
   7 C7            -1.2222    -0.7468     0.0102 C.1     
   8 C8            -2.2260    -1.3557     0.0169 C.1     
   9 C9            -3.4845    -2.1192     0.0253 C.3     
  10 C10            3.6746     2.0498    -0.0220 C.2     
  11 O11            3.7004     3.2649    -0.0157 O.2     
  12 N12            4.8272     1.3514    -0.0368 N.am    
  13 C13            6.1111     2.0569    -0.0452 C.3     
  14 C14            7.1934     1.1535     0.5492 C.3     
  15 C15            6.4839     2.4204    -1.4839 C.3     
  16 C16            6.7618     0.6889     1.9416 C.3     
  17 O17            7.3814     0.0162    -0.2954 O.3     
  18 C18            8.5061     1.9323     0.6556 C.3     
  19 C19           -3.3846    -3.6459     0.0161 C.3     
  20 C20           -3.8193    -2.9153     1.2882 C.3     
  21 H21           -0.9518     1.9359     0.0171 H       
  22 H22            1.2599    -1.7472    -0.0190 H       
  23 H23            1.2141     3.1484     0.0074 H       
  24 H24           -4.3130    -1.6657    -0.5187 H       
  25 H25            4.8067     0.3816    -0.0418 H       
  26 H26            6.0299     2.9665     0.5499 H       
  27 H27            6.5651     1.5108    -2.0791 H       
  28 H28            5.7128     3.0640    -1.9075 H       
  29 H29            7.4391     2.9453    -1.4902 H       
  30 H30            5.8266     0.1341     1.8658 H       
  31 H31            7.5328     0.0453     2.3651 H       
  32 H32            6.6184     1.5564     2.5859 H       
  33 H33            6.5882    -0.5252    -0.4084 H       
  34 H34            8.3627     2.7998     1.2998 H       
  35 H35            9.2771     1.2887     1.0791 H       
  36 H36            8.8136     2.2633    -0.3364 H       
  37 H37           -4.1478    -4.1968    -0.5336 H       
  38 H38           -2.3870    -4.0849     0.0038 H       
  39 H39           -3.1077    -2.8737     2.1128 H       
  40 H40           -4.8685    -2.9856     1.5754 H       
@<TRIPOS>BOND
   1    1    2 ar
   2    1    6 ar
   3    1   21 1
   4    2    3 ar
   5    2    7 1
   6    3    4 ar
   7    3   22 1
   8    4    5 ar
   9    5    6 ar
  10    5   10 1
  11    6   23 1
  12    7    8 3
  13    8    9 1
  14    9   19 1
  15    9   20 1
  16    9   24 1
  17   10   11 2
  18   10   12 am
  19   12   13 1
  20   12   25 1
  21   13   14 1
  22   13   15 1
  23   13   26 1
  24   14   16 1
  25   14   17 1
  26   14   18 1
  27   15   27 1
  28   15   28 1
  29   15   29 1
  30   16   30 1
  31   16   31 1
  32   16   32 1
  33   17   33 1
  34   18   34 1
  35   18   35 1
  36   18   36 1
  37   19   20 1
  38   19   37 1
  39   19   38 1
  40   20   39 1
  41   20   40 1

#	End of record

