#	Name: ASD01880426
#	Creating user name:	WinNT
#	Creation time:	15. 06. 2019 19:40

#	Modifying user name:	WinNT
#	Modification time:	15. 06. 2019 19:40

#	Program:	/corina/corina34_cracker 3.40 0067  02.08.2006

@<TRIPOS>MOLECULE
ASD01880426
  37   38    0    0    0
SMALL
NO_CHARGES


@<TRIPOS>ATOM
   1 C1            -0.0173     1.4248     0.0099 C.3     
   2 O2             0.0021    -0.0041     0.0020 O.3     
   3 C3             0.6058    -0.6071    -1.0558 C.ar    
   4 C4             1.1680     0.1632    -2.0654 C.ar    
   5 C5             1.7847    -0.4434    -3.1451 C.ar    
   6 C6             1.8456    -1.8183    -3.2275 C.ar    
   7 C7             1.2824    -2.6042    -2.2157 C.ar    
   8 C8             0.6648    -1.9882    -1.1229 C.ar    
   9 C9             1.3447    -4.0711    -2.2987 C.2     
  10 N10            1.9273    -4.6440    -3.3197 N.2     
  11 N11            1.9820    -5.9308    -3.3925 N.2     
  12 C12            2.5658    -6.5049    -4.4155 C.2     
  13 C13            3.1863    -5.6892    -5.5292 C.3     
  14 O14            4.6021    -5.6268    -5.3458 O.3     
  15 C15            5.2011    -4.4307    -5.8483 C.3     
  16 C16            2.8759    -6.3528    -6.8465 C.2     
  17 C17            2.6638    -7.6662    -6.9338 C.2     
  18 C18            2.6820    -8.5136    -5.8109 C.2     
  19 C19            2.6513    -7.9723    -4.5269 C.2     
  20 C20            2.6900    -8.8287    -3.3389 C.2     
  21 O21            2.6621    -8.3323    -2.2319 O.2     
  22 H22            1.0053     1.8021     0.0021 H       
  23 H23           -0.5445     1.7859    -0.8732 H       
  24 H24           -0.5275     1.7763     0.9067 H       
  25 H25            1.1232     1.2407    -2.0075 H       
  26 H26            2.2196     0.1623    -3.9263 H       
  27 H27            2.3272    -2.2884    -4.0722 H       
  28 H28            0.2280    -2.5881    -0.3382 H       
  29 H29            0.9092    -4.6752    -1.5166 H       
  30 H30            2.7717    -4.6812    -5.5185 H       
  31 H31            5.0116    -4.3514    -6.9188 H       
  32 H32            4.7725    -3.5679    -5.3386 H       
  33 H33            6.2762    -4.4605    -5.6709 H       
  34 H34            2.8238    -5.7499    -7.7410 H       
  35 H35            2.4700    -8.0966    -7.9052 H       
  36 H36            2.7243    -9.5846    -5.9434 H       
  37 H37            2.7434    -9.9018    -3.4483 H       
@<TRIPOS>BOND
   1    1    2 1
   2    1   22 1
   3    1   23 1
   4    1   24 1
   5    2    3 1
   6    3    4 ar
   7    3    8 ar
   8    4    5 ar
   9    4   25 1
  10    5    6 ar
  11    5   26 1
  12    6    7 ar
  13    6   27 1
  14    7    8 ar
  15    7    9 1
  16    8   28 1
  17    9   10 2
  18    9   29 1
  19   10   11 1
  20   11   12 2
  21   12   13 1
  22   12   19 1
  23   13   14 1
  24   13   16 1
  25   13   30 1
  26   14   15 1
  27   15   31 1
  28   15   32 1
  29   15   33 1
  30   16   17 2
  31   16   34 1
  32   17   18 1
  33   17   35 1
  34   18   19 2
  35   18   36 1
  36   19   20 1
  37   20   21 2
  38   20   37 1

#	End of record

