#	Name: ASD03330337
#	Creating user name:	WinNT
#	Creation time:	15. 06. 2019 20:37

#	Modifying user name:	WinNT
#	Modification time:	15. 06. 2019 20:37

#	Program:	/corina/corina34_cracker 3.40 0067  02.08.2006

@<TRIPOS>MOLECULE
ASD03330337
  60   64    0    0    0
SMALL
NO_CHARGES


@<TRIPOS>ATOM
   1 C1            -0.0369     1.4663     0.0010 C.3     
   2 N2             0.0011    -0.0040     0.0016 N.am    
   3 C3             0.5953    -0.6821    -1.1663 C.3     
   4 C4             1.8492     0.0773    -1.5247 C.2     
   5 N5             2.1859     1.2814    -0.9978 N.pl3   
   6 C6             1.3962     2.0099    -0.0023 C.3     
   7 C7             2.8294    -0.2746    -2.3952 C.2     
   8 N8             3.7495     0.7163    -2.3977 N.2     
   9 C9             3.3685     1.6551    -1.5622 C.2     
  10 C10            4.1007     2.9097    -1.2811 C.ar    
  11 C11            5.1232     3.3297    -2.1324 C.ar    
  12 C12            2.8817    -1.5127    -3.1926 C.2     
  13 O13            1.9883    -2.3329    -3.1017 O.2     
  14 C14            3.9718    -2.9672    -4.8154 C.3     
  15 N15            3.9197    -1.7363    -4.0227 N.am    
  16 C16           -0.4915    -0.7107     1.0381 C.2     
  17 O17           -0.8780    -0.1355     2.0368 O.2     
  18 C18            5.8019     4.5008    -1.8651 C.ar    
  19 C19            5.4705     5.2581    -0.7558 C.ar    
  20 C20            4.4577     4.8470     0.0922 C.ar    
  21 C21            3.7678     3.6805    -0.1670 C.ar    
  22 C22            5.4050    -3.2850    -5.1561 C.ar    
  23 C23            3.1710    -2.7774    -6.1052 C.3     
  24 C24           -0.5618    -2.1854     0.9605 C.ar    
  25 C25            5.8504    -4.5931    -5.1194 C.ar    
  26 C26            6.2727    -2.2691    -5.5109 C.ar    
  27 C27            7.5873    -2.5606    -5.8234 C.ar    
  28 C28            8.0343    -3.8680    -5.7808 C.ar    
  29 C29            7.1650    -4.8846    -5.4319 C.ar    
  30 C30           -0.3511    -2.9583     2.1035 C.ar    
  31 C31           -0.8450    -2.8106    -0.2549 C.ar    
  32 C32           -0.9096    -4.1871    -0.3204 C.ar    
  33 C33           -0.6950    -4.9476     0.8153 C.ar    
  34 C34           -0.4186    -4.3340     2.0242 C.ar    
  35 H35           -0.5609     1.8163    -0.8884 H       
  36 H36           -0.5572     1.8172     0.8922 H       
  37 H37            0.8442    -1.7123    -0.9116 H       
  38 H38           -0.1032    -0.6629    -2.0028 H       
  39 H39            1.3827     3.0705    -0.2534 H       
  40 H40            1.8393     1.8742     0.9843 H       
  41 H41            5.3830     2.7392    -2.9985 H       
  42 H42            3.5445    -3.7883    -4.2399 H       
  43 H43            4.6323    -1.0822    -4.0952 H       
  44 H44            6.5939     4.8268    -2.5231 H       
  45 H45            6.0050     6.1738    -0.5506 H       
  46 H46            4.2036     5.4425     0.9566 H       
  47 H47            2.9773     3.3606     0.4957 H       
  48 H48            3.2097    -3.6932    -6.6950 H       
  49 H49            2.1344    -2.5475    -5.8588 H       
  50 H50            3.5983    -1.9563    -6.6807 H       
  51 H51            5.1714    -5.3873    -4.8462 H       
  52 H52            5.9235    -1.2477    -5.5442 H       
  53 H53            8.2651    -1.7670    -6.1013 H       
  54 H54            9.0613    -4.0958    -6.0253 H       
  55 H55            7.5142    -5.9061    -5.3986 H       
  56 H56           -0.1353    -2.4805     3.0477 H       
  57 H57           -1.0134    -2.2181    -1.1420 H       
  58 H58           -1.1286    -4.6721    -1.2602 H       
  59 H59           -0.7474    -6.0248     0.7588 H       
  60 H60           -0.2520    -4.9333     2.9071 H       
@<TRIPOS>BOND
   1    1    2 1
   2    1    6 1
   3    1   35 1
   4    1   36 1
   5    2    3 1
   6    2   16 am
   7    3    4 1
   8    3   37 1
   9    3   38 1
  10    4    5 1
  11    4    7 2
  12    5    6 1
  13    5    9 1
  14    6   39 1
  15    6   40 1
  16    7    8 1
  17    7   12 1
  18    8    9 2
  19    9   10 1
  20   10   11 ar
  21   10   21 ar
  22   11   18 ar
  23   11   41 1
  24   12   13 2
  25   12   15 am
  26   14   15 1
  27   14   22 1
  28   14   23 1
  29   14   42 1
  30   15   43 1
  31   16   17 2
  32   16   24 1
  33   18   19 ar
  34   18   44 1
  35   19   20 ar
  36   19   45 1
  37   20   21 ar
  38   20   46 1
  39   21   47 1
  40   22   25 ar
  41   22   26 ar
  42   23   48 1
  43   23   49 1
  44   23   50 1
  45   24   30 ar
  46   24   31 ar
  47   25   29 ar
  48   25   51 1
  49   26   27 ar
  50   26   52 1
  51   27   28 ar
  52   27   53 1
  53   28   29 ar
  54   28   54 1
  55   29   55 1
  56   30   34 ar
  57   30   56 1
  58   31   32 ar
  59   31   57 1
  60   32   33 ar
  61   32   58 1
  62   33   34 ar
  63   33   59 1
  64   34   60 1

#	End of record

