#	Name: ASD01911122
#	Creating user name:	WinNT
#	Creation time:	15. 06. 2019 19:57

#	Modifying user name:	WinNT
#	Modification time:	15. 06. 2019 19:57

#	Program:	/corina/corina34_cracker 3.40 0067  02.08.2006

@<TRIPOS>MOLECULE
ASD01911122
  44   47    0    0    0
SMALL
NO_CHARGES


@<TRIPOS>ATOM
   1 C1             0.1990     1.3872    -0.7118 C.2     
   2 O2             1.1322     2.1324    -0.4822 O.2     
   3 O3             1.3007    -2.0314    -1.0864 O.3     
   4 N4             0.1327    -2.2503    -0.8776 N.2     
   5 C5            -0.5492    -1.1583    -0.6959 C.2     
   6 C6             0.4261    -0.0647    -0.8256 C.2     
   7 C7             1.6005    -0.7305    -1.0790 C.2     
   8 C8             2.9575    -0.1149    -1.3040 C.3     
   9 N9            -1.0437     1.8884    -0.8567 N.am    
  10 C10           -2.1646     1.0145    -1.2290 C.3     
  11 C11           -2.8599     1.6022    -2.4610 C.3     
  12 C12           -3.2610     3.0507    -2.1730 C.3     
  13 C13           -2.0083     3.8808    -1.8834 C.3     
  14 C14           -1.3044     3.3179    -0.6393 C.3     
  15 O15           -5.1431     0.6001    -1.9764 O.3     
  16 N16           -5.9635    -0.0996    -2.5320 N.2     
  17 C17           -5.5425    -0.4273    -3.7226 C.2     
  18 N18           -4.3325     0.1448    -3.8911 N.2     
  19 C19           -4.0910     0.7928    -2.7777 C.2     
  20 O20           -6.1990    -1.2000    -4.6232 O.3     
  21 C21           -7.4774    -1.5639    -4.3398 C.ar    
  22 C22           -8.1291    -1.0155    -3.2449 C.ar    
  23 C23           -9.4304    -1.3877    -2.9588 C.ar    
  24 C24          -10.0811    -2.3071    -3.7652 C.ar    
  25 C25           -9.4320    -2.8536    -4.8561 C.ar    
  26 C26           -8.1343    -2.4801    -5.1485 C.ar    
  27 F27          -10.0665    -0.8550    -1.8926 F       
  28 H28           -1.6065    -1.0725    -0.4932 H       
  29 H29            3.6893    -0.9032    -1.4806 H       
  30 H30            2.9180     0.5450    -2.1706 H       
  31 H31            3.2467     0.4587    -0.4234 H       
  32 H32           -1.7893     0.0180    -1.4618 H       
  33 H33           -2.8729     0.9566    -0.4025 H       
  34 H34           -2.1779     1.5757    -3.3109 H       
  35 H35           -3.7779     3.4635    -3.0393 H       
  36 H36           -3.9233     3.0789    -1.3077 H       
  37 H37           -1.3343     3.8328    -2.7387 H       
  38 H38           -2.2926     4.9172    -1.7014 H       
  39 H39           -1.9440     3.4440     0.2342 H       
  40 H40           -0.3613     3.8417    -0.4830 H       
  41 H41           -7.6212    -0.2990    -2.6164 H       
  42 H42          -11.0969    -2.5974    -3.5409 H       
  43 H43           -9.9413    -3.5702    -5.4834 H       
  44 H44           -7.6299    -2.9043    -6.0041 H       
@<TRIPOS>BOND
   1    1    2 2
   2    1    6 1
   3    1    9 am
   4    3    4 1
   5    3    7 1
   6    4    5 2
   7    5    6 1
   8    5   28 1
   9    6    7 2
  10    7    8 1
  11    8   29 1
  12    8   30 1
  13    8   31 1
  14    9   10 1
  15    9   14 1
  16   10   11 1
  17   10   32 1
  18   10   33 1
  19   11   12 1
  20   11   19 1
  21   11   34 1
  22   12   13 1
  23   12   35 1
  24   12   36 1
  25   13   14 1
  26   13   37 1
  27   13   38 1
  28   14   39 1
  29   14   40 1
  30   15   16 1
  31   15   19 1
  32   16   17 2
  33   17   18 1
  34   17   20 1
  35   18   19 2
  36   20   21 1
  37   21   22 ar
  38   21   26 ar
  39   22   23 ar
  40   22   41 1
  41   23   24 ar
  42   23   27 1
  43   24   25 ar
  44   24   42 1
  45   25   26 ar
  46   25   43 1
  47   26   44 1

#	End of record

