#	Name: ASD01810658
#	Creating user name:	WinNT
#	Creation time:	15. 06. 2019 19:25

#	Modifying user name:	WinNT
#	Modification time:	15. 06. 2019 19:25

#	Program:	/corina/corina34_cracker 3.40 0067  02.08.2006

@<TRIPOS>MOLECULE
ASD01810658
  46   49    0    0    0
SMALL
NO_CHARGES


@<TRIPOS>ATOM
   1 N1            -0.0147     1.2902    -0.1151 N.pl3   
   2 N2             0.0047     0.0243    -0.3032 N.2     
   3 C3             1.1024    -0.6858    -0.4439 C.2     
   4 C4             2.4124    -0.0100    -0.3862 C.2     
   5 C5             2.3827     1.4484    -0.1693 C.ar    
   6 C6             3.5457     2.2100    -0.0936 C.ar    
   7 C7             3.4561     3.5599     0.1096 C.ar    
   8 C8             2.2171     4.1722     0.2408 C.ar    
   9 C9             1.0537     3.4359     0.1694 C.ar    
  10 C10            1.1207     2.0594    -0.0379 C.ar    
  11 C11            1.0248    -2.1415    -0.6564 C.2     
  12 O12            2.0432    -2.7918    -0.7857 O.2     
  13 O13           -0.1757    -2.7520    -0.7075 O.3     
  14 C14           -1.3141     1.9534     0.0188 C.3     
  15 C15           -2.4148     0.9315    -0.1055 C.ar    
  16 C16           -2.8900     0.2887     1.0228 C.ar    
  17 C17           -3.8987    -0.6484     0.9121 C.ar    
  18 C18           -4.4358    -0.9442    -0.3336 C.ar    
  19 C19           -3.9568    -0.2968    -1.4645 C.ar    
  20 C20           -2.9513     0.6428    -1.3468 C.ar    
  21 N21           -5.4593    -1.8951    -0.4492 N.pl3   
  22 N22           -6.0340    -2.6198     0.6028 N.2     
  23 C23           -6.9536    -3.4060     0.1037 C.2     
  24 C24           -6.9947    -3.2081    -1.2808 C.2     
  25 C25           -6.0706    -2.2709    -1.5953 C.2     
  26 O26            3.4589    -0.6218    -0.5103 O.2     
  27 Cl27          -0.4864     4.2192     0.3369 Cl      
  28 C28           -0.1762    -4.1884    -0.9198 C.3     
  29 C29           -1.6181    -4.6992    -0.9483 C.3     
  30 H30            4.5120     1.7384    -0.1944 H       
  31 H31            4.3562     4.1538     0.1688 H       
  32 H32            2.1639     5.2389     0.4011 H       
  33 H33           -1.3762     2.4376     0.9933 H       
  34 H34           -1.4227     2.7017    -0.7663 H       
  35 H35           -2.4719     0.5192     1.9915 H       
  36 H36           -4.2690    -1.1506     1.7935 H       
  37 H37           -4.3726    -0.5249    -2.4348 H       
  38 H38           -2.5809     1.1495    -2.2257 H       
  39 H39           -7.5736    -4.0902     0.6639 H       
  40 H40           -7.6511    -3.7114    -1.9753 H       
  41 H41           -5.8580    -1.8927    -2.5844 H       
  42 H42            0.3086    -4.4155    -1.8693 H       
  43 H43            0.3659    -4.6756    -0.1093 H       
  44 H44           -2.1602    -4.2120    -1.7587 H       
  45 H45           -1.6185    -5.7775    -1.1076 H       
  46 H46           -2.1029    -4.4720     0.0012 H       
@<TRIPOS>BOND
   1    1    2 1
   2    1   10 1
   3    1   14 1
   4    2    3 2
   5    3    4 1
   6    3   11 1
   7    4    5 1
   8    4   26 2
   9    5    6 ar
  10    5   10 ar
  11    6    7 ar
  12    6   30 1
  13    7    8 ar
  14    7   31 1
  15    8    9 ar
  16    8   32 1
  17    9   10 ar
  18    9   27 1
  19   11   12 2
  20   11   13 1
  21   13   28 1
  22   14   15 1
  23   14   33 1
  24   14   34 1
  25   15   16 ar
  26   15   20 ar
  27   16   17 ar
  28   16   35 1
  29   17   18 ar
  30   17   36 1
  31   18   19 ar
  32   18   21 1
  33   19   20 ar
  34   19   37 1
  35   20   38 1
  36   21   22 1
  37   21   25 1
  38   22   23 2
  39   23   24 1
  40   23   39 1
  41   24   25 2
  42   24   40 1
  43   25   41 1
  44   28   29 1
  45   28   42 1
  46   28   43 1
  47   29   44 1
  48   29   45 1
  49   29   46 1

#	End of record

