#	Name: ASD03330111
#	Creating user name:	WinNT
#	Creation time:	15. 06. 2019 20:36

#	Modifying user name:	WinNT
#	Modification time:	15. 06. 2019 20:36

#	Program:	/corina/corina34_cracker 3.40 0067  02.08.2006

@<TRIPOS>MOLECULE
ASD03330111
  43   45    0    0    0
SMALL
NO_CHARGES


@<TRIPOS>ATOM
   1 N1            -0.0179     1.4664     0.0101 N.am    
   2 C2             0.0021    -0.0041     0.0020 C.3     
   3 C3             1.3732     0.0647     0.6886 C.3     
   4 C4             1.4523     1.4322    -0.0041 C.3     
   5 C5            -0.9662     2.4241     0.0201 C.2     
   6 O6            -2.1414     2.1153     0.0243 O.2     
   7 O7            -0.6114     3.7228     0.0253 O.3     
   8 C8             1.3082     0.1367     2.1925 C.2     
   9 O9             0.2371     0.1367     2.7516 O.2     
  10 O10            2.4403     0.2010     2.9109 O.3     
  11 C11            2.3703    -0.9443     0.1800 C.ar    
  12 C12            3.6440    -0.9879     0.7155 C.ar    
  13 C13            4.5586    -1.9134     0.2488 C.ar    
  14 C14            4.1994    -2.7956    -0.7530 C.ar    
  15 C15            2.9255    -2.7526    -1.2878 C.ar    
  16 C16            2.0095    -1.8299    -0.8182 C.ar    
  17 C17            2.3019     0.2682     4.3547 C.3     
  18 C18           -1.6857     4.6996     0.0361 C.3     
  19 C19           -1.1015     6.0888     0.0407 C.ar    
  20 C20           -0.8395     6.7324    -1.1543 C.ar    
  21 C21           -0.3036     8.0066    -1.1501 C.ar    
  22 C22           -0.0300     8.6374     0.0491 C.ar    
  23 C23           -0.2928     7.9941     1.2441 C.ar    
  24 C24           -0.8328     6.7216     1.2399 C.ar    
  25 H25           -0.7729    -0.4521     0.6240 H       
  26 H26            0.0392    -0.4322    -0.9997 H       
  27 H27            1.8758     1.3866    -1.0075 H       
  28 H28            1.9105     2.2053     0.6126 H       
  29 H29            3.9246    -0.2987     1.4982 H       
  30 H30            5.5539    -1.9470     0.6667 H       
  31 H31            4.9142    -3.5182    -1.1180 H       
  32 H32            2.6450    -3.4416    -2.0708 H       
  33 H33            1.0130    -1.7988    -1.2335 H       
  34 H34            1.7787    -0.6191     4.7112 H       
  35 H35            3.2899     0.3159     4.8126 H       
  36 H36            1.7331     1.1581     4.6242 H       
  37 H37           -2.3046     4.5687    -0.8515 H       
  38 H38           -2.2957     4.5590     0.9284 H       
  39 H39           -1.0533     6.2396    -2.0913 H       
  40 H40           -0.0983     8.5092    -2.0838 H       
  41 H41            0.3893     9.6327     0.0524 H       
  42 H42           -0.0787     8.4868     2.1811 H       
  43 H43           -1.0415     6.2205     2.1736 H       
@<TRIPOS>BOND
   1    1    2 1
   2    1    4 1
   3    1    5 am
   4    2    3 1
   5    2   25 1
   6    2   26 1
   7    3    4 1
   8    3    8 1
   9    3   11 1
  10    4   27 1
  11    4   28 1
  12    5    6 2
  13    5    7 1
  14    7   18 1
  15    8    9 2
  16    8   10 1
  17   10   17 1
  18   11   12 ar
  19   11   16 ar
  20   12   13 ar
  21   12   29 1
  22   13   14 ar
  23   13   30 1
  24   14   15 ar
  25   14   31 1
  26   15   16 ar
  27   15   32 1
  28   16   33 1
  29   17   34 1
  30   17   35 1
  31   17   36 1
  32   18   19 1
  33   18   37 1
  34   18   38 1
  35   19   20 ar
  36   19   24 ar
  37   20   21 ar
  38   20   39 1
  39   21   22 ar
  40   21   40 1
  41   22   23 ar
  42   22   41 1
  43   23   24 ar
  44   23   42 1
  45   24   43 1

#	End of record

