#	Name: ASD03091523
#	Creating user name:	WinNT
#	Creation time:	15. 06. 2019 20:30

#	Modifying user name:	WinNT
#	Modification time:	15. 06. 2019 20:30

#	Program:	/corina/corina34_cracker 3.40 0067  02.08.2006

@<TRIPOS>MOLECULE
ASD03091523
  40   42    0    0    0
SMALL
NO_CHARGES


@<TRIPOS>ATOM
   1 C1            -0.0161     1.3326     0.0094 C.2     
   2 C2             0.0021    -0.0041     0.0020 C.2     
   3 C3             1.2768    -0.5930    -0.0133 C.ar    
   4 C4             2.3072     0.3559    -0.0181 C.ar    
   5 S5             1.6170     1.9748    -0.0028 S.3     
   6 C6             3.6410    -0.0642    -0.0331 C.ar    
   7 C7             3.9434    -1.4047    -0.0436 C.ar    
   8 C8             2.9250    -2.3507    -0.0394 C.ar    
   9 C9             1.6204    -1.9659    -0.0235 C.ar    
  10 C10           -1.2365     2.1520     0.0198 C.2     
  11 O11           -2.3287     1.6164     0.0222 O.2     
  12 N12           -1.1453     3.4967     0.0266 N.am    
  13 Br13           3.3576    -4.1915    -0.0547 Br      
  14 N14           -2.8667     5.9162     1.8178 N.3     
  15 C15           -2.8507     4.4871     1.4778 C.3     
  16 C16           -2.3616     4.3133     0.0370 C.3     
  17 C17           -2.0573     5.6962    -0.5526 C.3     
  18 C18           -0.9887     6.3734     0.3147 C.3     
  19 C19           -1.5160     6.4907     1.7475 C.3     
  20 C20           -3.7978     6.6542     0.9532 C.3     
  21 C21           -3.3361     6.5416    -0.5025 C.3     
  22 H22           -0.9037    -0.5922     0.0079 H       
  23 H23            4.4358     0.6671    -0.0367 H       
  24 H24            4.9750    -1.7240    -0.0555 H       
  25 H25            0.8410    -2.7135    -0.0198 H       
  26 H26           -0.2744     3.9238     0.0247 H       
  27 H27           -2.1798     3.9595     2.1557 H       
  28 H28           -3.8573     4.0797     1.5717 H       
  29 H29           -3.1360     3.8260    -0.5554 H       
  30 H30           -1.7001     5.5963    -1.5776 H       
  31 H31           -0.0789     5.7731     0.3085 H       
  32 H32           -0.7753     7.3674    -0.0784 H       
  33 H33           -1.5521     7.5410     2.0370 H       
  34 H34           -0.8548     5.9492     2.4240 H       
  35 H35           -4.7978     6.2318     1.0514 H       
  36 H36           -3.8151     7.7032     1.2492 H       
  37 H37           -3.1322     7.5363    -0.8989 H       
  38 H38           -4.1144     6.0623    -1.0963 H       
  39 Cl39           9.9750    12.7032     7.4240 Cl      
  40 H40            9.9750    14.0732     7.4240 H       
@<TRIPOS>BOND
   1    1    2 2
   2    1    5 1
   3    1   10 1
   4    2    3 1
   5    2   22 1
   6    3    4 ar
   7    3    9 ar
   8    4    5 1
   9    4    6 ar
  10    6    7 ar
  11    6   23 1
  12    7    8 ar
  13    7   24 1
  14    8    9 ar
  15    8   13 1
  16    9   25 1
  17   10   11 2
  18   10   12 am
  19   12   16 1
  20   12   26 1
  21   14   15 1
  22   14   19 1
  23   14   20 1
  24   15   16 1
  25   15   27 1
  26   15   28 1
  27   16   17 1
  28   16   29 1
  29   17   18 1
  30   17   21 1
  31   17   30 1
  32   18   19 1
  33   18   31 1
  34   18   32 1
  35   19   33 1
  36   19   34 1
  37   20   21 1
  38   20   35 1
  39   20   36 1
  40   21   37 1
  41   21   38 1
  42   39   40 1

#	End of record

