#	Name: ASD02500303
#	Creating user name:	WinNT
#	Creation time:	15. 06. 2019 20:22

#	Modifying user name:	WinNT
#	Modification time:	15. 06. 2019 20:22

#	Program:	/corina/corina34_cracker 3.40 0067  02.08.2006

@<TRIPOS>MOLECULE
ASD02500303
  63   67    0    0    0
SMALL
NO_CHARGES


@<TRIPOS>ATOM
   1 N1            -3.1086     2.6850     1.7834 N.ar    
   2 C2            -3.7249     1.5409     1.9549 C.ar    
   3 C3            -3.7866     0.9210     3.2012 C.ar    
   4 C4            -3.1946     1.5064     4.2838 C.ar    
   5 C5            -2.5332     2.7348     4.0958 C.ar    
   6 C6            -1.9021     3.3961     5.1613 C.ar    
   7 C7            -1.2732     4.5832     4.9387 C.ar    
   8 C8            -1.2478     5.1512     3.6668 C.ar    
   9 C9            -1.8492     4.5374     2.6113 C.ar    
  10 C10           -2.5087     3.3107     2.8012 C.ar    
  11 S11           -1.8024     5.2783     1.0134 S.o2    
  12 O12           -3.1209     5.1895     0.4911 O.2     
  13 O13           -1.1063     6.5082     1.1616 O.2     
  14 N14           -0.8541     4.3168     0.0549 N.am    
  15 C15           -1.2381     3.0075    -0.2128 C.ar    
  16 C16           -2.2788     2.7570    -1.1030 C.ar    
  17 C17           -2.6612     1.4624    -1.3700 C.ar    
  18 C18           -2.0034     0.3981    -0.7463 C.ar    
  19 C19           -0.9588     0.6529     0.1471 C.ar    
  20 C20           -0.5774     1.9496     0.4056 C.ar    
  21 C21           -2.4112    -0.9910    -1.0299 C.2     
  22 O22           -3.5821    -1.2525    -1.2279 O.2     
  23 N23           -1.4859    -1.9701    -1.0696 N.am    
  24 C24           -0.0701    -1.7149    -0.6994 C.3     
  25 C25            0.1685    -2.1658     0.6672 C.3     
  26 N26           -0.2496    -3.5846     0.8051 N.am    
  27 C27           -1.6368    -3.8352     0.9848 C.3     
  28 C28           -2.4108    -4.1863    -0.3277 C.3     
  29 C29           -1.8227    -3.2939    -1.4617 C.3     
  30 C30            0.6471    -4.5898     0.7613 C.2     
  31 C31            0.2330    -5.9646     1.1077 C.ar    
  32 C32            1.1879    -6.9088     1.4965 C.ar    
  33 C33            0.7904    -8.1956     1.8195 C.ar    
  34 C34           -0.5477    -8.5446     1.7569 C.ar    
  35 C35           -1.4955    -7.6122     1.3723 C.ar    
  36 C36           -1.1149    -6.3257     1.0539 C.ar    
  37 O37            1.7969    -4.3649     0.4366 O.2     
  38 F38            1.7097    -9.1113     2.1958 F       
  39 F39            2.4936    -6.5674     1.5565 F       
  40 H40           -4.1977     1.0664     1.1078 H       
  41 H41           -4.3025    -0.0214     3.3111 H       
  42 H42           -3.2330     1.0400     5.2572 H       
  43 H43           -1.9157     2.9660     6.1519 H       
  44 H44           -0.7879     5.0912     5.7589 H       
  45 H45           -0.7429     6.0940     3.5160 H       
  46 H46           -0.0308     4.6670    -0.3198 H       
  47 H47           -2.7868     3.5797    -1.5842 H       
  48 H48           -3.4688     1.2687    -2.0604 H       
  49 H49           -0.4490    -0.1672     0.6307 H       
  50 H50            0.2327     2.1469     1.0920 H       
  51 H51            0.5863    -2.2571    -1.3801 H       
  52 H52            0.1367    -0.6471    -0.7705 H       
  53 H53            1.2298    -2.0761     0.8988 H       
  54 H54           -0.4065    -1.5493     1.3582 H       
  55 H55           -1.7500    -4.6636     1.6841 H       
  56 H56           -2.0928    -2.9499     1.4280 H       
  57 H57           -2.2694    -5.2392    -0.5714 H       
  58 H58           -3.4722    -3.9733    -0.2007 H       
  59 H59           -2.5567    -3.2393    -2.2657 H       
  60 H60           -0.9263    -3.7771    -1.8504 H       
  61 H61           -0.8534    -9.5492     2.0089 H       
  62 H62           -2.5375    -7.8921     1.3255 H       
  63 H63           -1.8578    -5.5994     0.7590 H       
@<TRIPOS>BOND
   1    1    2 ar
   2    1   10 ar
   3    2    3 ar
   4    2   40 1
   5    3    4 ar
   6    3   41 1
   7    4    5 ar
   8    4   42 1
   9    5    6 ar
  10    5   10 ar
  11    6    7 ar
  12    6   43 1
  13    7    8 ar
  14    7   44 1
  15    8    9 ar
  16    8   45 1
  17    9   10 ar
  18    9   11 1
  19   11   12 2
  20   11   13 2
  21   11   14 am
  22   14   15 1
  23   14   46 1
  24   15   16 ar
  25   15   20 ar
  26   16   17 ar
  27   16   47 1
  28   17   18 ar
  29   17   48 1
  30   18   19 ar
  31   18   21 1
  32   19   20 ar
  33   19   49 1
  34   20   50 1
  35   21   22 2
  36   21   23 am
  37   23   24 1
  38   23   29 1
  39   24   25 1
  40   24   51 1
  41   24   52 1
  42   25   26 1
  43   25   53 1
  44   25   54 1
  45   26   27 1
  46   26   30 am
  47   27   28 1
  48   27   55 1
  49   27   56 1
  50   28   29 1
  51   28   57 1
  52   28   58 1
  53   29   59 1
  54   29   60 1
  55   30   31 1
  56   30   37 2
  57   31   32 ar
  58   31   36 ar
  59   32   33 ar
  60   32   39 1
  61   33   34 ar
  62   33   38 1
  63   34   35 ar
  64   34   61 1
  65   35   36 ar
  66   35   62 1
  67   36   63 1

#	End of record

