#	Name: ASD01885206
#	Creating user name:	WinNT
#	Creation time:	15. 06. 2019 19:49

#	Modifying user name:	WinNT
#	Modification time:	15. 06. 2019 19:49

#	Program:	/corina/corina34_cracker 3.40 0067  02.08.2006

@<TRIPOS>MOLECULE
ASD01885206
  59   62    0    0    0
SMALL
NO_CHARGES


@<TRIPOS>ATOM
   1 C1             0.6530     1.4723    -1.0183 C.2     
   2 C2             1.1215    -0.6544    -0.0287 C.2     
   3 C3             1.7055     0.0196     1.0661 C.2     
   4 C4             1.7476     1.3660     1.0908 C.2     
   5 N5             1.2283     2.0963     0.0619 N.pl3   
   6 C6             1.1292     3.4341    -0.1854 C.2     
   7 N7             0.5325     3.5772    -1.3393 N.2     
   8 N8             0.2508     2.4272    -1.8430 N.2     
   9 C9             1.6178     4.5443     0.7090 C.3     
  10 C10            3.0632     4.8920     0.3472 C.3     
  11 N11            1.0792    -2.0451    -0.0532 N.pl3   
  12 C12            2.3158    -2.8366    -0.1403 C.3     
  13 C13            2.3003    -3.8879     0.9745 C.3     
  14 N14            1.0574    -4.6665     0.8917 N.3     
  15 C15           -0.1196    -3.8167     1.1162 C.3     
  16 C16           -0.2030    -2.7626     0.0134 C.3     
  17 C17            0.5979     0.0689    -1.0657 C.2     
  18 C18            3.7051     6.0803     1.0661 C.3     
  19 C19            4.1350     4.6534     1.4126 C.3     
  20 C20           -0.0303    -0.6307    -2.2434 C.3     
  21 C21            1.0793    -5.7947     1.8323 C.3     
  22 C22           -0.3114    -6.4289     1.9004 C.3     
  23 C23           -0.2890    -7.5863     2.8653 C.ar    
  24 C24           -0.5722    -7.3773     4.2021 C.ar    
  25 C25           -0.5516    -8.4390     5.0872 C.ar    
  26 C26           -0.2481    -9.7097     4.6354 C.ar    
  27 C27            0.0343    -9.9188     3.2985 C.ar    
  28 C28            0.0094    -8.8579     2.4126 C.ar    
  29 F29           -1.3734    -0.9030    -1.9619 F       
  30 F30            0.0522     0.1913    -3.3724 F       
  31 F31            0.6471    -1.8298    -2.4891 F       
  32 H32            2.1199    -0.5466     1.8872 H       
  33 H33            2.1964     1.8719     1.9328 H       
  34 H34            0.9879     5.4235     0.5739 H       
  35 H35            1.5714     4.2204     1.7487 H       
  36 H36            3.3409     4.7234    -0.6933 H       
  37 H37            2.3660    -3.3318    -1.1100 H       
  38 H38            3.1787    -2.1826    -0.0149 H       
  39 H39            3.1552    -4.5541     0.8581 H       
  40 H40            2.3548    -3.3916     1.9434 H       
  41 H41           -1.0198    -4.4312     1.1026 H       
  42 H42           -0.0315    -3.3213     2.0831 H       
  43 H43           -1.0060    -2.0605     0.2379 H       
  44 H44           -0.3942    -3.2481    -0.9435 H       
  45 H45            4.4055     6.6932     0.4988 H       
  46 H46            3.0977     6.6143     1.7968 H       
  47 H47            3.8105     4.2487     2.3712 H       
  48 H48            5.1183     4.3276     1.0731 H       
  49 H49            1.8010    -6.5373     1.4922 H       
  50 H50            1.3645    -5.4374     2.8218 H       
  51 H51           -1.0332    -5.6863     2.2406 H       
  52 H52           -0.5967    -6.7863     0.9110 H       
  53 H53           -0.8093    -6.3846     4.5551 H       
  54 H54           -0.7722    -8.2756     6.1317 H       
  55 H55           -0.2313   -10.5390     5.3271 H       
  56 H56            0.2717   -10.9115     2.9456 H       
  57 H57            0.2264    -9.0219     1.3674 H       
  58 Cl58          10.1183    11.6932    11.1317 Cl      
  59 H59           10.1183    13.0632    11.1317 H       
@<TRIPOS>BOND
   1    1   17 1
   2    1    5 1
   3    1    8 2
   4    2    3 1
   5    2   11 1
   6    2   17 2
   7    3    4 2
   8    3   32 1
   9    4    5 1
  10    4   33 1
  11    5    6 1
  12    6    7 2
  13    6    9 1
  14    7    8 1
  15    9   10 1
  16    9   34 1
  17    9   35 1
  18   10   18 1
  19   10   19 1
  20   10   36 1
  21   11   12 1
  22   11   16 1
  23   12   13 1
  24   12   37 1
  25   12   38 1
  26   13   14 1
  27   13   39 1
  28   13   40 1
  29   14   15 1
  30   14   21 1
  31   15   16 1
  32   15   41 1
  33   15   42 1
  34   16   43 1
  35   16   44 1
  36   17   20 1
  37   18   19 1
  38   18   45 1
  39   18   46 1
  40   19   47 1
  41   19   48 1
  42   20   29 1
  43   20   30 1
  44   20   31 1
  45   21   22 1
  46   21   49 1
  47   21   50 1
  48   22   23 1
  49   22   51 1
  50   22   52 1
  51   23   24 ar
  52   23   28 ar
  53   24   25 ar
  54   24   53 1
  55   25   26 ar
  56   25   54 1
  57   26   27 ar
  58   26   55 1
  59   27   28 ar
  60   27   56 1
  61   28   57 1
  62   58   59 1

#	End of record

