#	Name: ASD06130020
#	Creating user name:	WinNT
#	Creation time:	15. 06. 2019 21:05

#	Modifying user name:	WinNT
#	Modification time:	15. 06. 2019 21:05

#	Program:	/corina/corina34_cracker 3.40 0067  02.08.2006

@<TRIPOS>MOLECULE
ASD06130020
  58   62    0    0    0
SMALL
NO_CHARGES


@<TRIPOS>ATOM
   1 C1            -0.4663     0.4308    -2.1976 C.ar    
   2 C2            -0.3702    -0.8307    -1.5823 C.ar    
   3 N3            -1.4660    -1.3908    -1.0789 N.ar    
   4 C4            -2.6269    -0.7766    -1.1532 C.ar    
   5 N5            -2.7669     0.4080    -1.7214 N.ar    
   6 C6            -1.7305     1.0471    -2.2462 C.ar    
   7 N7             0.7621     0.7771    -2.6202 N.2     
   8 N8             1.6086    -0.1474    -2.3262 N.2     
   9 N9             0.9454    -1.1929    -1.6661 N.pl3   
  10 C10           -3.8423    -1.4492    -0.5689 C.3     
  11 C11           -4.4382    -0.5628     0.5271 C.3     
  12 C12           -4.8818    -1.6698    -1.6703 C.3     
  13 C13           -6.1014    -2.3847    -1.0800 C.3     
  14 N14           -6.5935    -1.6109     0.0679 N.am    
  15 C15           -5.6527    -1.2652     1.1423 C.3     
  16 C16           -7.8831    -1.2251     0.1339 C.2     
  17 O17           -8.6285    -1.4324    -0.8041 O.2     
  18 N18           -8.3467    -0.6096     1.2397 N.am    
  19 C19           -9.6528    -0.1078     1.2657 C.ar    
  20 C20          -10.3756    -0.1102     2.4515 C.ar    
  21 C21          -10.2267     0.3989     0.1072 C.ar    
  22 C22          -11.5158     0.8938     0.1363 C.ar    
  23 C23          -12.2348     0.8852     1.3174 C.ar    
  24 C24          -11.6643     0.3862     2.4740 C.ar    
  25 C25            1.5458    -2.4315    -1.1643 C.3     
  26 C26            2.0048    -2.2275     0.2566 C.ar    
  27 C27            1.1137    -2.3923     1.3018 C.ar    
  28 C28            3.3177    -1.8813     0.5160 C.ar    
  29 C29            3.7389    -1.6946     1.8191 C.ar    
  30 C30            2.8475    -1.8540     2.8639 C.ar    
  31 C31            1.5359    -2.2048     2.6061 C.ar    
  32 Cl32          -0.5336    -2.8336     0.9772 Cl      
  33 O33           -1.8868     2.2609    -2.8254 O.3     
  34 C34          -13.6411     1.4261     1.3455 C.3     
  35 F35          -14.5431     0.3951     1.0614 F       
  36 F36          -13.9146     1.9484     2.6142 F       
  37 F37          -13.7713     2.4368     0.3871 F       
  38 H38           -3.5556    -2.4106    -0.1426 H       
  39 H39           -3.6897    -0.3869     1.2998 H       
  40 H40           -4.7481     0.3894     0.0966 H       
  41 H41           -5.1875    -0.7072    -2.0801 H       
  42 H42           -4.4491    -2.2818    -2.4617 H       
  43 H43           -6.8841    -2.4559    -1.8352 H       
  44 H44           -5.8156    -3.3840    -0.7516 H       
  45 H45           -5.3304    -2.1732     1.6519 H       
  46 H46           -6.1395    -0.5977     1.8534 H       
  47 H47           -7.7749    -0.5144     2.0175 H       
  48 H48           -9.9306    -0.5001     3.3550 H       
  49 H49           -9.6656     0.4062    -0.8156 H       
  50 H50          -11.9626     1.2883    -0.7644 H       
  51 H51          -12.2284     0.3808     3.3949 H       
  52 H52            0.8070    -3.2322    -1.1960 H       
  53 H53            2.3993    -2.6997    -1.7869 H       
  54 H54            4.0145    -1.7569    -0.2997 H       
  55 H55            4.7648    -1.4244     2.0213 H       
  56 H56            3.1773    -1.7083     3.8820 H       
  57 H57            0.8397    -2.3294     3.4224 H       
  58 H58           -1.7795     3.0042    -2.2162 H       
@<TRIPOS>BOND
   1    1    2 ar
   2    1    7 1
   3    1    6 ar
   4    2    3 ar
   5    2    9 1
   6    3    4 ar
   7    4    5 ar
   8    4   10 1
   9    5    6 ar
  10    6   33 1
  11    7    8 2
  12    8    9 1
  13    9   25 1
  14   10   11 1
  15   10   12 1
  16   10   38 1
  17   11   15 1
  18   11   39 1
  19   11   40 1
  20   12   13 1
  21   12   41 1
  22   12   42 1
  23   13   14 1
  24   13   43 1
  25   13   44 1
  26   14   15 1
  27   14   16 am
  28   15   45 1
  29   15   46 1
  30   16   17 2
  31   16   18 am
  32   18   19 1
  33   18   47 1
  34   19   20 ar
  35   19   21 ar
  36   20   24 ar
  37   20   48 1
  38   21   22 ar
  39   21   49 1
  40   22   23 ar
  41   22   50 1
  42   23   24 ar
  43   23   34 1
  44   24   51 1
  45   25   26 1
  46   25   52 1
  47   25   53 1
  48   26   27 ar
  49   26   28 ar
  50   27   32 1
  51   27   31 ar
  52   28   29 ar
  53   28   54 1
  54   29   30 ar
  55   29   55 1
  56   30   31 ar
  57   30   56 1
  58   31   57 1
  59   33   58 1
  60   34   35 1
  61   34   36 1
  62   34   37 1

#	End of record

