#	Name: ASD00843666
#	Creating user name:	WinNT
#	Creation time:	15. 06. 2019 18:47

#	Modifying user name:	WinNT
#	Modification time:	15. 06. 2019 18:47

#	Program:	/corina/corina34_cracker 3.40 0067  02.08.2006

@<TRIPOS>MOLECULE
ASD00843666
  88   93    0    0    0
SMALL
NO_CHARGES


@<TRIPOS>ATOM
   1 F1             5.6091    -2.3661    -2.1901 F       
   2 N2             0.7574     1.1436    -0.6251 N.ar    
   3 C3             0.9637    -0.1465    -0.8302 C.ar    
   4 C4             0.8563    -1.0554     0.2149 C.ar    
   5 C5             0.5296    -0.5937     1.4778 C.ar    
   6 C6             0.3209     0.7678     1.6515 C.ar    
   7 C7             0.4446     1.6137     0.5677 C.ar    
   8 C8             1.0918    -2.5246    -0.0238 C.3     
   9 C9             0.7852    -3.3208     1.2268 C.2     
  10 C10            0.2416    -3.0190    -1.1958 C.3     
  11 C11           -1.2047    -2.6770    -0.9466 C.2     
  12 N12           -2.1521    -3.0807    -1.8161 N.am    
  13 O13           -1.5162    -2.0384     0.0363 O.2     
  14 C14           -3.5492    -2.6566    -1.6511 C.3     
  15 C15           -4.4435    -3.9003    -1.6369 C.3     
  16 C16           -4.1821    -4.7262    -2.8985 C.3     
  17 C17           -2.7213    -5.1820    -2.9183 C.3     
  18 C18           -1.8064    -3.9483    -2.9503 C.3     
  19 C19           -5.0985    -5.9513    -2.9047 C.3     
  20 C20           -6.5606    -5.4969    -2.8866 C.3     
  21 C21           -7.4721    -6.7243    -2.9544 C.3     
  22 N22           -7.1902    -7.4777    -4.1829 N.3     
  23 C23           -5.8050    -7.9650    -4.2009 C.3     
  24 C24           -4.8437    -6.7746    -4.1704 C.3     
  25 H25           -7.8427    -8.2387    -4.2981 H       
  26 O26           -0.2868    -3.3937     1.7895 O.2     
  27 N27            1.9235    -3.9320     1.5959 N.am    
  28 C28            2.5574    -2.7912    -0.2795 C.ar    
  29 C29            2.9825    -3.6421     0.7331 C.ar    
  30 C30            3.4296    -2.3636    -1.2554 C.ar    
  31 C31            4.7500    -2.7828    -1.2343 C.ar    
  32 C32            5.1864    -3.6321    -0.2287 C.ar    
  33 C33            4.3109    -4.0610     0.7503 C.ar    
  34 F34            6.4735    -4.0421    -0.2062 F       
  35 C35            1.6901    -6.5559     2.3927 C.ar    
  36 C36            0.4186    -6.8712     1.9364 C.ar    
  37 C37            2.6714    -7.5279     2.4266 C.ar    
  38 C38            2.3871    -8.8138     2.0059 C.ar    
  39 C39            1.1203    -9.1306     1.5506 C.ar    
  40 C40            0.1357    -8.1626     1.5152 C.ar    
  41 H41            0.9007   -10.1359     1.2224 H       
  42 O42           -0.5484    -5.9170     1.9026 O.3     
  43 C43           -1.8341    -6.3132     1.4209 C.3     
  44 C44           -2.7837    -5.1140     1.4564 C.3     
  45 O45            1.2830    -0.5865    -2.0733 O.3     
  46 C46            1.2880     0.3829    -3.1232 C.3     
  47 C47            1.7709    -0.2715    -4.4192 C.3     
  48 F48            3.0289    -0.8469    -4.2105 F       
  49 F49            0.8632    -1.2629    -4.8073 F       
  50 S50            2.0554    -4.9154     2.9217 S.o2    
  51 O51            3.4275    -4.9091     3.2911 O.2     
  52 O52            1.0104    -4.5373     3.8073 O.2     
  53 H53            0.4387    -1.2769     2.3092 H       
  54 H54            0.0642     1.1608     2.6242 H       
  55 H55            0.2836     2.6737     0.6976 H       
  56 H56            0.5755    -2.5380    -2.1152 H       
  57 H57            0.3482    -4.0995    -1.2916 H       
  58 H58           -3.6586    -2.1171    -0.7104 H       
  59 H59           -3.8352    -2.0103    -2.4809 H       
  60 H60           -4.2177    -4.5008    -0.7557 H       
  61 H61           -5.4898    -3.5957    -1.6118 H       
  62 H62           -4.3845    -4.1172    -3.7796 H       
  63 H63           -2.5117    -5.7704    -2.0251 H       
  64 H64           -2.5418    -5.7896    -3.8053 H       
  65 H65           -1.9517    -3.4098    -3.8868 H       
  66 H66           -0.7662    -4.2625    -2.8647 H       
  67 H67           -4.8960    -6.5621    -2.0249 H       
  68 H68           -6.7592    -4.9464    -1.9670 H       
  69 H69           -6.7523    -4.8534    -3.7453 H       
  70 H70           -7.2897    -7.3604    -2.0882 H       
  71 H71           -8.5138    -6.4034    -2.9561 H       
  72 H72           -5.6304    -8.5953    -3.3289 H       
  73 H73           -5.6359    -8.5452    -5.1080 H       
  74 H74           -5.0084    -6.1512    -5.0492 H       
  75 H75           -3.8157    -7.1369    -4.1680 H       
  76 H76            3.0847    -1.7025    -2.0366 H       
  77 H77            4.6573    -4.7221     1.5309 H       
  78 H78            3.6614    -7.2830     2.7817 H       
  79 H79            3.1557    -9.5720     2.0325 H       
  80 H80           -0.8536    -8.4107     1.1602 H       
  81 H81           -1.7429    -6.6742     0.3965 H       
  82 H82           -2.2295    -7.1085     2.0527 H       
  83 H83           -3.7645    -5.4162     1.0890 H       
  84 H84           -2.8749    -4.7530     2.4808 H       
  85 H85           -2.3883    -4.3186     0.8246 H       
  86 H86            0.2790     0.7696    -3.2655 H       
  87 H87            1.9570     1.2017    -2.8585 H       
  88 H88            1.8419     0.4829    -5.2027 H       
@<TRIPOS>BOND
   1    1   31 1
   2    2    3 ar
   3    2    7 ar
   4    3    4 ar
   5    3   45 1
   6    4    5 ar
   7    4    8 1
   8    5    6 ar
   9    5   53 1
  10    6    7 ar
  11    6   54 1
  12    7   55 1
  13    8    9 1
  14    8   10 1
  15    8   28 1
  16    9   26 2
  17    9   27 am
  18   10   11 1
  19   10   56 1
  20   10   57 1
  21   11   12 am
  22   11   13 2
  23   12   14 1
  24   12   18 1
  25   14   15 1
  26   14   58 1
  27   14   59 1
  28   15   16 1
  29   15   60 1
  30   15   61 1
  31   16   17 1
  32   16   19 1
  33   16   62 1
  34   17   18 1
  35   17   63 1
  36   17   64 1
  37   18   65 1
  38   18   66 1
  39   19   20 1
  40   19   24 1
  41   19   67 1
  42   20   21 1
  43   20   68 1
  44   20   69 1
  45   21   22 1
  46   21   70 1
  47   21   71 1
  48   22   23 1
  49   22   25 1
  50   23   24 1
  51   23   72 1
  52   23   73 1
  53   24   74 1
  54   24   75 1
  55   27   50 am
  56   27   29 1
  57   28   29 ar
  58   28   30 ar
  59   29   33 ar
  60   30   31 ar
  61   30   76 1
  62   31   32 ar
  63   32   33 ar
  64   32   34 1
  65   33   77 1
  66   35   36 ar
  67   35   37 ar
  68   35   50 1
  69   36   42 1
  70   36   40 ar
  71   37   38 ar
  72   37   78 1
  73   38   39 ar
  74   38   79 1
  75   39   40 ar
  76   39   41 1
  77   40   80 1
  78   42   43 1
  79   43   44 1
  80   43   81 1
  81   43   82 1
  82   44   83 1
  83   44   84 1
  84   44   85 1
  85   45   46 1
  86   46   47 1
  87   46   86 1
  88   46   87 1
  89   47   48 1
  90   47   49 1
  91   47   88 1
  92   50   51 2
  93   50   52 2

#	End of record

