#	Name: ASD00111012
#	Creating user name:	WinNT
#	Creation time:	15. 06. 2019 18:30

#	Modifying user name:	WinNT
#	Modification time:	15. 06. 2019 18:30

#	Program:	/corina/corina34_cracker 3.40 0067  02.08.2006

@<TRIPOS>MOLECULE
ASD00111012
  35   36    0    0    0
SMALL
NO_CHARGES


@<TRIPOS>ATOM
   1 C1            -0.0167     1.3834     0.0096 C.ar    
   2 C2             0.0021    -0.0041     0.0020 C.ar    
   3 C3            -1.1912    -0.7135     0.0091 C.ar    
   4 C4            -2.3915    -0.0293     0.0237 C.ar    
   5 C5            -2.4078     1.3446     0.0321 C.ar    
   6 C6            -1.2236     2.0586     0.0306 C.ar    
   7 C7            -3.6959    -0.7994     0.0299 C.3     
   8 C8            -4.3580    -0.6129     1.3988 C.3     
   9 N9            -5.1351     0.6152     1.4347 N.3     
  10 C10           -4.3872     1.8616     1.4150 C.3     
  11 C11           -3.7307     2.0825     0.0491 C.3     
  12 I12            1.7832     2.4554    -0.0018 I       
  13 O13            1.1879    -0.6680    -0.0128 O.3     
  14 C14           -3.4903     3.5773    -0.1719 C.3     
  15 C15            1.1319    -2.0959    -0.0200 C.3     
  16 C16            2.5318    -2.6535    -0.0363 C.2     
  17 C17            2.8511    -3.6454     0.7576 C.2     
  18 H18           -1.1814    -1.7934     0.0029 H       
  19 H19           -1.2412     3.1385     0.0370 H       
  20 H20           -4.3525    -0.4162    -0.7511 H       
  21 H21           -3.4986    -1.8576    -0.1416 H       
  22 H22           -5.0156    -1.4592     1.5972 H       
  23 H23           -3.5864    -0.5715     2.1675 H       
  24 H24           -5.8504     0.6114     0.7230 H       
  25 H25           -5.0644     2.6894     1.6253 H       
  26 H26           -3.6143     1.8280     2.1828 H       
  27 H27           -4.3782     1.6939    -0.7369 H       
  28 H28           -2.8343     3.9593     0.6103 H       
  29 H29           -3.0231     3.7302    -1.1447 H       
  30 H30           -4.4422     4.1072    -0.1386 H       
  31 H31            0.6127    -2.4436     0.8731 H       
  32 H32            0.5957    -2.4341    -0.9067 H       
  33 H33            3.2719    -2.2353    -0.7025 H       
  34 H34            2.1110    -4.0636     1.4238 H       
  35 H35            3.8544    -4.0450     0.7459 H       
@<TRIPOS>BOND
   1    1    2 ar
   2    1   12 1
   3    1    6 ar
   4    2    3 ar
   5    2   13 1
   6    3    4 ar
   7    3   18 1
   8    4    5 ar
   9    4    7 1
  10    5    6 ar
  11    5   11 1
  12    6   19 1
  13    7    8 1
  14    7   20 1
  15    7   21 1
  16    8    9 1
  17    8   22 1
  18    8   23 1
  19    9   10 1
  20    9   24 1
  21   10   11 1
  22   10   25 1
  23   10   26 1
  24   11   14 1
  25   11   27 1
  26   13   15 1
  27   14   28 1
  28   14   29 1
  29   14   30 1
  30   15   16 1
  31   15   31 1
  32   15   32 1
  33   16   17 2
  34   16   33 1
  35   17   34 1
  36   17   35 1

#	End of record

