#	Name: ASD01840002
#	Creating user name:	WinNT
#	Creation time:	15. 06. 2019 19:37

#	Modifying user name:	WinNT
#	Modification time:	15. 06. 2019 19:37

#	Program:	/corina/corina34_cracker 3.40 0067  02.08.2006

@<TRIPOS>MOLECULE
ASD01840002
  49   52    0    0    0
SMALL
NO_CHARGES


@<TRIPOS>ATOM
   1 C1            -3.0467     3.1840    -0.9783 C.ar    
   2 C2            -3.7824     2.0192    -1.0874 C.ar    
   3 N3            -3.2548     0.8552    -0.7623 N.ar    
   4 C4            -2.0154     0.7539    -0.3236 C.ar    
   5 C5            -1.2196     1.8757    -0.1881 C.ar    
   6 C6            -1.7396     3.1172    -0.5207 C.ar    
   7 C7            -0.9040     4.3643    -0.3879 C.3     
   8 O8            -1.0750     4.9152     0.9194 O.3     
   9 C9            -0.3870     6.0482     1.2047 C.ar    
  10 C10            0.1814     7.7668     2.7545 C.ar    
  11 C11           -0.5105     6.6276     2.4670 C.ar    
  12 N12            0.3922     6.5825     0.2874 N.ar    
  13 C13            1.0116     8.3341     1.7581 C.ar    
  14 C14            1.8347     9.5294     1.8203 C.2     
  15 C15            1.0931     7.6981     0.5154 C.ar    
  16 S16            2.1797     8.5846    -0.5475 S.3     
  17 C17            2.5140     9.7938     0.6760 C.2     
  18 C18            0.0638     8.4119     4.1113 C.3     
  19 N19            1.9184    10.3305     2.9504 N.pl3   
  20 C20            3.3787    10.9003     0.4944 C.2     
  21 O21            3.5522    11.6930     1.4027 O.2     
  22 N22            4.0096    11.0764    -0.6835 N.am    
  23 C23            4.9042    12.2212    -0.8713 C.3     
  24 C24            5.4780    12.1870    -2.2644 C.ar    
  25 C25            6.7529    11.6952    -2.4750 C.ar    
  26 C26            4.7269    12.6426    -3.3334 C.ar    
  27 C27            5.2565    12.6105    -4.6148 C.ar    
  28 C28            6.5348    12.1230    -4.8215 C.ar    
  29 C29            7.2806    11.6632    -3.7520 C.ar    
  30 F30            3.4788    13.1177    -3.1292 F       
  31 F31            4.5248    13.0544    -5.6602 F       
  32 H32           -3.4829     4.1338    -1.2504 H       
  33 H33           -4.8014     2.0628    -1.4427 H       
  34 H34           -1.6177    -0.2169    -0.0670 H       
  35 H35           -0.2054     1.7863     0.1724 H       
  36 H36            0.1460     4.1163    -0.5433 H       
  37 H37           -1.2193     5.0939    -1.1338 H       
  38 H38           -1.1502     6.1774     3.2117 H       
  39 H39            0.8931     8.0885     4.7405 H       
  40 H40            0.0920     9.4960     4.0019 H       
  41 H41           -0.8787     8.1177     4.5730 H       
  42 H42            1.7122     9.9610     3.8232 H       
  43 H43            2.1832    11.2600     2.8675 H       
  44 H44            3.8713    10.4450    -1.4068 H       
  45 H45            4.3448    13.1462    -0.7314 H       
  46 H46            5.7141    12.1727    -0.1434 H       
  47 H47            7.3371    11.3360    -1.6407 H       
  48 H48            6.9482    12.0971    -5.8189 H       
  49 H49            8.2768    11.2790    -3.9145 H       
@<TRIPOS>BOND
   1    1    2 ar
   2    1    6 ar
   3    1   32 1
   4    2    3 ar
   5    2   33 1
   6    3    4 ar
   7    4    5 ar
   8    4   34 1
   9    5    6 ar
  10    5   35 1
  11    6    7 1
  12    7    8 1
  13    7   36 1
  14    7   37 1
  15    8    9 1
  16    9   12 ar
  17    9   11 ar
  18   10   11 ar
  19   10   18 1
  20   10   13 ar
  21   11   38 1
  22   12   15 ar
  23   13   15 ar
  24   13   14 1
  25   14   17 2
  26   14   19 1
  27   15   16 1
  28   16   17 1
  29   17   20 1
  30   18   39 1
  31   18   40 1
  32   18   41 1
  33   19   42 1
  34   19   43 1
  35   20   21 2
  36   20   22 am
  37   22   23 1
  38   22   44 1
  39   23   24 1
  40   23   45 1
  41   23   46 1
  42   24   26 ar
  43   24   25 ar
  44   25   29 ar
  45   25   47 1
  46   26   27 ar
  47   26   30 1
  48   27   28 ar
  49   27   31 1
  50   28   29 ar
  51   28   48 1
  52   29   49 1

#	End of record

