#	Name: ASD03091977
#	Creating user name:	WinNT
#	Creation time:	15. 06. 2019 20:31

#	Modifying user name:	WinNT
#	Modification time:	15. 06. 2019 20:31

#	Program:	/corina/corina34_cracker 3.40 0067  02.08.2006

@<TRIPOS>MOLECULE
ASD03091977
  56   60    0    0    0
SMALL
NO_CHARGES


@<TRIPOS>ATOM
   1 C1            -0.0150     1.3951     0.0120 C.ar    
   2 C2            -1.2495     2.0685     0.0343 C.ar    
   3 C3            -2.4497     1.3140     0.0357 C.ar    
   4 C4            -2.3931    -0.0936     0.0121 C.ar    
   5 C5            -1.1947    -0.7309    -0.0099 C.ar    
   6 C6             0.0034    -0.0000    -0.0093 C.ar    
   7 O7             1.1602     2.0650     0.0162 O.3     
   8 C8             2.2582     1.4564     0.6963 C.3     
   9 N9             2.4079     0.0581     0.2906 N.am    
  10 C10            1.3159    -0.6756    -0.0260 C.2     
  11 C11           -3.6690    -0.8955     0.0118 C.3     
  12 N12           -4.2253    -0.9302    -1.3473 N.3     
  13 C13           -5.3319    -1.8911    -1.4387 C.3     
  14 O14            1.4126    -1.8530    -0.3151 O.2     
  15 C15            3.7404    -0.5473     0.2271 C.3     
  16 C16            4.5997     0.1759    -0.8305 C.3     
  17 C17            4.4631    -0.3734     1.5744 C.3     
  18 C18            5.7363     0.4495     1.2885 C.3     
  19 C19            5.4077     1.2167    -0.0163 C.3     
  20 O20            4.8157    -1.6507     2.1093 O.3     
  21 C21           -3.6823     1.9866     0.0603 C.ar    
  22 C22           -1.3165     3.4708     0.0547 C.ar    
  23 C23           -5.9792    -1.7957    -2.8221 C.3     
  24 C24           -4.9278    -2.0963    -3.8940 C.3     
  25 C25           -3.7640    -1.1123    -3.7462 C.3     
  26 C26           -3.1809    -1.2275    -2.3359 C.3     
  27 C27           -3.7095     3.3480     0.0807 C.ar    
  28 C28           -2.5300     4.0886     0.0772 C.ar    
  29 H29           -1.1629    -1.8103    -0.0277 H       
  30 H30            3.1731     1.9991     0.4584 H       
  31 H31            2.0842     1.5015     1.7714 H       
  32 H32           -3.4593    -1.9120     0.3447 H       
  33 H33           -4.3888    -0.4332     0.6873 H       
  34 H34           -4.9501    -2.9004    -1.2852 H       
  35 H35           -6.0745    -1.6637    -0.6738 H       
  36 H36            3.6579    -1.6061    -0.0183 H       
  37 H37            5.2709    -0.5277    -1.3228 H       
  38 H38            3.9641     0.6743    -1.5625 H       
  39 H39            3.8224     0.1615     2.2755 H       
  40 H40            5.9302     1.1475     2.1030 H       
  41 H41            6.5911    -0.2100     1.1384 H       
  42 H42            6.3215     1.4935    -0.5421 H       
  43 H43            4.8008     2.0970     0.1956 H       
  44 H44            5.2749    -1.6081     2.9592 H       
  45 H45           -4.6055     1.4261     0.0626 H       
  46 H46           -0.4095     4.0571     0.0529 H       
  47 H47           -6.7905    -2.5200    -2.8950 H       
  48 H48           -6.3735    -0.7905    -2.9709 H       
  49 H49           -4.5614    -3.1152    -3.7692 H       
  50 H50           -5.3738    -1.9870    -4.8825 H       
  51 H51           -2.9926    -1.3482    -4.4793 H       
  52 H52           -4.1234    -0.0963    -3.9095 H       
  53 H53           -2.3612    -0.5180    -2.2228 H       
  54 H54           -2.8091    -2.2399    -2.1782 H       
  55 H55           -4.6598     3.8609     0.0990 H       
  56 H56           -2.5783     5.1674     0.0934 H       
@<TRIPOS>BOND
   1    1    6 ar
   2    1    7 1
   3    1    2 ar
   4    2    3 ar
   5    2   22 ar
   6    3    4 ar
   7    3   21 ar
   8    4    5 ar
   9    4   11 1
  10    5    6 ar
  11    5   29 1
  12    6   10 1
  13    7    8 1
  14    8    9 1
  15    8   30 1
  16    8   31 1
  17    9   10 am
  18    9   15 1
  19   10   14 2
  20   11   12 1
  21   11   32 1
  22   11   33 1
  23   12   13 1
  24   12   26 1
  25   13   23 1
  26   13   34 1
  27   13   35 1
  28   15   17 1
  29   15   16 1
  30   15   36 1
  31   16   19 1
  32   16   37 1
  33   16   38 1
  34   17   18 1
  35   17   20 1
  36   17   39 1
  37   18   19 1
  38   18   40 1
  39   18   41 1
  40   19   42 1
  41   19   43 1
  42   20   44 1
  43   21   27 ar
  44   21   45 1
  45   22   28 ar
  46   22   46 1
  47   23   24 1
  48   23   47 1
  49   23   48 1
  50   24   25 1
  51   24   49 1
  52   24   50 1
  53   25   26 1
  54   25   51 1
  55   25   52 1
  56   26   53 1
  57   26   54 1
  58   27   28 ar
  59   27   55 1
  60   28   56 1

#	End of record

