#	Name: ASD01382003
#	Creating user name:	WinNT
#	Creation time:	15. 06. 2019 19:16

#	Modifying user name:	WinNT
#	Modification time:	15. 06. 2019 19:16

#	Program:	/corina/corina34_cracker 3.40 0067  02.08.2006

@<TRIPOS>MOLECULE
ASD01382003
  52   56    0    0    0
SMALL
NO_CHARGES


@<TRIPOS>ATOM
   1 C1             0.0042     1.3848     0.3828 C.ar    
   2 C2             0.0205    -0.0021     0.3574 C.ar    
   3 C3             1.2173    -0.6638     0.2557 C.ar    
   4 C4             2.3873     0.0965     0.1809 C.ar    
   5 C5             2.3006     1.5012     0.2120 C.ar    
   6 N6             1.1138     2.0877     0.3116 N.ar    
   7 C7             3.8124    -0.2290     0.0672 C.2     
   8 N8             4.4725     0.9039     0.0369 N.2     
   9 N9             3.5816     1.9779     0.1231 N.pl3   
  10 C10            4.3985    -1.5871    -0.0004 C.ar    
  11 C11            3.9594     3.3933     0.1186 C.3     
  12 C12            3.9817     3.9028    -1.2994 C.ar    
  13 C13            2.8136     4.3497    -1.8932 C.ar    
  14 C14            2.8357     4.8175    -3.1963 C.ar    
  15 C15            4.0231     4.8379    -3.9026 C.ar    
  16 C16            5.1891     4.3913    -3.3085 C.ar    
  17 C17            5.1694     3.9294    -2.0059 C.ar    
  18 N18            5.7147    -1.7172    -0.1026 N.ar    
  19 C19            6.2778    -2.9196    -0.1654 C.ar    
  20 C20            5.4633    -4.0538    -0.1224 C.ar    
  21 C21            4.0819    -3.8749    -0.0145 C.ar    
  22 N22            3.5934    -2.6403     0.0482 N.ar    
  23 F23            1.6531     4.3289    -1.2019 F       
  24 N24            3.2308    -4.9725     0.0314 N.pl3   
  25 N25            6.0190    -5.3414    -0.1865 N.3     
  26 N26            7.6575    -3.0467    -0.2727 N.pl3   
  27 C27            6.8701    -5.6067     0.9825 C.3     
  28 C28            7.4062    -7.0386     0.9023 C.3     
  29 O29            8.1107    -7.2101    -0.3304 O.3     
  30 C30            7.3115    -6.9603    -1.4898 C.3     
  31 C31            6.7745    -5.5277    -1.4339 C.3     
  32 H32           -0.9422     1.8997     0.4584 H       
  33 H33           -0.9038    -0.5574     0.4176 H       
  34 H34            1.2546    -1.7429     0.2345 H       
  35 H35            3.2346     3.9647     0.6986 H       
  36 H36            4.9491     3.5066     0.5610 H       
  37 H37            1.9250     5.1661    -3.6606 H       
  38 H38            4.0405     5.2024    -4.9190 H       
  39 H39            6.1167     4.4072    -3.8614 H       
  40 H40            6.0808     3.5809    -1.5429 H       
  41 H41            3.5864    -5.8673    -0.0861 H       
  42 H42            2.2810    -4.8439     0.1809 H       
  43 H43            8.2081    -2.2596    -0.4079 H       
  44 H44            8.0700    -3.9226    -0.2125 H       
  45 H45            7.7046    -4.9056     0.9918 H       
  46 H46            6.2840    -5.4880     1.8939 H       
  47 H47            8.0832    -7.2210     1.7369 H       
  48 H48            6.5744    -7.7416     0.9471 H       
  49 H49            7.9201    -7.0861    -2.3853 H       
  50 H50            6.4771    -7.6611    -1.5146 H       
  51 H51            6.1186    -5.3513    -2.2864 H       
  52 H52            7.6075    -4.8253    -1.4632 H       
@<TRIPOS>BOND
   1    1    2 ar
   2    1    6 ar
   3    1   32 1
   4    2    3 ar
   5    2   33 1
   6    3    4 ar
   7    3   34 1
   8    4    5 ar
   9    4    7 1
  10    5    6 ar
  11    5    9 1
  12    7    8 2
  13    7   10 1
  14    8    9 1
  15    9   11 1
  16   10   18 ar
  17   10   22 ar
  18   11   12 1
  19   11   35 1
  20   11   36 1
  21   12   13 ar
  22   12   17 ar
  23   13   14 ar
  24   13   23 1
  25   14   15 ar
  26   14   37 1
  27   15   16 ar
  28   15   38 1
  29   16   17 ar
  30   16   39 1
  31   17   40 1
  32   18   19 ar
  33   19   20 ar
  34   19   26 1
  35   20   21 ar
  36   20   25 1
  37   21   22 ar
  38   21   24 1
  39   24   41 1
  40   24   42 1
  41   25   27 1
  42   25   31 1
  43   26   43 1
  44   26   44 1
  45   27   28 1
  46   27   45 1
  47   27   46 1
  48   28   29 1
  49   28   47 1
  50   28   48 1
  51   29   30 1
  52   30   31 1
  53   30   49 1
  54   30   50 1
  55   31   51 1
  56   31   52 1

#	End of record

