#	Name: ASD08070687
#	Creating user name:	WinNT
#	Creation time:	15. 06. 2019 21:15

#	Modifying user name:	WinNT
#	Modification time:	15. 06. 2019 21:15

#	Program:	/corina/corina34_cracker 3.40 0067  02.08.2006

@<TRIPOS>MOLECULE
ASD08070687
  42   42    0    0    0
SMALL
NO_CHARGES


@<TRIPOS>ATOM
   1 C1            -0.0179     1.4715     0.0101 C.2     
   2 C2             0.0021    -0.0041     0.0020 C.ar    
   3 C3             1.2303    -0.6954    -0.0134 C.ar    
   4 C4             1.2365    -2.0863    -0.0210 C.ar    
   5 C5             0.0365    -2.7842    -0.0133 C.ar    
   6 C6            -1.1730    -2.0996     0.0019 C.ar    
   7 C7            -1.1937    -0.7207     0.0154 C.ar    
   8 O8             1.0266     2.0937     0.0035 O.2     
   9 N9            -1.1942     2.1295     0.0193 N.am    
  10 O10            0.0444    -4.1415    -0.0212 O.3     
  11 C11           -1.2250    -4.7977    -0.0126 C.3     
  12 C12           -3.9170     4.1877    -2.6499 C.3     
  13 C13           -2.6000     3.6922    -2.0492 C.3     
  14 C14           -2.5311     4.0898    -0.5734 C.3     
  15 C15           -1.2140     3.5943     0.0273 C.3     
  16 C16           -1.0884     4.0982     1.4665 C.3     
  17 C17            0.2816     3.7089     2.0254 C.3     
  18 C18            0.4072     4.2127     3.4646 C.3     
  19 C19            2.4648     0.0302    -0.0217 C.1     
  20 N20            3.4442     0.6058    -0.0283 N.1     
  21 H21            2.1738    -2.6227    -0.0332 H       
  22 H22           -2.1019    -2.6506     0.0074 H       
  23 H23           -2.1373    -0.1955     0.0321 H       
  24 H24           -2.0275     1.6331     0.0205 H       
  25 H25           -1.7750    -4.5132     0.8844 H       
  26 H26           -1.7923    -4.5030    -0.8955 H       
  27 H27           -1.0759    -5.8774    -0.0203 H       
  28 H28           -4.7528     3.7387    -2.1132 H       
  29 H29           -3.9704     5.2729    -2.5631 H       
  30 H30           -3.9661     3.9044    -3.7013 H       
  31 H31           -2.5466     2.6070    -2.1360 H       
  32 H32           -1.7642     4.1411    -2.5858 H       
  33 H33           -2.5844     5.1750    -0.4866 H       
  34 H34           -3.3668     3.6409    -0.0367 H       
  35 H35           -0.3800     3.9723    -0.5640 H       
  36 H36           -1.1922     5.1831     1.4820 H       
  37 H37           -1.8712     3.6495     2.0782 H       
  38 H38            0.3854     2.6239     2.0099 H       
  39 H39            1.0644     4.1575     1.4138 H       
  40 H40            0.3034     5.2977     3.4801 H       
  41 H41           -0.3755     3.7641     4.0763 H       
  42 H42            1.3832     3.9354     3.8628 H       
@<TRIPOS>BOND
   1    1    2 1
   2    1    8 2
   3    1    9 am
   4    2    3 ar
   5    2    7 ar
   6    3    4 ar
   7    3   19 1
   8    4    5 ar
   9    4   21 1
  10    5    6 ar
  11    5   10 1
  12    6    7 ar
  13    6   22 1
  14    7   23 1
  15    9   15 1
  16    9   24 1
  17   10   11 1
  18   11   25 1
  19   11   26 1
  20   11   27 1
  21   12   13 1
  22   12   28 1
  23   12   29 1
  24   12   30 1
  25   13   14 1
  26   13   31 1
  27   13   32 1
  28   14   15 1
  29   14   33 1
  30   14   34 1
  31   15   16 1
  32   15   35 1
  33   16   17 1
  34   16   36 1
  35   16   37 1
  36   17   18 1
  37   17   38 1
  38   17   39 1
  39   18   40 1
  40   18   41 1
  41   18   42 1
  42   19   20 3

#	End of record

