#	Name: ASD09116050
#	Creating user name:	WinNT
#	Creation time:	15. 06. 2019 21:20

#	Modifying user name:	WinNT
#	Modification time:	15. 06. 2019 21:20

#	Program:	/corina/corina34_cracker 3.40 0067  02.08.2006

@<TRIPOS>MOLECULE
ASD09116050
  27   28    0    0    0
SMALL
NO_CHARGES


@<TRIPOS>ATOM
   1 C1            -0.0167     1.3818     0.0096 C.ar    
   2 C2             0.0021    -0.0041     0.0020 C.ar    
   3 C3            -1.3141    -0.7353     0.0222 C.3     
   4 C4            -1.5596    -1.2808     1.4268 C.3     
   5 C5            -1.5398    -0.0969     2.4325 C.3     
   6 C6            -2.6017     0.9214     1.9786 C.3     
   7 C7            -1.9414     2.1513     1.3914 C.3     
   8 C8            -1.3617     2.0565     0.0155 C.3     
   9 C9             1.1659     2.0897     0.0021 C.ar    
  10 C10            2.3543     1.3705    -0.0173 C.ar    
  11 C11            2.3028    -0.0120    -0.0282 C.ar    
  12 N12            1.1479    -0.6528    -0.0187 N.ar    
  13 Cl13           3.7820    -0.9204    -0.0549 Cl      
  14 H14           -2.1166    -0.0490    -0.2479 H       
  15 H15           -1.2836    -1.5606    -0.6892 H       
  16 H16           -2.5307    -1.7745     1.4626 H       
  17 H17           -0.7754    -1.9926     1.6847 H       
  18 H18           -1.7781    -0.4580     3.4329 H       
  19 H19           -0.5554     0.3712     2.4327 H       
  20 H20           -3.2413     0.4621     1.2249 H       
  21 H21           -3.2090     1.2136     2.8352 H       
  22 H22           -2.6806     2.9523     1.3846 H       
  23 H23           -1.1412     2.4520     2.0676 H       
  24 H24           -1.2550     3.0614    -0.3932 H       
  25 H25           -2.0444     1.4898    -0.6176 H       
  26 H26            1.1686     3.1696     0.0108 H       
  27 H27            3.3047     1.8833    -0.0242 H       
@<TRIPOS>BOND
   1    1    2 ar
   2    1    9 ar
   3    1    8 1
   4    2    3 1
   5    2   12 ar
   6    3    4 1
   7    3   14 1
   8    3   15 1
   9    4    5 1
  10    4   16 1
  11    4   17 1
  12    5    6 1
  13    5   18 1
  14    5   19 1
  15    6    7 1
  16    6   20 1
  17    6   21 1
  18    7    8 1
  19    7   22 1
  20    7   23 1
  21    8   24 1
  22    8   25 1
  23    9   10 ar
  24    9   26 1
  25   10   11 ar
  26   10   27 1
  27   11   12 ar
  28   11   13 1

#	End of record

