#	Name: ASD01000083
#	Creating user name:	WinNT
#	Creation time:	15. 06. 2019 18:54

#	Modifying user name:	WinNT
#	Modification time:	15. 06. 2019 18:54

#	Program:	/corina/corina34_cracker 3.40 0067  02.08.2006

@<TRIPOS>MOLECULE
ASD01000083
  69   72    0    0    0
SMALL
NO_CHARGES


@<TRIPOS>ATOM
   1 C1            -3.4672    -1.4659     6.2232 C.2     
   2 C2            -3.0853    -2.7468     5.6010 C.2     
   3 N3            -5.1470    -1.2709     4.5431 N.2     
   4 C4            -4.7831    -2.4007     4.0069 C.2     
   5 N5            -3.7721    -3.1516     4.5121 N.am    
   6 C6            -3.4208    -4.4188     3.8663 C.3     
   7 C7            -3.9499    -5.5653     4.6888 C.ar    
   8 C8            -5.5221    -2.9000     2.7921 C.3     
   9 C9            -6.7972    -2.0773     2.5970 C.3     
  10 N10           -4.6673    -2.7637     1.6102 N.am    
  11 C11           -7.5476    -2.5842     1.3637 C.3     
  12 C12           -7.6900    -2.2197     3.8314 C.3     
  13 C13           -4.0394    -1.4758     1.3050 C.3     
  14 C14           -4.4587    -3.8231     0.8036 C.2     
  15 C15           -2.8995    -1.2175     2.2924 C.3     
  16 C16           -2.1155     0.0209     1.8536 C.3     
  17 N17           -1.0957     0.3377     2.8624 N.3     
  18 C18           -3.6941    -3.6578    -0.4509 C.ar    
  19 O19           -4.8991    -4.9145     1.1076 O.2     
  20 C20           -4.3209    -3.8456    -1.6838 C.ar    
  21 C21           -3.6017    -3.6898    -2.8507 C.ar    
  22 C22           -2.2619    -3.3482    -2.8007 C.ar    
  23 C23           -1.6343    -3.1610    -1.5819 C.ar    
  24 C24           -2.3436    -3.3076    -0.4077 C.ar    
  25 C25           -1.4825    -3.1797    -4.0795 C.3     
  26 O26           -2.1769    -3.4193     6.0559 O.2     
  27 C27           -4.9202    -7.6691     6.1975 C.ar    
  28 C28           -3.6560    -7.1671     6.4441 C.ar    
  29 C29           -3.1708    -6.1154     5.6895 C.ar    
  30 C30           -5.2164    -6.0633     4.4464 C.ar    
  31 C31           -5.7017    -7.1151     5.2009 C.ar    
  32 C32           -2.9562    -0.7927     7.3366 C.2     
  33 N33           -3.4820     0.3364     7.6761 N.2     
  34 S34           -4.7312     0.6912     6.5848 S.3     
  35 C35           -4.5325    -0.7747     5.6206 C.2     
  36 C36           -1.8126    -1.3747     8.1268 C.3     
  37 H37           -3.8611    -4.4530     2.8698 H       
  38 H38           -2.3366    -4.4981     3.7874 H       
  39 H39           -5.7843    -3.9488     2.9319 H       
  40 H40           -6.5351    -1.0285     2.4572 H       
  41 H41           -7.8097    -3.6329     1.5035 H       
  42 H42           -8.4560    -1.9980     1.2247 H       
  43 H43           -6.9116    -2.4827     0.4844 H       
  44 H44           -7.1554    -1.8585     4.7100 H       
  45 H45           -8.5984    -1.6335     3.6924 H       
  46 H46           -7.9521    -3.2684     3.9712 H       
  47 H47           -3.6430    -1.4963     0.2898 H       
  48 H48           -4.7805    -0.6810     1.3897 H       
  49 H49           -3.3116    -1.0527     3.2880 H       
  50 H50           -2.2340    -2.0804     2.3129 H       
  51 H51           -1.6315    -0.1756     0.8969 H       
  52 H52           -2.7976     0.8647     1.7492 H       
  53 H53           -0.6163     1.1959     2.6349 H       
  54 H54           -1.5017     0.3840     3.7849 H       
  55 H55           -5.3666    -4.1126    -1.7241 H       
  56 H56           -4.0855    -3.8352    -3.8053 H       
  57 H57           -0.5882    -2.8948    -1.5498 H       
  58 H58           -1.8539    -3.1562     0.5429 H       
  59 H59           -1.5476    -2.1434    -4.4108 H       
  60 H60           -0.4386    -3.4407    -3.9058 H       
  61 H61           -1.8976    -3.8333    -4.8468 H       
  62 H62           -5.2993    -8.4908     6.7870 H       
  63 H63           -3.0455    -7.5999     7.2227 H       
  64 H64           -2.1828    -5.7236     5.8816 H       
  65 H65           -5.8270    -5.6304     3.6678 H       
  66 H66           -6.6893    -7.5073     5.0083 H       
  67 H67           -0.8681    -1.0222     7.7124 H       
  68 H68           -1.8927    -1.0602     9.1674 H       
  69 H69           -1.8498    -2.4627     8.0721 H       
@<TRIPOS>BOND
   1    1    2 1
   2    1   32 1
   3    1   35 2
   4    2    5 am
   5    2   26 2
   6    3    4 2
   7    3   35 1
   8    4    5 1
   9    4    8 1
  10    5    6 1
  11    6    7 1
  12    6   37 1
  13    6   38 1
  14    7   30 ar
  15    7   29 ar
  16    8    9 1
  17    8   10 1
  18    8   39 1
  19    9   11 1
  20    9   12 1
  21    9   40 1
  22   10   13 1
  23   10   14 am
  24   11   41 1
  25   11   42 1
  26   11   43 1
  27   12   44 1
  28   12   45 1
  29   12   46 1
  30   13   15 1
  31   13   47 1
  32   13   48 1
  33   14   18 1
  34   14   19 2
  35   15   16 1
  36   15   49 1
  37   15   50 1
  38   16   17 1
  39   16   51 1
  40   16   52 1
  41   17   53 1
  42   17   54 1
  43   18   20 ar
  44   18   24 ar
  45   20   21 ar
  46   20   55 1
  47   21   22 ar
  48   21   56 1
  49   22   23 ar
  50   22   25 1
  51   23   24 ar
  52   23   57 1
  53   24   58 1
  54   25   59 1
  55   25   60 1
  56   25   61 1
  57   27   28 ar
  58   27   31 ar
  59   27   62 1
  60   28   29 ar
  61   28   63 1
  62   29   64 1
  63   30   31 ar
  64   30   65 1
  65   31   66 1
  66   32   33 2
  67   32   36 1
  68   33   34 1
  69   34   35 1
  70   36   67 1
  71   36   68 1
  72   36   69 1

#	End of record

