#	Name: ASD00843974
#	Creating user name:	WinNT
#	Creation time:	15. 06. 2019 18:48

#	Modifying user name:	WinNT
#	Modification time:	15. 06. 2019 18:48

#	Program:	/corina/corina34_cracker 3.40 0067  02.08.2006

@<TRIPOS>MOLECULE
ASD00843974
  86   91    0    0    0
SMALL
NO_CHARGES


@<TRIPOS>ATOM
   1 N1            -0.0159     1.3183     0.0093 N.ar    
   2 C2             0.0021    -0.0041     0.0020 C.ar    
   3 C3             1.2069    -0.6955    -0.0132 C.ar    
   4 C4             2.3925     0.0180    -0.0207 C.ar    
   5 C5             2.3308     1.4049    -0.0127 C.ar    
   6 C6             1.0980     2.0259     0.0025 C.ar    
   7 C7             1.2224    -2.2024    -0.0209 C.3     
   8 C8             0.4764    -2.7341    -1.2259 C.2     
   9 O9             2.5880    -2.6957    -0.0100 O.3     
  10 C10            3.3812    -2.3219    -1.0317 C.2     
  11 N11            4.6598    -2.7450    -1.0818 N.am    
  12 O12            2.9442    -1.6031    -1.9086 O.2     
  13 C13            5.5375    -2.3455    -2.1904 C.3     
  14 C14            6.1419    -3.6050    -2.8192 C.3     
  15 C15            6.8366    -4.4295    -1.7331 C.3     
  16 C16            5.8108    -4.8591    -0.6818 C.3     
  17 C17            5.2043    -3.6094    -0.0259 C.3     
  18 N18            7.4459    -5.6214    -2.3382 N.3     
  19 C19            8.2232    -6.3769    -1.3458 C.3     
  20 C20            8.7740    -7.6491    -1.9943 C.3     
  21 N21            9.6092    -7.2858    -3.1477 N.3     
  22 C22            8.8318    -6.5304    -4.1400 C.3     
  23 C23            8.2810    -5.2582    -3.4915 C.3     
  24 C24           10.2184    -8.4778    -3.7527 C.3     
  25 O25            0.7567    -2.5394    -2.3898 O.2     
  26 N26           -0.5539    -3.4627    -0.7649 N.am    
  27 C27            0.4505    -2.7460     1.1600 C.ar    
  28 C28           -0.5988    -3.4907     0.6311 C.ar    
  29 C29            0.6198    -2.6230     2.5215 C.ar    
  30 C30           -1.3228    -3.9962     2.8756 C.ar    
  31 C31           -1.4879    -4.1176     1.4962 C.ar    
  32 C32           -1.0171    -5.8558    -2.0427 C.ar    
  33 C33           -1.3477    -6.8951    -1.1928 C.ar    
  34 C34           -0.1988    -6.0851    -3.1334 C.ar    
  35 C35            0.2906    -7.3539    -3.3765 C.ar    
  36 C36           -0.0396    -8.3984    -2.5253 C.ar    
  37 C37           -0.8605    -8.1656    -1.4314 C.ar    
  38 O38            0.4402    -9.6475    -2.7626 O.3     
  39 H39           -1.9870    -6.7134    -0.3416 H       
  40 C40            0.0590   -10.6742    -1.8446 C.3     
  41 C41           -0.2606    -3.2453     3.3894 C.ar    
  42 F42           -0.0959    -3.1265     4.7250 F       
  43 C43           -2.2397    -4.6419     3.7660 C.1     
  44 N44           -2.9671    -5.1542     4.4724 N.1     
  45 S45           -1.6456    -4.2379    -1.7395 S.o2    
  46 O46           -2.8262    -4.4044    -0.9664 O.2     
  47 O47           -1.6230    -3.5582    -2.9872 O.2     
  48 O48           -1.1673    -0.6919     0.0099 O.3     
  49 C49           -2.3720     0.0766     0.0260 C.3     
  50 C50           -3.5777    -0.8652     0.0330 C.3     
  51 F51           -3.5507    -1.6659    -1.1140 F       
  52 F52           -3.5280    -1.6782     1.1704 F       
  53 H53            3.3442    -0.4925    -0.0322 H       
  54 H54            3.2375     1.9916    -0.0178 H       
  55 H55            1.0444     3.1046     0.0084 H       
  56 H56            4.9580    -1.8054    -2.9390 H       
  57 H57            6.3358    -1.7067    -1.8124 H       
  58 H58            5.3505    -4.1989    -3.2765 H       
  59 H59            6.8686    -3.3191    -3.5796 H       
  60 H60            7.6114    -3.8267    -1.2593 H       
  61 H61            5.0225    -5.4412    -1.1593 H       
  62 H62            6.3018    -5.4659     0.0789 H       
  63 H63            5.9768    -3.0761     0.5281 H       
  64 H64            4.4035    -3.9046     0.6521 H       
  65 H65            9.0503    -5.7636    -0.9883 H       
  66 H66            7.5801    -6.6451    -0.5077 H       
  67 H67            9.3751    -8.1965    -1.2682 H       
  68 H68            7.9463    -8.2751    -2.3275 H       
  69 H69            9.4749    -6.2622    -4.9782 H       
  70 H70            8.0047    -7.1437    -4.4975 H       
  71 H71            7.6800    -4.7108    -4.2176 H       
  72 H72            9.1087    -4.6321    -3.1583 H       
  73 H73            9.4340    -9.1558    -4.0889 H       
  74 H74           10.8310    -8.1804    -4.6038 H       
  75 H75           10.8423    -8.9815    -3.0144 H       
  76 H76            1.4409    -2.0403     2.9122 H       
  77 H77           -2.3082    -4.6976     1.0998 H       
  78 H78            0.0577    -5.2717    -3.7960 H       
  79 H79            0.9294    -7.5326    -4.2288 H       
  80 H80           -1.1192    -8.9771    -0.7674 H       
  81 H81            0.5090   -11.6191    -2.1490 H       
  82 H82            0.4038   -10.4132    -0.8440 H       
  83 H83           -1.0265   -10.7733    -1.8406 H       
  84 H84           -2.3931     0.7004     0.9196 H       
  85 H85           -2.4108     0.7099    -0.8602 H       
  86 H86           -4.4966    -0.2790     0.0452 H       
@<TRIPOS>BOND
   1    1    2 ar
   2    1    6 ar
   3    2    3 ar
   4    2   48 1
   5    3    4 ar
   6    3    7 1
   7    4    5 ar
   8    4   53 1
   9    5    6 ar
  10    5   54 1
  11    6   55 1
  12    7    8 1
  13    7    9 1
  14    7   27 1
  15    8   25 2
  16    8   26 am
  17    9   10 1
  18   10   11 am
  19   10   12 2
  20   11   13 1
  21   11   17 1
  22   13   14 1
  23   13   56 1
  24   13   57 1
  25   14   15 1
  26   14   58 1
  27   14   59 1
  28   15   16 1
  29   15   18 1
  30   15   60 1
  31   16   17 1
  32   16   61 1
  33   16   62 1
  34   17   63 1
  35   17   64 1
  36   18   19 1
  37   18   23 1
  38   19   20 1
  39   19   65 1
  40   19   66 1
  41   20   21 1
  42   20   67 1
  43   20   68 1
  44   21   22 1
  45   21   24 1
  46   22   23 1
  47   22   69 1
  48   22   70 1
  49   23   71 1
  50   23   72 1
  51   24   73 1
  52   24   74 1
  53   24   75 1
  54   26   45 am
  55   26   28 1
  56   27   28 ar
  57   27   29 ar
  58   28   31 ar
  59   29   41 ar
  60   29   76 1
  61   30   31 ar
  62   30   43 1
  63   30   41 ar
  64   31   77 1
  65   32   33 ar
  66   32   34 ar
  67   32   45 1
  68   33   39 1
  69   33   37 ar
  70   34   35 ar
  71   34   78 1
  72   35   36 ar
  73   35   79 1
  74   36   37 ar
  75   36   38 1
  76   37   80 1
  77   38   40 1
  78   40   81 1
  79   40   82 1
  80   40   83 1
  81   41   42 1
  82   43   44 3
  83   45   46 2
  84   45   47 2
  85   48   49 1
  86   49   50 1
  87   49   84 1
  88   49   85 1
  89   50   51 1
  90   50   52 1
  91   50   86 1

#	End of record

