#	Name: ASD01810426
#	Creating user name:	WinNT
#	Creation time:	15. 06. 2019 19:24

#	Modifying user name:	WinNT
#	Modification time:	15. 06. 2019 19:24

#	Program:	/corina/corina34_cracker 3.40 0067  02.08.2006

@<TRIPOS>MOLECULE
ASD01810426
  43   46    0    0    0
SMALL
NO_CHARGES


@<TRIPOS>ATOM
   1 C1            -0.0167     1.3817     0.0096 C.ar    
   2 C2             0.0021    -0.0041     0.0020 C.ar    
   3 C3             2.3107    -0.0685    -0.0204 C.ar    
   4 C4             2.3650     1.3365    -0.0133 C.ar    
   5 C5             1.1803     2.0752     0.0019 C.ar    
   6 N6             3.4741    -0.8024    -0.0344 N.pl3   
   7 C7             4.6900    -0.2399    -0.0420 C.2     
   8 C8             4.8695     1.1281    -0.0358 C.2     
   9 C9             3.6814     1.9983    -0.0219 C.2     
  10 O10            3.7827     3.2126    -0.0163 O.2     
  11 C11            6.2210     1.7061    -0.0440 C.2     
  12 C12            3.3792    -2.2643    -0.0408 C.3     
  13 C13            3.3340    -2.7585    -1.4638 C.ar    
  14 O14            7.1937     0.9772    -0.0564 O.2     
  15 O15            6.3817     3.0445    -0.0379 O.3     
  16 C16            4.5102    -3.0620    -2.1255 C.ar    
  17 C17            4.4746    -3.5150    -3.4287 C.ar    
  18 C18            3.2510    -3.6663    -4.0778 C.ar    
  19 C19            2.0693    -3.3590    -3.4065 C.ar    
  20 C20            2.1162    -2.9122    -2.1015 C.ar    
  21 C21            3.2065    -4.1525    -5.4792 C.ar    
  22 C22            1.9829    -4.3038    -6.1283 C.ar    
  23 C23            1.9474    -4.7563    -7.4317 C.ar    
  24 C24            3.1235    -5.0600    -8.0933 C.ar    
  25 C25            4.3410    -4.9120    -7.4536 C.ar    
  26 C26            4.3886    -4.4539    -6.1525 C.ar    
  27 N27            1.1321    -0.6792    -0.0124 N.ar    
  28 H28           -0.9560     1.9146     0.0170 H       
  29 H29           -0.9336    -0.5435     0.0084 H       
  30 H30            1.1979     3.1550     0.0072 H       
  31 H31            5.5601    -0.8796    -0.0530 H       
  32 H32            4.2483    -2.6870     0.4632 H       
  33 H33            2.4722    -2.5718     0.4796 H       
  34 H34            7.2894     3.3777    -0.0437 H       
  35 H35            5.4580    -2.9440    -1.6215 H       
  36 H36            5.3935    -3.7514    -3.9446 H       
  37 H37            1.1182    -3.4745    -3.9049 H       
  38 H38            1.2009    -2.6737    -1.5802 H       
  39 H39            1.0640    -4.0677    -5.6123 H       
  40 H40            0.9995    -4.8740    -7.9357 H       
  41 H41            3.0911    -5.4141    -9.1131 H       
  42 H42            5.2562    -5.1509    -7.9748 H       
  43 H43            5.3397    -4.3384    -5.6541 H       
@<TRIPOS>BOND
   1    1    2 ar
   2    1    5 ar
   3    1   28 1
   4    2   27 ar
   5    2   29 1
   6    3    4 ar
   7    3    6 1
   8    3   27 ar
   9    4    5 ar
  10    4    9 1
  11    5   30 1
  12    6    7 1
  13    6   12 1
  14    7    8 2
  15    7   31 1
  16    8    9 1
  17    8   11 1
  18    9   10 2
  19   11   14 2
  20   11   15 1
  21   12   13 1
  22   12   32 1
  23   12   33 1
  24   13   16 ar
  25   13   20 ar
  26   15   34 1
  27   16   17 ar
  28   16   35 1
  29   17   18 ar
  30   17   36 1
  31   18   19 ar
  32   18   21 1
  33   19   20 ar
  34   19   37 1
  35   20   38 1
  36   21   22 ar
  37   21   26 ar
  38   22   23 ar
  39   22   39 1
  40   23   24 ar
  41   23   40 1
  42   24   25 ar
  43   24   41 1
  44   25   26 ar
  45   25   42 1
  46   26   43 1

#	End of record

