#	Name: ASD06130001
#	Creating user name:	WinNT
#	Creation time:	15. 06. 2019 21:05

#	Modifying user name:	WinNT
#	Modification time:	15. 06. 2019 21:05

#	Program:	/corina/corina34_cracker 3.40 0067  02.08.2006

@<TRIPOS>MOLECULE
ASD06130001
  52   54    0    0    0
SMALL
NO_CHARGES


@<TRIPOS>ATOM
   1 C1            -0.0187     1.5267     0.0104 C.3     
   2 C2             0.0021    -0.0041     0.0020 C.3     
   3 C3            -1.4371    -0.5262    -0.0479 C.3     
   4 C4            -2.1360     0.0525    -1.2819 C.3     
   5 C5            -2.0742     1.5811    -1.2239 C.3     
   6 O6            -0.7097     1.9988    -1.1479 O.3     
   7 O7             1.3219     2.0215     0.0003 O.3     
   8 O8             0.6417    -0.4795     1.1881 O.3     
   9 O9            -1.4255    -1.9528    -0.1301 O.3     
  10 O10           -3.5011    -0.3699    -1.2996 O.3     
  11 O11           -2.7790     2.0431    -0.0698 O.3     
  12 P12           -3.5261     3.4680    -0.0107 P.3     
  13 O13           -2.4381     4.6494    -0.1235 O.3     
  14 O14           -4.4835     3.5701    -1.1347 O.2     
  15 O15           -4.3196     3.6005     1.3839 O.3     
  16 C16           -5.1673     4.7081     1.6948 C.3     
  17 C17           -5.7618     4.5189     3.0918 C.3     
  18 C18           -6.7787     5.6403     3.3999 C.3     
  19 C19           -6.5645     5.9394     4.9005 C.3     
  20 C20           -5.4436     4.9633     5.3216 C.3     
  21 O21           -4.7364     4.6638     4.0984 O.3     
  22 O22           -8.1127     5.1847     3.1655 O.3     
  23 O23           -7.7597     5.6777     5.6388 O.3     
  24 N24           -4.5458     5.6034     6.2861 N.am    
  25 C25           -4.4720     5.1304     7.5435 C.2     
  26 N26           -3.6557     5.6993     8.4499 N.am    
  27 C27           -2.8943     6.7585     8.1086 C.2     
  28 C28           -2.9618     7.2660     6.7886 C.2     
  29 C29           -3.7858     6.6732     5.8982 C.2     
  30 O30           -5.1528     4.1759     7.8657 O.2     
  31 O31           -2.1557     7.2740     8.9282 O.2     
  32 H32           -0.5292     1.8784     0.9070 H       
  33 H33            0.5478    -0.3561    -0.8734 H       
  34 H34           -1.9690    -0.2158     0.8515 H       
  35 H35           -1.6335    -0.2984    -2.1832 H       
  36 H36           -2.5325     1.9977    -2.1209 H       
  37 H37            1.3850     2.9865     0.0049 H       
  38 H38            1.5567    -0.1827     1.2875 H       
  39 H39           -0.9911    -2.3863     0.6173 H       
  40 H40           -4.0053    -0.0395    -2.0557 H       
  41 H41           -1.7773     4.6443     0.5824 H       
  42 H42           -4.5854     5.6294     1.6693 H       
  43 H43           -5.9723     4.7664     0.9622 H       
  44 H44           -6.2386     3.5419     3.1713 H       
  45 H45           -6.5652     6.5248     2.7998 H       
  46 H46           -6.2452     6.9718     5.0424 H       
  47 H47           -5.8711     4.0545     5.7450 H       
  48 H48           -8.7922     5.8493     3.3433 H       
  49 H49           -8.5135     6.2219     5.3727 H       
  50 H50           -3.6152     5.3461     9.3524 H       
  51 H51           -2.3598     8.1138     6.4969 H       
  52 H52           -3.8503     7.0462     4.8868 H       
@<TRIPOS>BOND
   1    1    2 1
   2    1    7 1
   3    1    6 1
   4    1   32 1
   5    2    3 1
   6    2    8 1
   7    2   33 1
   8    3    4 1
   9    3    9 1
  10    3   34 1
  11    4    5 1
  12    4   10 1
  13    4   35 1
  14    5    6 1
  15    5   11 1
  16    5   36 1
  17    7   37 1
  18    8   38 1
  19    9   39 1
  20   10   40 1
  21   11   12 1
  22   12   13 1
  23   12   14 2
  24   12   15 1
  25   13   41 1
  26   15   16 1
  27   16   17 1
  28   16   42 1
  29   16   43 1
  30   17   18 1
  31   17   21 1
  32   17   44 1
  33   18   19 1
  34   18   22 1
  35   18   45 1
  36   19   20 1
  37   19   23 1
  38   19   46 1
  39   20   21 1
  40   20   24 1
  41   20   47 1
  42   22   48 1
  43   23   49 1
  44   24   25 am
  45   24   29 1
  46   25   26 am
  47   25   30 2
  48   26   27 am
  49   26   50 1
  50   27   28 1
  51   27   31 2
  52   28   29 2
  53   28   51 1
  54   29   52 1

#	End of record

