#	Name: ASD05430658
#	Creating user name:	WinNT
#	Creation time:	15. 06. 2019 21:00

#	Modifying user name:	WinNT
#	Modification time:	15. 06. 2019 21:00

#	Program:	/corina/corina34_cracker 3.40 0067  02.08.2006

@<TRIPOS>MOLECULE
ASD05430658
  27   27    0    0    0
SMALL
NO_CHARGES


@<TRIPOS>ATOM
   1 C1            -0.0167     1.3782     0.0096 C.ar    
   2 C2             0.0021    -0.0041     0.0020 C.ar    
   3 C3            -1.1849    -0.7118     0.0091 C.ar    
   4 C4            -2.4106     1.3485     0.0439 C.ar    
   5 C5            -1.2224     2.0541     0.0305 C.ar    
   6 C6             1.2784     2.1488     0.0014 C.3     
   7 C7             1.3360     3.0361    -1.2437 C.3     
   8 C8             2.6508     3.8185    -1.2521 C.3     
   9 C9             1.2545     2.1623    -2.4969 C.3     
  10 C10           -2.3932    -0.0359     0.0243 C.ar    
  11 F11           -3.5542    -0.7267     0.0312 F       
  12 C12            1.3598     3.0227     1.2546 C.3     
  13 H13            0.9447    -0.5311    -0.0098 H       
  14 H14           -1.1700    -1.7917     0.0024 H       
  15 H15           -3.3525     1.8767     0.0606 H       
  16 H16           -1.2357     3.1339     0.0458 H       
  17 H17            2.1160     1.4515    -0.0104 H       
  18 H18            0.4983     3.7335    -1.2320 H       
  19 H19            3.4884     3.1212    -1.2638 H       
  20 H20            2.6918     4.4506    -2.1391 H       
  21 H21            2.7088     4.4411    -0.3592 H       
  22 H22            0.3178     1.6049    -2.4910 H       
  23 H23            1.2955     2.7944    -3.3840 H       
  24 H24            2.0922     1.4649    -2.5087 H       
  25 H25            2.2965     3.5801     1.2487 H       
  26 H26            0.5221     3.7201     1.2664 H       
  27 H27            1.3188     2.3906     2.1417 H       
@<TRIPOS>BOND
   1    1    2 ar
   2    1    6 1
   3    1    5 ar
   4    2    3 ar
   5    2   13 1
   6    3   10 ar
   7    3   14 1
   8    4    5 ar
   9    4   10 ar
  10    4   15 1
  11    5   16 1
  12    6    7 1
  13    6   12 1
  14    6   17 1
  15    7    8 1
  16    7    9 1
  17    7   18 1
  18    8   19 1
  19    8   20 1
  20    8   21 1
  21    9   22 1
  22    9   23 1
  23    9   24 1
  24   10   11 1
  25   12   25 1
  26   12   26 1
  27   12   27 1

#	End of record

