#	Name: ASD01840478
#	Creating user name:	WinNT
#	Creation time:	15. 06. 2019 19:37

#	Modifying user name:	WinNT
#	Modification time:	15. 06. 2019 19:37

#	Program:	/corina/corina34_cracker 3.40 0067  02.08.2006

@<TRIPOS>MOLECULE
ASD01840478
  42   45    0    0    0
SMALL
NO_CHARGES


@<TRIPOS>ATOM
   1 C1            -0.0173     1.4248     0.0099 C.3     
   2 O2             0.0021    -0.0041     0.0020 O.3     
   3 C3             0.6058    -0.6071    -1.0557 C.ar    
   4 C4             1.1730     0.1607    -2.0624 C.ar    
   5 C5             1.7865    -0.4547    -3.1363 C.ar    
   6 C6             1.8352    -1.8346    -3.2086 C.ar    
   7 C7             2.5046    -2.5033    -4.3815 C.3     
   8 N8             3.9227    -2.7134    -4.0797 N.am    
   9 C9             4.7256    -3.3002    -4.9894 C.2     
  10 O10            4.2722    -3.6558    -6.0623 O.2     
  11 C11            6.0978    -3.5035    -4.6974 C.2     
  12 S12            6.9168    -3.0589    -3.1963 S.3     
  13 C13            8.5164    -3.6423    -3.6663 C.2     
  14 N14            9.6715    -3.6558    -3.0485 N.2     
  15 N15           10.8047    -4.1908    -3.6649 N.pl3   
  16 C16           12.0893    -4.3328    -3.2739 C.2     
  17 N17           12.7441    -4.9080    -4.2532 N.2     
  18 N18           11.9532    -5.1395    -5.2414 N.2     
  19 C19           10.7317    -4.7144    -4.9329 C.2     
  20 C20            9.5190    -4.7189    -5.6278 C.2     
  21 C21            9.4418    -5.2935    -7.0188 C.3     
  22 C22            8.3761    -4.1859    -5.0191 C.2     
  23 C23            7.0159    -4.0818    -5.5237 C.2     
  24 N24            6.6703    -4.5444    -6.7852 N.pl3   
  25 C25            1.2710    -2.6021    -2.2063 C.ar    
  26 C26            0.6609    -1.9915    -1.1277 C.ar    
  27 H27            1.0053     1.8021     0.0021 H       
  28 H28           -0.5445     1.7859    -0.8732 H       
  29 H29           -0.5275     1.7763     0.9067 H       
  30 H30            1.1347     1.2385    -2.0068 H       
  31 H31            2.2283     0.1425    -3.9203 H       
  32 H32            2.0276    -3.4646    -4.5726 H       
  33 H33            2.4108    -1.8695    -5.2632 H       
  34 H34            4.2839    -2.4302    -3.2252 H       
  35 H35           12.5034    -4.0267    -2.3245 H       
  36 H36           10.4252    -5.6571    -7.3168 H       
  37 H37            8.7299    -6.1188    -7.0320 H       
  38 H38            9.1144    -4.5201    -7.7137 H       
  39 H39            5.7564    -4.4600    -7.0992 H       
  40 H40            7.3426    -4.9523    -7.3532 H       
  41 H41            1.3106    -3.6797    -2.2649 H       
  42 H42            0.2237    -2.5913    -0.3432 H       
@<TRIPOS>BOND
   1    1    2 1
   2    1   27 1
   3    1   28 1
   4    1   29 1
   5    2    3 1
   6    3   26 ar
   7    3    4 ar
   8    4    5 ar
   9    4   30 1
  10    5    6 ar
  11    5   31 1
  12    6    7 1
  13    6   25 ar
  14    7    8 1
  15    7   32 1
  16    7   33 1
  17    8    9 am
  18    8   34 1
  19    9   10 2
  20    9   11 1
  21   11   23 2
  22   11   12 1
  23   12   13 1
  24   13   22 1
  25   13   14 2
  26   14   15 1
  27   15   19 1
  28   15   16 1
  29   16   17 2
  30   16   35 1
  31   17   18 1
  32   18   19 2
  33   19   20 1
  34   20   21 1
  35   20   22 2
  36   21   36 1
  37   21   37 1
  38   21   38 1
  39   22   23 1
  40   23   24 1
  41   24   39 1
  42   24   40 1
  43   25   26 ar
  44   25   41 1
  45   26   42 1

#	End of record

