#	Name: ASD01670067
#	Creating user name:	WinNT
#	Creation time:	15. 06. 2019 19:22

#	Modifying user name:	WinNT
#	Modification time:	15. 06. 2019 19:22

#	Program:	/corina/corina34_cracker 3.40 0067  02.08.2006

@<TRIPOS>MOLECULE
ASD01670067
  60   63    0    0    0
SMALL
NO_CHARGES


@<TRIPOS>ATOM
   1 C1            -0.1734     0.9731    -1.2274 C.ar    
   2 C2            -0.0228    -0.3988    -1.1329 C.ar    
   3 C3             0.8924     1.8073    -0.9588 C.ar    
   4 C4             1.1958    -0.9438    -0.7685 C.ar    
   5 C5             4.7078    -5.1117     1.0042 C.ar    
   6 C6             3.3529     6.5741     0.4761 C.ar    
   7 C7             4.1275     6.3070    -1.7756 C.ar    
   8 C8             4.5209    -6.4823     0.9352 C.ar    
   9 C9             3.0024     7.8822     0.2033 C.ar    
  10 C10            3.7788     7.6145    -2.0535 C.ar    
  11 C11            2.1242     1.2641    -0.5911 C.ar    
  12 C12            4.2050    -4.9205    -1.3385 C.ar    
  13 C13            3.9146     5.7871    -0.5122 C.ar    
  14 C14            2.2692    -0.1212    -0.4972 C.ar    
  15 C15            4.5528    -4.3302    -0.1197 C.ar    
  16 C16            4.1761    -7.0827    -0.2640 C.ar    
  17 C17            4.0160    -6.3062    -1.4087 C.ar    
  18 C18            3.2146     8.4061    -1.0637 C.ar    
  19 C19            3.2706     2.1518    -0.3023 C.2     
  20 C20            4.0376    -4.0882    -2.5436 C.2     
  21 C21            3.2372    -8.3511    -1.8434 C.3     
  22 C22            2.7769    -2.5021     1.3156 C.3     
  23 C23            3.1175    10.1647    -2.6605 C.3     
  24 C24            4.2959     4.3604    -0.2119 C.3     
  25 C25            3.5955    -0.7164    -0.1000 C.3     
  26 C26            4.7577    -2.8396    -0.0353 C.3     
  27 N27            3.1599     3.4807    -0.4980 N.am    
  28 N28            3.4530    -2.1703     0.0544 N.3     
  29 O29            4.9877    -3.8722    -3.2696 O.2     
  30 O30            4.3130     1.6832     0.1117 O.2     
  31 O31            2.8309    -3.5668    -2.8401 O.3     
  32 O32            3.9401    -8.3882    -0.5872 O.3     
  33 O33            3.6817    -7.1216    -2.4471 O.3     
  34 O34            2.8703     9.6925    -1.3347 O.3     
  35 H35           -1.1260     1.3920    -1.5163 H       
  36 H36           -0.8602    -1.0473    -1.3443 H       
  37 H37            0.7737     2.8781    -1.0332 H       
  38 H38            1.3065    -2.0157    -0.6959 H       
  39 H39            4.9722    -4.6526     1.9453 H       
  40 H40            3.1920     6.1671     1.4635 H       
  41 H41            4.5664     5.6903    -2.5460 H       
  42 H42            4.6450    -7.0864     1.8218 H       
  43 H43            2.5633     8.4964     0.9755 H       
  44 H44            3.9456     8.0203    -3.0404 H       
  45 H45            3.5148    -9.2039    -2.4629 H       
  46 H46            2.1599    -8.3303    -1.6790 H       
  47 H47            1.8298    -1.9654     1.3723 H       
  48 H48            2.5894    -3.5751     1.3561 H       
  49 H49            3.4096    -2.2119     2.1544 H       
  50 H50            4.1832    10.0947    -2.8783 H       
  51 H51            2.5604     9.5561    -3.3728 H       
  52 H52            2.7976    11.2035    -2.7418 H       
  53 H53            5.1440     4.0725    -0.8332 H       
  54 H54            4.5689     4.2710     0.8396 H       
  55 H55            4.3350    -0.5037    -0.8719 H       
  56 H56            3.9208    -0.2809     0.8448 H       
  57 H57            5.3487    -2.6035     0.8496 H       
  58 H58            5.2828    -2.4940    -0.9258 H       
  59 H59            2.3281     3.8547    -0.8284 H       
  60 H60            2.7703    -3.0277    -3.6405 H       
@<TRIPOS>BOND
   1    1    2 ar
   2    1    3 ar
   3    1   35 1
   4    2    4 ar
   5    2   36 1
   6    3   11 ar
   7    3   37 1
   8    4   14 ar
   9    4   38 1
  10    5    8 ar
  11    5   15 ar
  12    5   39 1
  13    6    9 ar
  14    6   13 ar
  15    6   40 1
  16    7   10 ar
  17    7   13 ar
  18    7   41 1
  19    8   16 ar
  20    8   42 1
  21    9   18 ar
  22    9   43 1
  23   10   18 ar
  24   10   44 1
  25   11   14 ar
  26   11   19 1
  27   12   15 ar
  28   12   17 ar
  29   12   20 1
  30   13   24 1
  31   14   25 1
  32   15   26 1
  33   16   17 ar
  34   16   32 1
  35   17   33 1
  36   18   34 1
  37   19   27 am
  38   19   30 2
  39   20   29 2
  40   20   31 1
  41   21   32 1
  42   21   33 1
  43   21   45 1
  44   21   46 1
  45   22   28 1
  46   22   47 1
  47   22   48 1
  48   22   49 1
  49   23   34 1
  50   23   50 1
  51   23   51 1
  52   23   52 1
  53   24   27 1
  54   24   53 1
  55   24   54 1
  56   25   28 1
  57   25   55 1
  58   25   56 1
  59   26   28 1
  60   26   57 1
  61   26   58 1
  62   27   59 1
  63   31   60 1

#	End of record

