#	Name: ASD02198571
#	Creating user name:	WinNT
#	Creation time:	15. 06. 2019 20:19

#	Modifying user name:	WinNT
#	Modification time:	15. 06. 2019 20:19

#	Program:	/corina/corina34_cracker 3.40 0067  02.08.2006

@<TRIPOS>MOLECULE
ASD02198571
  53   57    0    0    0
SMALL
NO_CHARGES


@<TRIPOS>ATOM
   1 C1            -0.1659     1.4126     0.0545 C.2     
   2 C2            -0.1728     0.0953    -0.2874 C.2     
   3 N3            -1.3378    -0.5542    -0.5147 N.pl3   
   4 N4            -2.4861     0.0085    -0.4273 N.2     
   5 C5            -2.6224     1.2782    -0.1050 C.2     
   6 C6            -1.4171     2.0728     0.1682 C.2     
   7 C7            -1.2864    -1.9081    -0.8632 C.ar    
   8 C8            -1.8508    -3.6884    -2.3729 C.ar    
   9 C9            -1.1843    -4.5897    -1.5531 C.ar    
  10 C10           -0.5740    -4.1479    -0.3855 C.ar    
  11 C11           -0.6251    -2.8127    -0.0416 C.ar    
  12 C12           -3.9634     1.8911    -0.0147 C.2     
  13 N13           -4.4863     2.5449     1.0653 N.pl3   
  14 N14           -5.7777     2.9661     0.7249 N.2     
  15 C15           -6.0336     2.5893    -0.5025 C.2     
  16 C16           -4.9200     1.9164    -1.0056 C.2     
  17 C17           -3.8457     2.7553     2.2930 C.ar    
  18 C18           -3.0936     1.7396     2.8685 C.ar    
  19 O19           -1.4886     3.2551     0.4714 O.2     
  20 C20           -3.9566     3.9819     2.9345 C.ar    
  21 C21           -3.3238     4.1862     4.1450 C.ar    
  22 C22           -2.5804     3.1709     4.7183 C.ar    
  23 C23           -2.4632     1.9502     4.0792 C.ar    
  24 C24           -1.9025    -2.3506    -2.0300 C.ar    
  25 F25           -2.5510    -1.4731    -2.8267 F       
  26 O26            1.0006     2.0728     0.2851 O.3     
  27 C27            2.2087     1.3212     0.1518 C.3     
  28 N28           -1.1319    -5.9442    -1.9002 N.am    
  29 C29           -1.7801    -6.4846    -2.9464 C.2     
  30 C30           -0.3572    -6.9562    -1.1724 C.3     
  31 C31           -0.9323    -8.3176    -1.6222 C.3     
  32 C32           -1.5064    -7.9708    -3.0167 C.3     
  33 O33           -2.4826    -5.8703    -3.7211 O.2     
  34 H34            0.7622    -0.4375    -0.3787 H       
  35 H35           -2.3247    -4.0321    -3.2805 H       
  36 H36           -0.0559    -4.8496     0.2514 H       
  37 H37           -0.1507    -2.4704     0.8662 H       
  38 H38           -6.9532     2.7725    -1.0383 H       
  39 H39           -4.8272     1.4866    -1.9921 H       
  40 H40           -3.0021     0.7859     2.3701 H       
  41 H41           -4.5368     4.7754     2.4872 H       
  42 H42           -3.4095     5.1401     4.6443 H       
  43 H43           -2.0862     3.3332     5.6648 H       
  44 H44           -1.8822     1.1590     4.5296 H       
  45 H45            2.1987     0.4894     0.8561 H       
  46 H46            2.2864     0.9356    -0.8648 H       
  47 H47            3.0624     1.9654     0.3623 H       
  48 H48            0.6977    -6.8862    -1.4374 H       
  49 H49           -0.4861    -6.8289    -0.0975 H       
  50 H50           -0.1445    -9.0667    -1.7017 H       
  51 H51           -1.7191    -8.6514    -0.9457 H       
  52 H52           -2.4302    -8.5208    -3.1964 H       
  53 H53           -0.7748    -8.1874    -3.7951 H       
@<TRIPOS>BOND
   1    1    2 2
   2    1   26 1
   3    1    6 1
   4    2    3 1
   5    2   34 1
   6    3    4 1
   7    3    7 1
   8    4    5 2
   9    5    6 1
  10    5   12 1
  11    6   19 2
  12    7   24 ar
  13    7   11 ar
  14    8    9 ar
  15    8   24 ar
  16    8   35 1
  17    9   10 ar
  18    9   28 1
  19   10   11 ar
  20   10   36 1
  21   11   37 1
  22   12   13 1
  23   12   16 2
  24   13   14 1
  25   13   17 1
  26   14   15 2
  27   15   16 1
  28   15   38 1
  29   16   39 1
  30   17   20 ar
  31   17   18 ar
  32   18   23 ar
  33   18   40 1
  34   20   21 ar
  35   20   41 1
  36   21   22 ar
  37   21   42 1
  38   22   23 ar
  39   22   43 1
  40   23   44 1
  41   24   25 1
  42   26   27 1
  43   27   45 1
  44   27   46 1
  45   27   47 1
  46   28   29 am
  47   28   30 1
  48   29   33 2
  49   29   32 1
  50   30   31 1
  51   30   48 1
  52   30   49 1
  53   31   32 1
  54   31   50 1
  55   31   51 1
  56   32   52 1
  57   32   53 1

#	End of record

