#	Name: ASD03330196
#	Creating user name:	WinNT
#	Creation time:	15. 06. 2019 20:36

#	Modifying user name:	WinNT
#	Modification time:	15. 06. 2019 20:36

#	Program:	/corina/corina34_cracker 3.40 0067  02.08.2006

@<TRIPOS>MOLECULE
ASD03330196
  48   51    0    0    0
SMALL
NO_CHARGES


@<TRIPOS>ATOM
   1 C1            -0.5691     0.5148    -2.9704 C.ar    
   2 C2            -1.3067     1.4577    -2.2763 C.ar    
   3 C3            -2.3836     1.0436    -1.5100 C.ar    
   4 C4            -2.6827    -0.3158    -1.4688 C.ar    
   5 C5            -1.8959    -1.2016    -2.1926 C.ar    
   6 N6            -0.8822    -0.7659    -2.9140 N.ar    
   7 N7            -3.7614    -0.7828    -0.7078 N.am    
   8 C8            -4.8814    -0.0409    -0.6002 C.2     
   9 N9            -5.9532    -0.5297     0.0546 N.am    
  10 O10           -4.9249     1.0695    -1.0938 O.2     
  11 C11           -7.0763     0.2795     0.2608 C.ar    
  12 C12           -8.3439    -0.2818     0.2654 C.ar    
  13 C13           -9.4586     0.5275     0.4714 C.ar    
  14 C14           -9.2934     1.8968     0.6717 C.ar    
  15 C15           -8.0275     2.4481     0.6652 C.ar    
  16 C16           -6.9207     1.6450     0.4666 C.ar    
  17 C17          -10.8180    -0.0664     0.4771 C.ar    
  18 N18          -10.9660    -1.3718     0.2850 N.ar    
  19 C19          -11.9252     0.7490     0.6894 C.ar    
  20 C20          -13.1914     0.1842     0.6928 C.ar    
  21 C21          -13.3095    -1.1789     0.4837 C.ar    
  22 C22          -12.1608    -1.9393     0.2829 C.ar    
  23 N23          -12.2711    -3.3087     0.0723 N.3     
  24 C24          -10.9441    -3.9227    -0.1175 C.3     
  25 C25          -10.7964    -5.0304     0.9467 C.3     
  26 C26          -12.2672    -5.3628     1.3116 C.3     
  27 C27          -12.9360    -3.9688     1.2160 C.3     
  28 Cl28           0.7821     1.0243    -3.9340 Cl      
  29 H29           -1.0456     2.5042    -2.3312 H       
  30 H30           -2.9766     1.7575    -0.9577 H       
  31 H31           -2.1192    -2.2580    -2.1676 H       
  32 H32           -3.7025    -1.6402    -0.2582 H       
  33 H33           -5.9462    -1.4424     0.3830 H       
  34 H34           -8.4668    -1.3433     0.1093 H       
  35 H35          -10.1558     2.5269     0.8318 H       
  36 H36           -7.9017     3.5096     0.8200 H       
  37 H37           -5.9326     2.0811     0.4628 H       
  38 H38          -11.7997     1.8096     0.8499 H       
  39 H39          -14.0672     0.7950     0.8556 H       
  40 H40          -14.2821    -1.6483     0.4807 H       
  41 H41          -10.8751    -4.3556    -1.1154 H       
  42 H42          -10.1654    -3.1721     0.0181 H       
  43 H43          -10.2966    -5.9036     0.5273 H       
  44 H44          -10.2578    -4.6583     1.8182 H       
  45 H45          -12.7017    -6.0547     0.5900 H       
  46 H46          -12.3379    -5.7612     2.3237 H       
  47 H47          -12.7662    -3.4029     2.1319 H       
  48 H48          -14.0042    -4.0727     1.0255 H       
@<TRIPOS>BOND
   1    1    2 ar
   2    1   28 1
   3    1    6 ar
   4    2    3 ar
   5    2   29 1
   6    3    4 ar
   7    3   30 1
   8    4    5 ar
   9    4    7 1
  10    5    6 ar
  11    5   31 1
  12    7    8 am
  13    7   32 1
  14    8    9 am
  15    8   10 2
  16    9   11 1
  17    9   33 1
  18   11   12 ar
  19   11   16 ar
  20   12   13 ar
  21   12   34 1
  22   13   14 ar
  23   13   17 1
  24   14   15 ar
  25   14   35 1
  26   15   16 ar
  27   15   36 1
  28   16   37 1
  29   17   18 ar
  30   17   19 ar
  31   18   22 ar
  32   19   20 ar
  33   19   38 1
  34   20   21 ar
  35   20   39 1
  36   21   22 ar
  37   21   40 1
  38   22   23 1
  39   23   24 1
  40   23   27 1
  41   24   25 1
  42   24   41 1
  43   24   42 1
  44   25   26 1
  45   25   43 1
  46   25   44 1
  47   26   27 1
  48   26   45 1
  49   26   46 1
  50   27   47 1
  51   27   48 1

#	End of record

