#	Name: ASD07020007
#	Creating user name:	WinNT
#	Creation time:	15. 06. 2019 21:08

#	Modifying user name:	WinNT
#	Modification time:	15. 06. 2019 21:08

#	Program:	/corina/corina34_cracker 3.40 0067  02.08.2006

@<TRIPOS>MOLECULE
ASD07020007
  42   46    0    0    0
SMALL
NO_CHARGES


@<TRIPOS>ATOM
   1 C1             0.7963     0.3426    -0.7653 C.2     
   2 N2             0.0721    -0.0630     0.3095 N.pl3   
   3 C3             0.6458     0.5035     1.4180 C.2     
   4 C4             1.6937     1.2310     0.9862 C.2     
   5 C5            -1.0519    -0.9033     0.2891 C.ar    
   6 C6            -1.5220    -1.4048    -0.9169 C.ar    
   7 C7            -2.6277    -2.2314    -0.9366 C.ar    
   8 C8            -3.2691    -2.5607     0.2489 C.ar    
   9 C9            -2.7995    -2.0596     1.4545 C.ar    
  10 C10           -1.6904    -1.2376     1.4755 C.ar    
  11 O11           -4.3581    -3.3742     0.2290 O.3     
  12 C12           -4.1560    -4.7035     0.0645 C.ar    
  13 N13           -5.1916    -5.5248     0.1201 N.ar    
  14 C14           -5.0275    -6.8332    -0.0376 C.ar    
  15 C15           -3.7455    -7.3321    -0.2634 C.ar    
  16 C16           -2.6907    -6.4401    -0.3143 C.ar    
  17 N17           -2.9283    -5.1471    -0.1533 N.ar    
  18 O18           -6.0908    -7.6711     0.0204 O.3     
  19 C19           -7.3023    -7.1439     0.3415 C.ar    
  20 C20           -8.0275    -6.4431    -0.6104 C.ar    
  21 C21           -9.2595    -5.9061    -0.2862 C.ar    
  22 C22           -9.7729    -6.0666     0.9901 C.ar    
  23 C23           -9.0463    -6.7702     1.9480 C.ar    
  24 C24           -7.8150    -7.3120     1.6194 C.ar    
  25 O25          -10.9426    -5.6432     1.5543 O.3     
  26 C26          -11.1079    -6.4419     2.7409 C.3     
  27 O27           -9.7602    -6.7873     3.1114 O.3     
  28 N28            1.7622     1.1152    -0.3481 N.2     
  29 H29            0.6075     0.0682    -1.7926 H       
  30 H30            0.3200     0.3886     2.4413 H       
  31 H31            2.3627     1.8083     1.6071 H       
  32 H32           -1.0230    -1.1482    -1.8397 H       
  33 H33           -2.9937    -2.6213    -1.8749 H       
  34 H34           -3.2990    -2.3162     2.3770 H       
  35 H35           -1.3222    -0.8512     2.4144 H       
  36 H36           -3.5802    -8.3912    -0.3951 H       
  37 H37           -1.6848    -6.7932    -0.4870 H       
  38 H38           -7.6291    -6.3162    -1.6062 H       
  39 H39           -9.8222    -5.3604    -1.0291 H       
  40 H40           -7.2520    -7.8617     2.3592 H       
  41 H41          -11.5851    -5.8610     3.5301 H       
  42 H42          -11.6866    -7.3390     2.5210 H       
@<TRIPOS>BOND
   1    1    2 1
   2    1   28 2
   3    1   29 1
   4    2    3 1
   5    2    5 1
   6    3    4 2
   7    3   30 1
   8    4   28 1
   9    4   31 1
  10    5    6 ar
  11    5   10 ar
  12    6    7 ar
  13    6   32 1
  14    7    8 ar
  15    7   33 1
  16    8    9 ar
  17    8   11 1
  18    9   10 ar
  19    9   34 1
  20   10   35 1
  21   11   12 1
  22   12   13 ar
  23   12   17 ar
  24   13   14 ar
  25   14   15 ar
  26   14   18 1
  27   15   16 ar
  28   15   36 1
  29   16   17 ar
  30   16   37 1
  31   18   19 1
  32   19   20 ar
  33   19   24 ar
  34   20   21 ar
  35   20   38 1
  36   21   22 ar
  37   21   39 1
  38   22   23 ar
  39   22   25 1
  40   23   24 ar
  41   23   27 1
  42   24   40 1
  43   25   26 1
  44   26   27 1
  45   26   41 1
  46   26   42 1

#	End of record

