#	Name: ASD03090344
#	Creating user name:	WinNT
#	Creation time:	15. 06. 2019 20:28

#	Modifying user name:	WinNT
#	Modification time:	15. 06. 2019 20:28

#	Program:	/corina/corina34_cracker 3.40 0067  02.08.2006

@<TRIPOS>MOLECULE
ASD03090344
  50   53    0    0    0
SMALL
NO_CHARGES


@<TRIPOS>ATOM
   1 N1             0.4149     1.4969     1.4565 N.ar    
   2 C2             0.3856     0.1729     1.4344 C.ar    
   3 C3             1.5267    -0.5569     1.1266 C.ar    
   4 C4             2.7093     0.1275     0.8398 C.ar    
   5 C5             2.6903     1.5275     0.8760 C.ar    
   6 C6             1.5151     2.1756     1.1907 C.ar    
   7 C7             3.9506    -0.6071     0.5068 C.2     
   8 N8             5.7560    -3.4413    -0.5231 N.pl3   
   9 C9             4.8379    -4.4384    -0.8725 C.ar    
  10 C10            3.6230    -4.0925    -1.4485 C.ar    
  11 C11            2.7152    -5.0796    -1.7943 C.ar    
  12 C12            3.0235    -6.4181    -1.5634 C.ar    
  13 C13            4.2371    -6.7592    -0.9886 C.ar    
  14 C14            5.1445    -5.7742    -0.6484 C.ar    
  15 N15            4.0263    -1.8623     0.1129 N.2     
  16 C16            5.3013    -2.1915    -0.0983 C.2     
  17 N17            6.0604    -1.1505     0.1576 N.2     
  18 N18            5.2055    -0.1069     0.5475 N.pl3   
  19 C19            5.5970     1.2519     0.9303 C.3     
  20 C20            5.6918     2.1270    -0.3211 C.3     
  21 C21            5.9781     3.5732     0.0883 C.3     
  22 O22            1.4757    -5.0089    -2.3619 O.3     
  23 C23            1.2002    -6.3348    -2.8509 C.3     
  24 O24            1.9760    -7.1861    -1.9869 O.3     
  25 F25           -0.1628    -6.6281    -2.7352 F       
  26 F26            1.6217    -6.4666    -4.1784 F       
  27 O27            6.7486     1.6504    -1.1566 O.3     
  28 N28           -0.8000    -0.4936     1.7228 N.pl3   
  29 C29           -0.8413    -1.9579     1.7005 C.3     
  30 C30           -2.2525    -2.4337     2.0509 C.3     
  31 H31            1.4996    -1.6364     1.1097 H       
  32 H32            3.5853     2.0922     0.6604 H       
  33 H33            1.4945     3.2550     1.2201 H       
  34 H34            6.7082    -3.6187    -0.5761 H       
  35 H35            3.3857    -3.0540    -1.6264 H       
  36 H36            4.4758    -7.7971    -0.8093 H       
  37 H37            6.0899    -6.0429    -0.2008 H       
  38 H38            4.8515     1.6673     1.6085 H       
  39 H39            6.5660     1.2241     1.4286 H       
  40 H40            4.7493     2.0837    -0.8670 H       
  41 H41            6.9205     3.6165     0.6342 H       
  42 H42            6.0456     4.1966    -0.8033 H       
  43 H43            5.1720     3.9367     0.7256 H       
  44 H44            7.6186     1.6606    -0.7347 H       
  45 H45           -1.5999     0.0108     1.9387 H       
  46 H46           -0.5744    -2.3138     0.7054 H       
  47 H47           -0.1333    -2.3524     2.4294 H       
  48 H48           -2.5194    -2.0778     3.0460 H       
  49 H49           -2.9604    -2.0392     1.3220 H       
  50 H50           -2.2832    -3.5232     2.0344 H       
@<TRIPOS>BOND
   1    1    2 ar
   2    1    6 ar
   3    2    3 ar
   4    2   28 1
   5    3    4 ar
   6    3   31 1
   7    4    5 ar
   8    4    7 1
   9    5    6 ar
  10    5   32 1
  11    6   33 1
  12    7   15 2
  13    7   18 1
  14    8    9 1
  15    8   16 1
  16    8   34 1
  17    9   10 ar
  18    9   14 ar
  19   10   11 ar
  20   10   35 1
  21   11   12 ar
  22   11   22 1
  23   12   13 ar
  24   12   24 1
  25   13   14 ar
  26   13   36 1
  27   14   37 1
  28   15   16 1
  29   16   17 2
  30   17   18 1
  31   18   19 1
  32   19   20 1
  33   19   38 1
  34   19   39 1
  35   20   21 1
  36   20   27 1
  37   20   40 1
  38   21   41 1
  39   21   42 1
  40   21   43 1
  41   22   23 1
  42   23   24 1
  43   23   25 1
  44   23   26 1
  45   27   44 1
  46   28   29 1
  47   28   45 1
  48   29   30 1
  49   29   46 1
  50   29   47 1
  51   30   48 1
  52   30   49 1
  53   30   50 1

#	End of record

