#	Name: ASD01811378
#	Creating user name:	WinNT
#	Creation time:	15. 06. 2019 19:26

#	Modifying user name:	WinNT
#	Modification time:	15. 06. 2019 19:26

#	Program:	/corina/corina34_cracker 3.40 0067  02.08.2006

@<TRIPOS>MOLECULE
ASD01811378
  20   20    0    0    0
SMALL
NO_CHARGES


@<TRIPOS>ATOM
   1 C1            -0.1288     1.4643    -0.0665 C.2     
   2 C2            -0.0508    -0.0072    -0.0350 C.ar    
   3 C3            -1.2164    -0.7834    -0.0491 C.ar    
   4 C4            -1.0889    -2.1603    -0.0187 C.ar    
   5 C5             0.1731    -2.7261     0.0243 C.ar    
   6 N6             1.2579    -1.9763     0.0369 N.ar    
   7 C7             1.1929    -0.6560     0.0038 C.ar    
   8 O8             0.8895     2.1271    -0.0539 O.2     
   9 O9            -1.3293     2.0745    -0.1150 O.3     
  10 N10           -2.2926    -3.0216    -0.0317 N.pl3   
  11 O11           -2.2829    -4.0725    -0.6473 O.2     
  12 O12           -3.2928    -2.6793     0.5733 O.2     
  13 C13            0.3104    -4.2265     0.0579 C.3     
  14 O14            2.3331     0.0745     0.0129 O.3     
  15 H15           -2.1907    -0.3184    -0.0826 H       
  16 H16           -1.3299     3.0413    -0.1341 H       
  17 H17            0.2699    -4.6179    -0.9586 H       
  18 H18            1.2643    -4.4940     0.5124 H       
  19 H19           -0.5036    -4.6528     0.6441 H       
  20 H20            2.6460     0.3043     0.8986 H       
@<TRIPOS>BOND
   1    1    2 1
   2    1    8 2
   3    1    9 1
   4    2    3 ar
   5    2    7 ar
   6    3    4 ar
   7    3   15 1
   8    4    5 ar
   9    4   10 1
  10    5    6 ar
  11    5   13 1
  12    6    7 ar
  13    7   14 1
  14    9   16 1
  15   10   11 2
  16   10   12 2
  17   13   17 1
  18   13   18 1
  19   13   19 1
  20   14   20 1

#	End of record

