#	Name: ASD00844926
#	Creating user name:	WinNT
#	Creation time:	15. 06. 2019 18:51

#	Modifying user name:	WinNT
#	Modification time:	15. 06. 2019 18:51

#	Program:	/corina/corina34_cracker 3.40 0067  02.08.2006

@<TRIPOS>MOLECULE
ASD00844926
  90   95    0    0    0
SMALL
NO_CHARGES


@<TRIPOS>ATOM
   1 F1             5.6844    -1.9874    -2.1636 F       
   2 C2             0.6467     1.3386    -0.6725 C.ar    
   3 C3             0.9322    -0.0024    -0.8826 C.ar    
   4 C4             0.8446    -0.9013     0.1707 C.ar    
   5 C5             0.4737    -0.4589     1.4255 C.ar    
   6 C6             0.1892     0.8784     1.6323 C.ar    
   7 C7             0.2761     1.7761     0.5846 C.ar    
   8 C8             1.1536    -2.3591    -0.0542 C.3     
   9 C9             0.8651    -3.1612     1.1966 C.2     
  10 C10            0.3465    -2.9003    -1.2359 C.3     
  11 C11           -1.1183    -2.6266    -1.0114 C.2     
  12 N12           -2.0298    -3.0630    -1.9031 N.am    
  13 O13           -1.4768    -2.0135    -0.0283 O.2     
  14 C14           -3.4470    -2.7018    -1.7625 C.3     
  15 C15           -4.2862    -3.9833    -1.7769 C.3     
  16 C16           -3.9642    -4.7850    -3.0401 C.3     
  17 C17           -2.4848    -5.1766    -3.0345 C.3     
  18 C18           -1.6243    -3.9039    -3.0375 C.3     
  19 C19           -4.8258    -6.0489    -3.0751 C.3     
  20 C20           -6.3065    -5.6588    -3.0824 C.3     
  21 C21           -7.1619    -6.9241    -3.1790 C.3     
  22 N22           -6.8232    -7.6529    -4.4080 N.3     
  23 C23           -5.4179    -8.0790    -4.4025 C.3     
  24 C24           -4.5104    -6.8482    -4.3425 C.3     
  25 H25           -7.4394    -8.4404    -4.5429 H       
  26 O26           -0.2113    -3.2813     1.7426 O.2     
  27 N27            2.0243    -3.7157     1.5886 N.am    
  28 C28            2.6346    -2.5569    -0.2856 C.ar    
  29 C29            3.0834    -3.3816     0.7410 C.ar    
  30 C30            3.4978    -2.0914    -1.2528 C.ar    
  31 C31            4.8361    -2.4422    -1.2155 C.ar    
  32 C32            5.3052    -3.2704    -0.1908 C.ar    
  33 C33            4.4259    -3.7386     0.7851 C.ar    
  34 C34            1.9013    -6.3432     2.3981 C.ar    
  35 C35            0.6541    -6.7208     1.9227 C.ar    
  36 C36            2.9266    -7.2676     2.4547 C.ar    
  37 C37            2.7105    -8.5678     2.0375 C.ar    
  38 C38            1.4680    -8.9467     1.5631 C.ar    
  39 C39            0.4396    -8.0265     1.5050 C.ar    
  40 H40            1.3017    -9.9630     1.2378 H       
  41 O41           -0.3561    -5.8135     1.8665 O.3     
  42 C42           -1.6133    -6.2727     1.3659 C.3     
  43 C43           -2.6189    -5.1196     1.3778 C.3     
  44 S44            2.1798    -4.6843     2.9227 S.o2    
  45 O45            3.5436    -4.6111     3.3149 O.2     
  46 O46            1.1032    -4.3511     3.7882 O.2     
  47 O47            1.2965    -0.4353    -2.1183 O.3     
  48 C48            1.2669     0.5244    -3.1767 C.3     
  49 C49            1.7839    -0.1204    -4.4643 C.3     
  50 F50            3.0638    -0.6405    -4.2441 F       
  51 F51            0.9208    -1.1524    -4.8481 F       
  52 C52            6.6883    -3.6385    -0.1443 C.1     
  53 N53            7.7856    -3.9305    -0.1073 N.1     
  54 H54            0.7185     2.0410    -1.4898 H       
  55 H55            0.4054    -1.1582     2.2458 H       
  56 H56           -0.1014     1.2222     2.6141 H       
  57 H57            0.0534     2.8201     0.7486 H       
  58 H58            0.6715    -2.4093    -2.1532 H       
  59 H59            0.5061    -3.9751    -1.3230 H       
  60 H60           -3.5984    -2.1764    -0.8196 H       
  61 H61           -3.7447    -2.0607    -2.5923 H       
  62 H62           -4.0517    -4.5817    -0.8966 H       
  63 H63           -5.3451    -3.7248    -1.7701 H       
  64 H64           -4.1757    -4.1771    -3.9198 H       
  65 H65           -2.2672    -5.7637    -2.1423 H       
  66 H66           -2.2614    -5.7674    -3.9229 H       
  67 H67           -1.7746    -3.3634    -3.9721 H       
  68 H68           -0.5732    -4.1733    -2.9338 H       
  69 H69           -4.6141    -6.6585    -2.1967 H       
  70 H70           -6.5470    -5.1262    -2.1623 H       
  71 H71           -6.5092    -5.0162    -3.9392 H       
  72 H72           -6.9688    -7.5598    -2.3149 H       
  73 H73           -8.2164    -6.6489    -3.1988 H       
  74 H74           -5.2330    -8.7094    -3.5326 H       
  75 H75           -5.2058    -8.6427    -5.3109 H       
  76 H76           -4.6850    -6.2243    -5.2191 H       
  77 H77           -3.4678    -7.1655    -4.3226 H       
  78 H78            3.1297    -1.4521    -2.0416 H       
  79 H79            4.7885    -4.3782     1.5762 H       
  80 H80            3.8979    -6.9741     2.8248 H       
  81 H81            3.5134    -9.2887     2.0819 H       
  82 H82           -0.5307    -8.3231     1.1351 H       
  83 H83           -1.4878    -6.6348     0.3455 H       
  84 H84           -1.9815    -7.0823     1.9960 H       
  85 H85           -3.5779    -5.4699     0.9959 H       
  86 H86           -2.7444    -4.7575     2.3982 H       
  87 H87           -2.2507    -4.3100     0.7476 H       
  88 H88            0.2434     0.8674    -3.3276 H       
  89 H89            1.8996     1.3727    -2.9158 H       
  90 H90            1.8273     0.6296    -5.2541 H       
@<TRIPOS>BOND
   1    1   31 1
   2    2    3 ar
   3    2    7 ar
   4    2   54 1
   5    3    4 ar
   6    3   47 1
   7    4    5 ar
   8    4    8 1
   9    5    6 ar
  10    5   55 1
  11    6    7 ar
  12    6   56 1
  13    7   57 1
  14    8    9 1
  15    8   10 1
  16    8   28 1
  17    9   26 2
  18    9   27 am
  19   10   11 1
  20   10   58 1
  21   10   59 1
  22   11   12 am
  23   11   13 2
  24   12   14 1
  25   12   18 1
  26   14   15 1
  27   14   60 1
  28   14   61 1
  29   15   16 1
  30   15   62 1
  31   15   63 1
  32   16   17 1
  33   16   19 1
  34   16   64 1
  35   17   18 1
  36   17   65 1
  37   17   66 1
  38   18   67 1
  39   18   68 1
  40   19   20 1
  41   19   24 1
  42   19   69 1
  43   20   21 1
  44   20   70 1
  45   20   71 1
  46   21   22 1
  47   21   72 1
  48   21   73 1
  49   22   23 1
  50   22   25 1
  51   23   24 1
  52   23   74 1
  53   23   75 1
  54   24   76 1
  55   24   77 1
  56   27   44 am
  57   27   29 1
  58   28   29 ar
  59   28   30 ar
  60   29   33 ar
  61   30   31 ar
  62   30   78 1
  63   31   32 ar
  64   32   33 ar
  65   32   52 1
  66   33   79 1
  67   34   35 ar
  68   34   36 ar
  69   34   44 1
  70   35   41 1
  71   35   39 ar
  72   36   37 ar
  73   36   80 1
  74   37   38 ar
  75   37   81 1
  76   38   39 ar
  77   38   40 1
  78   39   82 1
  79   41   42 1
  80   42   43 1
  81   42   83 1
  82   42   84 1
  83   43   85 1
  84   43   86 1
  85   43   87 1
  86   44   45 2
  87   44   46 2
  88   47   48 1
  89   48   49 1
  90   48   88 1
  91   48   89 1
  92   49   50 1
  93   49   51 1
  94   49   90 1
  95   52   53 3

#	End of record

