#	Name: ASD03082201
#	Creating user name:	WinNT
#	Creation time:	15. 06. 2019 20:27

#	Modifying user name:	WinNT
#	Modification time:	15. 06. 2019 20:27

#	Program:	/corina/corina34_cracker 3.40 0067  02.08.2006

@<TRIPOS>MOLECULE
ASD03082201
  36   38    0    0    0
SMALL
NO_CHARGES


@<TRIPOS>ATOM
   1 N1             0.2555     1.8539    -0.2115 N.pl3   
   2 N2             0.0327     0.4684    -0.2633 N.2     
   3 C3             1.1816    -0.1138    -0.0056 C.2     
   4 N4             2.1068     0.8235     0.2036 N.2     
   5 C5             1.5644     2.0185     0.0831 C.2     
   6 N6             1.3990    -1.4922     0.0421 N.pl3   
   7 C7             0.3205    -2.3748    -0.0761 C.ar    
   8 C8             0.5248    -3.6627    -0.5549 C.ar    
   9 C9            -0.5415    -4.5324    -0.6708 C.ar    
  10 C10           -1.8139    -4.1215    -0.3101 C.ar    
  11 C11           -2.0200    -2.8384     0.1673 C.ar    
  12 C12           -0.9554    -1.9669     0.2903 C.ar    
  13 C13           -0.3205    -5.9296    -1.1906 C.3     
  14 F14            1.0352    -6.1082    -1.4860 F       
  15 F15           -0.7120    -6.8562    -0.2184 F       
  16 F16           -1.0796    -6.1213    -2.3500 F       
  17 C17            2.2453     5.6746     0.6335 C.ar    
  18 C18            1.5521     4.4900     0.4923 C.ar    
  19 C19            2.2649     3.3126     0.2417 C.ar    
  20 C20            3.6584     3.3923     0.1457 C.ar    
  21 C21            4.2706     4.6191     0.3006 C.ar    
  22 N22            3.5605     5.7056     0.5356 N.ar    
  23 C23           -0.7330     2.9111    -0.4381 C.3     
  24 O24           -1.3674     3.2430     0.7985 O.3     
  25 F25           -2.8558    -4.9739    -0.4248 F       
  26 H26            2.2981    -1.8376     0.1573 H       
  27 H27            1.5169    -3.9835    -0.8366 H       
  28 H28           -3.0132    -2.5200     0.4476 H       
  29 H29           -1.1158    -0.9676     0.6674 H       
  30 H30            1.7036     6.5896     0.8227 H       
  31 H31            0.4753     4.4720     0.5741 H       
  32 H32            4.2461     2.5068    -0.0465 H       
  33 H33            5.3458     4.6908     0.2282 H       
  34 H34           -0.2353     3.7939    -0.8396 H       
  35 H35           -1.4822     2.5618    -1.1486 H       
  36 H36           -2.0356     3.9380     0.7237 H       
@<TRIPOS>BOND
   1    1    2 1
   2    1    5 1
   3    1   23 1
   4    2    3 2
   5    3    4 1
   6    3    6 1
   7    4    5 2
   8    5   19 1
   9    6    7 1
  10    6   26 1
  11    7    8 ar
  12    7   12 ar
  13    8    9 ar
  14    8   27 1
  15    9   10 ar
  16    9   13 1
  17   10   11 ar
  18   10   25 1
  19   11   12 ar
  20   11   28 1
  21   12   29 1
  22   13   14 1
  23   13   15 1
  24   13   16 1
  25   17   18 ar
  26   17   22 ar
  27   17   30 1
  28   18   19 ar
  29   18   31 1
  30   19   20 ar
  31   20   21 ar
  32   20   32 1
  33   21   22 ar
  34   21   33 1
  35   23   24 1
  36   23   34 1
  37   23   35 1
  38   24   36 1

#	End of record

