#	Name: ASD01000028
#	Creating user name:	WinNT
#	Creation time:	15. 06. 2019 18:54

#	Modifying user name:	WinNT
#	Modification time:	15. 06. 2019 18:54

#	Program:	/corina/corina34_cracker 3.40 0067  02.08.2006

@<TRIPOS>MOLECULE
ASD01000028
  54   55    0    0    0
SMALL
NO_CHARGES


@<TRIPOS>ATOM
   1 C1            -2.2655     1.7742    -0.3968 C.ar    
   2 C2            -1.6343     0.5393    -0.4198 C.ar    
   3 C3            -2.3750    -0.6169    -0.2661 C.ar    
   4 C4            -3.7442    -0.5436    -0.0895 C.ar    
   5 C5            -4.3759     0.6864    -0.0666 C.ar    
   6 C6            -3.6390     1.8454    -0.2136 C.ar    
   7 C7            -1.6900    -1.9589    -0.2915 C.3     
   8 N8            -2.3114    -2.8055     0.7408 N.am    
   9 C9            -1.7263    -2.4751    -1.7157 C.2     
  10 C10           -2.3220    -3.6673    -1.9372 C.2     
  11 N11           -2.8718    -4.3812    -0.9124 N.am    
  12 C12           -2.8681    -3.9733     0.3629 C.2     
  13 C13           -1.1566    -1.7340    -2.7768 C.2     
  14 O14           -0.4549    -0.6114    -2.5153 O.3     
  15 S15           -3.5937    -4.9680     1.5524 S.2     
  16 O16           -1.2990    -2.1086    -3.9258 O.2     
  17 O17           -1.5391     2.9128    -0.5478 O.3     
  18 C18            0.0925     0.0873    -3.6352 C.3     
  19 C19            0.8481     1.3241    -3.1451 C.3     
  20 C20           -3.7046    -4.2578    -5.4575 C.3     
  21 C21           -3.5888    -3.6266    -4.0686 C.3     
  22 C22           -2.3807    -4.2174    -3.3390 C.3     
  23 C23           -2.0512    -9.2270    -1.4343 C.3     
  24 C24           -3.0882    -8.1084    -1.5536 C.3     
  25 C25           -2.4646    -6.7850    -1.1060 C.3     
  26 C26           -3.5016    -5.6664    -1.2252 C.3     
  27 H27           -0.5647     0.4815    -0.5581 H       
  28 H28           -4.3214    -1.4484     0.0305 H       
  29 H29           -5.4457     0.7410     0.0708 H       
  30 H30           -4.1328     2.8057    -0.1953 H       
  31 H31           -0.6464    -1.8054    -0.0168 H       
  32 H32           -2.3196    -2.5294     1.6707 H       
  33 H33           -1.4440     3.1998    -1.4663 H       
  34 H34            0.7781    -0.5680    -4.1725 H       
  35 H35           -0.7137     0.3943    -4.3014 H       
  36 H36            0.1625     1.9794    -2.6078 H       
  37 H37            1.6543     1.0171    -2.4789 H       
  38 H38            1.2656     1.8570    -3.9993 H       
  39 H39           -4.5653    -3.8368    -5.9773 H       
  40 H40           -2.7989    -4.0506    -6.0274 H       
  41 H41           -3.8322    -5.3356    -5.3572 H       
  42 H42           -3.4612    -2.5487    -4.1688 H       
  43 H43           -4.4945    -3.8338    -3.4986 H       
  44 H44           -1.4682    -3.9511    -3.8723 H       
  45 H45           -2.4751    -5.3026    -3.2997 H       
  46 H46           -1.1941    -8.9969    -2.0672 H       
  47 H47           -1.7252    -9.3112    -0.3976 H       
  48 H48           -2.4955   -10.1699    -1.7532 H       
  49 H49           -3.4143    -8.0242    -2.5903 H       
  50 H50           -3.9453    -8.3386    -0.9207 H       
  51 H51           -2.1386    -6.8692    -0.0693 H       
  52 H52           -1.6075    -6.5548    -1.7388 H       
  53 H53           -4.3172    -5.8510    -0.5261 H       
  54 H54           -3.8934    -5.6410    -2.2420 H       
@<TRIPOS>BOND
   1    1    2 ar
   2    1   17 1
   3    1    6 ar
   4    2    3 ar
   5    2   27 1
   6    3    4 ar
   7    3    7 1
   8    4    5 ar
   9    4   28 1
  10    5    6 ar
  11    5   29 1
  12    6   30 1
  13    7    8 1
  14    7    9 1
  15    7   31 1
  16    8   12 am
  17    8   32 1
  18    9   10 2
  19    9   13 1
  20   10   22 1
  21   10   11 1
  22   11   26 1
  23   11   12 am
  24   12   15 2
  25   13   14 1
  26   13   16 2
  27   14   18 1
  28   17   33 1
  29   18   19 1
  30   18   34 1
  31   18   35 1
  32   19   36 1
  33   19   37 1
  34   19   38 1
  35   20   21 1
  36   20   39 1
  37   20   40 1
  38   20   41 1
  39   21   22 1
  40   21   42 1
  41   21   43 1
  42   22   44 1
  43   22   45 1
  44   23   24 1
  45   23   46 1
  46   23   47 1
  47   23   48 1
  48   24   25 1
  49   24   49 1
  50   24   50 1
  51   25   26 1
  52   25   51 1
  53   25   52 1
  54   26   53 1
  55   26   54 1

#	End of record

