#	Name: ASD04882223
#	Creating user name:	WinNT
#	Creation time:	15. 06. 2019 20:54

#	Modifying user name:	WinNT
#	Modification time:	15. 06. 2019 20:54

#	Program:	/corina/corina34_cracker 3.40 0067  02.08.2006

@<TRIPOS>MOLECULE
ASD04882223
  69   73    0    0    0
SMALL
NO_CHARGES


@<TRIPOS>ATOM
   1 N1            -0.1363     1.5551    -0.0363 N.am    
   2 C2            -0.0765     0.1555    -0.0459 C.ar    
   3 C3            -1.2529    -0.5954     0.0294 C.ar    
   4 C4            -1.1950    -1.9843     0.0200 C.ar    
   5 C5             0.0210    -2.6254    -0.0639 C.ar    
   6 C6             1.2013    -1.8806    -0.1399 C.ar    
   7 C7             1.1456    -0.4840    -0.1354 C.ar    
   8 N8            -2.4846     0.0486     0.1143 N.3     
   9 C9            -2.6116     0.7769     1.3844 C.3     
  10 C10           -3.5901    -0.9045    -0.0558 C.3     
  11 C11           -4.9203    -0.1478    -0.0356 C.3     
  12 N12           -5.0473     0.5805     1.2345 N.3     
  13 C13           -3.9418     1.5336     1.4046 C.3     
  14 C14           -6.2828     1.2265     1.3197 C.ar    
  15 C15            2.5038    -2.5676    -0.2291 C.2     
  16 O16            3.5301    -1.9188    -0.2952 O.2     
  17 N17            2.5562    -3.9143    -0.2375 N.am    
  18 C18            0.8455     2.2676     0.5511 C.2     
  19 C19            0.8485     3.7306     0.4536 C.2     
  20 O20            1.7295     1.6965     1.1625 O.2     
  21 C21            1.7783     4.5692     0.9988 C.2     
  22 O22           -0.0634     4.4838    -0.1954 O.3     
  23 C23            0.2600     5.7777    -0.0723 C.2     
  24 C24            1.3922     5.8752     0.6589 C.2     
  25 C25           -0.5096     6.9341    -0.6567 C.3     
  26 C26           -7.1623     0.9141     2.3489 C.ar    
  27 C27           -6.6325     2.1866     0.3790 C.ar    
  28 C28           -7.8550     2.8235     0.4662 C.ar    
  29 C29           -8.7301     2.5065     1.4887 C.ar    
  30 C30           -8.3828     1.5546     2.4301 C.ar    
  31 C31           -6.7847    -0.1229     3.3751 C.3     
  32 C32            3.8496    -4.5966    -0.3262 C.3     
  33 C33            3.6326    -6.0878    -0.3171 C.ar    
  34 C34            3.4520    -6.7781    -1.5056 C.ar    
  35 C35            3.6168    -6.7855     0.8761 C.ar    
  36 N36            3.4284    -8.0904     0.8919 N.ar    
  37 C37            3.2484    -8.7786    -0.2187 C.ar    
  38 C38            3.2562    -8.1498    -1.4491 C.ar    
  39 H39           -0.8822     2.0115    -0.4560 H       
  40 H40           -2.1057    -2.5620     0.0790 H       
  41 H41            0.0627    -3.7046    -0.0706 H       
  42 H42            2.0559     0.0941    -0.1944 H       
  43 H43           -2.5829     0.0698     2.2135 H       
  44 H44           -1.7888     1.4851     1.4814 H       
  45 H45           -3.4806    -1.4221    -1.0088 H       
  46 H46           -3.5725    -1.6307     0.7569 H       
  47 H47           -4.9490     0.5593    -0.8646 H       
  48 H48           -5.7431    -0.8560    -0.1325 H       
  49 H49           -4.0513     2.0512     2.3576 H       
  50 H50           -3.9594     2.2598     0.5919 H       
  51 H51            1.7375    -4.4319    -0.1848 H       
  52 H52            2.6428     4.2830     1.5792 H       
  53 H53            1.9039     6.7867     0.9307 H       
  54 H54           -1.3766     6.5566    -1.1988 H       
  55 H55           -0.8414     7.5925     0.1461 H       
  56 H56            0.1326     7.4897    -1.3401 H       
  57 H57           -5.9491     2.4352    -0.4195 H       
  58 H58           -8.1276     3.5702    -0.2649 H       
  59 H59           -9.6851     3.0065     1.5549 H       
  60 H60           -9.0687     1.3094     3.2275 H       
  61 H61           -6.2703     0.3591     4.2065 H       
  62 H62           -7.6851    -0.6159     3.7417 H       
  63 H63           -6.1257    -0.8619     2.9195 H       
  64 H64            4.3500    -4.3078    -1.2504 H       
  65 H65            4.4684    -4.3142     0.5256 H       
  66 H66            3.4633    -6.2599    -2.4531 H       
  67 H67            3.7608    -6.2557     1.8061 H       
  68 H68            3.0971    -9.8467    -0.1661 H       
  69 H69            3.1078    -8.7188    -2.3549 H       
@<TRIPOS>BOND
   1    1    2 1
   2    1   18 am
   3    1   39 1
   4    2    3 ar
   5    2    7 ar
   6    3    4 ar
   7    3    8 1
   8    4    5 ar
   9    4   40 1
  10    5    6 ar
  11    5   41 1
  12    6    7 ar
  13    6   15 1
  14    7   42 1
  15    8    9 1
  16    8   10 1
  17    9   13 1
  18    9   43 1
  19    9   44 1
  20   10   11 1
  21   10   45 1
  22   10   46 1
  23   11   12 1
  24   11   47 1
  25   11   48 1
  26   12   13 1
  27   12   14 1
  28   13   49 1
  29   13   50 1
  30   14   26 ar
  31   14   27 ar
  32   15   16 2
  33   15   17 am
  34   17   32 1
  35   17   51 1
  36   18   19 1
  37   18   20 2
  38   19   21 2
  39   19   22 1
  40   21   24 1
  41   21   52 1
  42   22   23 1
  43   23   24 2
  44   23   25 1
  45   24   53 1
  46   25   54 1
  47   25   55 1
  48   25   56 1
  49   26   31 1
  50   26   30 ar
  51   27   28 ar
  52   27   57 1
  53   28   29 ar
  54   28   58 1
  55   29   30 ar
  56   29   59 1
  57   30   60 1
  58   31   61 1
  59   31   62 1
  60   31   63 1
  61   32   33 1
  62   32   64 1
  63   32   65 1
  64   33   34 ar
  65   33   35 ar
  66   34   38 ar
  67   34   66 1
  68   35   36 ar
  69   35   67 1
  70   36   37 ar
  71   37   38 ar
  72   37   68 1
  73   38   69 1

#	End of record

