#	Name: ASD03082226
#	Creating user name:	WinNT
#	Creation time:	15. 06. 2019 20:27

#	Modifying user name:	WinNT
#	Modification time:	15. 06. 2019 20:27

#	Program:	/corina/corina34_cracker 3.40 0067  02.08.2006

@<TRIPOS>MOLECULE
ASD03082226
  44   46    0    0    0
SMALL
NO_CHARGES


@<TRIPOS>ATOM
   1 N1             0.1709     1.4129    -0.5503 N.am    
   2 N2             0.0600     0.0216    -0.3943 N.2     
   3 C3             1.1304    -0.3784     0.2513 C.2     
   4 N4             1.9082     0.6756     0.5113 N.2     
   5 C5             1.3502     1.7691     0.0371 C.2     
   6 N6             1.4112    -1.6962     0.6094 N.pl3   
   7 C7             0.4618    -2.6990     0.3864 C.ar    
   8 C8             0.8679    -4.0173     0.2227 C.ar    
   9 C9            -0.0711    -5.0057     0.0032 C.ar    
  10 C10           -1.4168    -4.6834    -0.0542 C.ar    
  11 C11           -1.8238    -3.3702     0.1086 C.ar    
  12 C12           -0.8884    -2.3790     0.3341 C.ar    
  13 C13            0.3688    -6.4361    -0.1744 C.3     
  14 F14            1.7624    -6.5109    -0.0770 F       
  15 F15           -0.2115    -7.2295     0.8210 F       
  16 F16           -0.0361    -6.8957    -1.4322 F       
  17 C17            1.6304     5.5029     0.4319 C.ar    
  18 C18            1.0685     4.2347     0.3569 C.ar    
  19 C19            1.9025     3.1390     0.1246 C.ar    
  20 C20            3.2761     3.3713    -0.0229 C.ar    
  21 C21            3.7526     4.6618     0.0655 C.ar    
  22 N22            2.9355     5.6744     0.2861 N.ar    
  23 C23           -0.7080     2.2312    -1.1623 C.2     
  24 N24           -1.7977     1.7183    -1.7672 N.am    
  25 F25           -2.3337    -5.6519    -0.2700 F       
  26 C26           -2.7530     2.6078    -2.4324 C.3     
  27 O27           -0.5180     3.4313    -1.1685 O.2     
  28 N28            0.8129     6.6049     0.6569 N.pl3   
  29 C29           -0.6325     6.4250     0.8134 C.3     
  30 H30            2.2650    -1.9177     1.0131 H       
  31 H31            1.9172    -4.2690     0.2668 H       
  32 H32           -2.8737    -3.1210     0.0631 H       
  33 H33           -1.2067    -1.3554     0.4656 H       
  34 H34            0.0039     4.0982     0.4766 H       
  35 H35            3.9533     2.5495    -0.2033 H       
  36 H36            4.8106     4.8469    -0.0470 H       
  37 H37           -1.9494     0.7603    -1.7622 H       
  38 H38           -3.1613     3.3107    -1.7063 H       
  39 H39           -2.2460     3.1578    -3.2252 H       
  40 H40           -3.5625     2.0166    -2.8607 H       
  41 H41            1.1997     7.4929     0.7103 H       
  42 H42           -1.0423     5.9732    -0.0899 H       
  43 H43           -0.8275     5.7741     1.6658 H       
  44 H44           -1.1032     7.3937     0.9809 H       
@<TRIPOS>BOND
   1    1    2 1
   2    1    5 1
   3    1   23 am
   4    2    3 2
   5    3    4 1
   6    3    6 1
   7    4    5 2
   8    5   19 1
   9    6    7 1
  10    6   30 1
  11    7    8 ar
  12    7   12 ar
  13    8    9 ar
  14    8   31 1
  15    9   10 ar
  16    9   13 1
  17   10   11 ar
  18   10   25 1
  19   11   12 ar
  20   11   32 1
  21   12   33 1
  22   13   14 1
  23   13   15 1
  24   13   16 1
  25   17   18 ar
  26   17   22 ar
  27   17   28 1
  28   18   19 ar
  29   18   34 1
  30   19   20 ar
  31   20   21 ar
  32   20   35 1
  33   21   22 ar
  34   21   36 1
  35   23   24 am
  36   23   27 2
  37   24   26 1
  38   24   37 1
  39   26   38 1
  40   26   39 1
  41   26   40 1
  42   28   29 1
  43   28   41 1
  44   29   42 1
  45   29   43 1
  46   29   44 1

#	End of record

