#	Name: ASD01917093
#	Creating user name:	WinNT
#	Creation time:	15. 06. 2019 20:08

#	Modifying user name:	WinNT
#	Modification time:	15. 06. 2019 20:08

#	Program:	/corina/corina34_cracker 3.40 0067  02.08.2006

@<TRIPOS>MOLECULE
ASD01917093
  38   40    0    0    0
SMALL
NO_CHARGES


@<TRIPOS>ATOM
   1 C1            -0.0427     1.4699     0.1528 C.ar    
   2 C2            -0.0086    -0.0061     0.0640 C.2     
   3 N3             1.0565    -0.7658     0.2109 N.2     
   4 C4             0.7168    -2.0515     0.0656 C.2     
   5 N5            -0.5740    -2.1278    -0.1768 N.2     
   6 N6            -1.0681    -0.8133    -0.1769 N.pl3   
   7 C7            -2.4545    -0.3974    -0.4029 C.3     
   8 C8            -3.1972    -0.3911     0.9084 C.2     
   9 O9            -4.4922    -0.0399     0.9445 O.3     
  10 O10           -2.6269    -0.7022     1.9271 O.2     
  11 C11            1.6457    -3.2049     0.1614 C.ar    
  12 C12            1.1310     2.2077    -0.0083 C.ar    
  13 C13            1.1682    -4.5027    -0.0100 C.ar    
  14 C14            2.0353    -5.5721     0.0794 C.ar    
  15 C15            3.3791    -5.3571     0.3396 C.ar    
  16 C16            3.8580    -4.0684     0.5111 C.ar    
  17 C17            2.9989    -2.9928     0.4172 C.ar    
  18 C18            1.0954     3.5830     0.0751 C.ar    
  19 C19           -0.1064     4.2347     0.3197 C.ar    
  20 C20           -1.2764     3.5038     0.4806 C.ar    
  21 C21           -1.2496     2.1286     0.3922 C.ar    
  22 F22            4.2247    -6.4071     0.4268 F       
  23 O23           -0.1376     5.5901     0.4022 O.3     
  24 C24           -1.4069     6.1957     0.6558 C.3     
  25 H25           -2.4679     0.6042    -0.8328 H       
  26 H26           -2.9356    -1.0939    -1.0896 H       
  27 H27           -4.9261    -0.0510     1.8086 H       
  28 H28            2.0660     1.7016    -0.1978 H       
  29 H29            0.1207    -4.6712    -0.2122 H       
  30 H30            1.6661    -6.5783    -0.0533 H       
  31 H31            4.9060    -3.9053     0.7145 H       
  32 H32            3.3730    -1.9886     0.5511 H       
  33 H33            2.0032     4.1546    -0.0494 H       
  34 H34           -2.2092     4.0140     0.6707 H       
  35 H35           -2.1599     1.5609     0.5171 H       
  36 H36           -1.7977     5.8353     1.6074 H       
  37 H37           -1.2909     7.2787     0.6974 H       
  38 H38           -2.1001     5.9349    -0.1439 H       
@<TRIPOS>BOND
   1    1    2 1
   2    1   12 ar
   3    1   21 ar
   4    2    3 2
   5    2    6 1
   6    3    4 1
   7    4    5 2
   8    4   11 1
   9    5    6 1
  10    6    7 1
  11    7    8 1
  12    7   25 1
  13    7   26 1
  14    8    9 1
  15    8   10 2
  16    9   27 1
  17   11   13 ar
  18   11   17 ar
  19   12   18 ar
  20   12   28 1
  21   13   14 ar
  22   13   29 1
  23   14   15 ar
  24   14   30 1
  25   15   16 ar
  26   15   22 1
  27   16   17 ar
  28   16   31 1
  29   17   32 1
  30   18   19 ar
  31   18   33 1
  32   19   20 ar
  33   19   23 1
  34   20   21 ar
  35   20   34 1
  36   21   35 1
  37   23   24 1
  38   24   36 1
  39   24   37 1
  40   24   38 1

#	End of record

