#	Name: ASD01140627
#	Creating user name:	WinNT
#	Creation time:	15. 06. 2019 19:01

#	Modifying user name:	WinNT
#	Modification time:	15. 06. 2019 19:01

#	Program:	/corina/corina34_cracker 3.40 0067  02.08.2006

@<TRIPOS>MOLECULE
ASD01140627
  44   46    0    0    0
SMALL
NO_CHARGES


@<TRIPOS>ATOM
   1 C1            -0.0015     1.3413    -0.1883 C.2     
   2 C2             0.0205    -0.0174    -0.1305 C.2     
   3 C3             1.2456    -0.6877     0.0218 C.2     
   4 C4             2.3972     0.0101     0.1108 C.2     
   5 C5             1.2099     2.0568    -0.0940 C.2     
   6 N6             1.4799     3.3535    -0.1195 N.2     
   7 N7             2.3900     1.3742     0.0547 N.pl3   
   8 C8             3.3899     2.3041     0.1188 C.2     
   9 C9             2.8046     3.5292     0.0085 C.2     
  10 C10            3.5105     4.8345     0.0264 C.ar    
  11 C11            4.7074     4.9912    -0.6697 C.ar    
  12 C12            5.3604     6.2065    -0.6503 C.ar    
  13 C13            4.8277     7.2702     0.0599 C.ar    
  14 C14            3.6380     7.1188     0.7534 C.ar    
  15 C15            2.9753     5.9086     0.7347 C.ar    
  16 C16            4.8622     2.0263     0.2805 C.3     
  17 N17            5.4534     1.7474    -1.0306 N.am    
  18 C18            6.7683     1.4694    -1.1316 C.2     
  19 C19            7.3764     1.1825    -2.4803 C.3     
  20 O20            7.4621     1.4502    -0.1370 O.2     
  21 C21            1.2738    -2.1931     0.0868 C.3     
  22 F22            5.4706     8.4583     0.0766 F       
  23 C23            8.8712     0.9005    -2.3161 C.3     
  24 C24            6.6921    -0.0380    -3.0991 C.3     
  25 H25           -0.9372     1.8669    -0.3098 H       
  26 H26           -0.8997    -0.5783    -0.2011 H       
  27 H27            3.3334    -0.5155     0.2278 H       
  28 H28            5.1235     4.1625    -1.2233 H       
  29 H29            6.2883     6.3288    -1.1893 H       
  30 H30            3.2262     7.9505     1.3058 H       
  31 H31            2.0456     5.7927     1.2719 H       
  32 H32            5.3498     2.8958     0.7213 H       
  33 H33            4.9997     1.1634     0.9320 H       
  34 H34            4.8984     1.7627    -1.8261 H       
  35 H35            7.2389     2.0454    -3.1318 H       
  36 H36            0.2585    -2.5796    -0.0007 H       
  37 H37            1.8818    -2.5806    -0.7307 H       
  38 H38            1.7017    -2.5077     1.0386 H       
  39 H39            9.0087     0.0375    -1.6645 H       
  40 H40            9.3111     0.6929    -3.2916 H       
  41 H41            9.3588     1.7700    -1.8753 H       
  42 H42            6.8296    -0.9009    -2.4475 H       
  43 H43            5.6271     0.1629    -3.2160 H       
  44 H44            7.1319    -0.2455    -4.0745 H       
@<TRIPOS>BOND
   1    1    2 2
   2    1    5 1
   3    1   25 1
   4    2    3 1
   5    2   26 1
   6    3    4 2
   7    3   21 1
   8    4    7 1
   9    4   27 1
  10    5    7 1
  11    5    6 2
  12    6    9 1
  13    7    8 1
  14    8    9 2
  15    8   16 1
  16    9   10 1
  17   10   11 ar
  18   10   15 ar
  19   11   12 ar
  20   11   28 1
  21   12   13 ar
  22   12   29 1
  23   13   14 ar
  24   13   22 1
  25   14   15 ar
  26   14   30 1
  27   15   31 1
  28   16   17 1
  29   16   32 1
  30   16   33 1
  31   17   18 am
  32   17   34 1
  33   18   19 1
  34   18   20 2
  35   19   23 1
  36   19   24 1
  37   19   35 1
  38   21   36 1
  39   21   37 1
  40   21   38 1
  41   23   39 1
  42   23   40 1
  43   23   41 1
  44   24   42 1
  45   24   43 1
  46   24   44 1

#	End of record

