#	Name: ASD08170050
#	Creating user name:	WinNT
#	Creation time:	15. 06. 2019 21:17

#	Modifying user name:	WinNT
#	Modification time:	15. 06. 2019 21:17

#	Program:	/corina/corina34_cracker 3.40 0067  02.08.2006

@<TRIPOS>MOLECULE
ASD08170050
  52   55    0    0    0
SMALL
NO_CHARGES


@<TRIPOS>ATOM
   1 C1            -0.0187     1.5266     0.0104 C.3     
   2 C2             0.0021    -0.0041     0.0020 C.3     
   3 C3            -1.4083    -0.5285     0.0658 C.2     
   4 C4            -2.3821     0.1598     0.7123 C.2     
   5 C5            -2.1120     1.3974     1.3227 C.2     
   6 C6            -0.7334     1.9998     1.2801 C.3     
   7 C7            -1.7366    -1.7986    -0.5913 C.ar    
   8 C8            -3.0893    -2.1196    -0.8174 C.ar    
   9 N9            -4.0610    -1.2222    -0.3889 N.pl3   
  10 C10           -3.7812    -0.4032     0.7964 C.3     
  11 C11           -0.7376    -2.6883    -0.9941 C.ar    
  12 C12           -1.0890    -3.8687    -1.6152 C.ar    
  13 C13           -2.4232    -4.1757    -1.8424 C.ar    
  14 C14           -3.4222    -3.3066    -1.4464 C.ar    
  15 C15           -3.9046    -1.2546     2.0338 C.ar    
  16 C16           -4.4959    -0.7366     3.1712 C.ar    
  17 C17           -4.6106    -1.5147     4.3075 C.ar    
  18 C18           -4.1313    -2.8191     4.3054 C.ar    
  19 C19           -3.5385    -3.3358     3.1606 C.ar    
  20 C20           -3.4314    -2.5541     2.0271 C.ar    
  21 C21            1.4154     2.0595    -0.0004 C.3     
  22 C22           -0.7653     2.0367    -1.2237 C.3     
  23 O23           -3.0058     1.9899     1.8937 O.2     
  24 N24           -4.2451    -3.6088     5.4525 N.3     
  25 C25           -5.0411    -4.8141     5.1850 C.3     
  26 C26           -2.9212    -3.9593     5.9837 C.3     
  27 Br27          -5.4182    -0.8052     5.8633 Br      
  28 Cl28           0.1476    -4.9788    -2.1172 Cl      
  29 H29            0.4791    -0.3556    -0.9129 H       
  30 H30            0.5626    -0.3642     0.8647 H       
  31 H31           -0.1690     1.6806     2.1562 H       
  32 H32           -0.8109     3.0870     1.2713 H       
  33 H33           -4.9035    -1.1390    -0.8623 H       
  34 H34           -4.4987     0.4156     0.8485 H       
  35 H35            0.3021    -2.4534    -0.8207 H       
  36 H36           -2.6832    -5.1021    -2.3330 H       
  37 H37           -4.4582    -3.5530    -1.6265 H       
  38 H38           -4.8681     0.2773     3.1718 H       
  39 H39           -3.1646    -4.3490     3.1558 H       
  40 H40           -2.9708    -2.9557     1.1366 H       
  41 H41            1.9265     1.7093    -0.8972 H       
  42 H42            1.3981     3.1494     0.0056 H       
  43 H43            1.9435     1.6997     0.8827 H       
  44 H44           -1.7883     1.6606    -1.2108 H       
  45 H45           -0.7788     3.1266    -1.2155 H       
  46 H46           -0.2608     1.6863    -2.1242 H       
  47 H47           -4.5598    -5.4012     4.4029 H       
  48 H48           -5.1139    -5.4107     6.0944 H       
  49 H49           -6.0403    -4.5248     4.8593 H       
  50 H50           -2.3792    -3.0487     6.2387 H       
  51 H51           -3.0389    -4.5740     6.8762 H       
  52 H52           -2.3631    -4.5155     5.2305 H       
@<TRIPOS>BOND
   1    1    2 1
   2    1   21 1
   3    1   22 1
   4    1    6 1
   5    2    3 1
   6    2   29 1
   7    2   30 1
   8    3    4 2
   9    3    7 1
  10    4    5 1
  11    4   10 1
  12    5    6 1
  13    5   23 2
  14    6   31 1
  15    6   32 1
  16    7    8 ar
  17    7   11 ar
  18    8    9 1
  19    8   14 ar
  20    9   10 1
  21    9   33 1
  22   10   15 1
  23   10   34 1
  24   11   12 ar
  25   11   35 1
  26   12   13 ar
  27   12   28 1
  28   13   14 ar
  29   13   36 1
  30   14   37 1
  31   15   16 ar
  32   15   20 ar
  33   16   17 ar
  34   16   38 1
  35   17   18 ar
  36   17   27 1
  37   18   19 ar
  38   18   24 1
  39   19   20 ar
  40   19   39 1
  41   20   40 1
  42   21   41 1
  43   21   42 1
  44   21   43 1
  45   22   44 1
  46   22   45 1
  47   22   46 1
  48   24   25 1
  49   24   26 1
  50   25   47 1
  51   25   48 1
  52   25   49 1
  53   26   50 1
  54   26   51 1
  55   26   52 1

#	End of record

