#	Name: ASD03330211
#	Creating user name:	WinNT
#	Creation time:	15. 06. 2019 20:36

#	Modifying user name:	WinNT
#	Modification time:	15. 06. 2019 20:36

#	Program:	/corina/corina34_cracker 3.40 0067  02.08.2006

@<TRIPOS>MOLECULE
ASD03330211
  58   60    0    0    0
SMALL
NO_CHARGES


@<TRIPOS>ATOM
   1 C1             0.5932     1.5912     0.4660 C.ar    
   2 C2             0.4602     0.1224     0.3517 C.2     
   3 N3            -0.6330    -0.6066     0.7079 N.pl3   
   4 C4            -0.3536    -1.9143     0.4471 C.2     
   5 C5             0.9031    -1.9625    -0.0648 C.2     
   6 N6             1.3749    -0.6962    -0.1159 N.2     
   7 C7             1.6215    -3.1758    -0.4930 C.2     
   8 N8             2.8722    -3.0797    -0.9861 N.am    
   9 C9            -0.2704     2.3098     1.2932 C.ar    
  10 O10            1.0858    -4.2638    -0.4016 O.2     
  11 C11            3.5864    -4.2859    -1.4118 C.3     
  12 C12            3.2015    -4.6244    -2.8534 C.3     
  13 C13            5.0718    -4.0448    -1.3318 C.2     
  14 C14            3.4713    -3.4148    -3.7507 C.3     
  15 N15            5.9109    -5.0758    -1.1098 N.am    
  16 C16            4.0331    -5.8140    -3.3374 C.3     
  17 C17           -1.8982    -0.1263     1.2691 C.3     
  18 C18           -2.9578    -1.2210     1.1023 C.3     
  19 C19           -2.4146    -2.5495     1.6360 C.3     
  20 C20           -1.3056    -3.0545     0.7028 C.3     
  21 C21            1.7153    -4.9829    -2.9138 C.3     
  22 O22            5.5121    -2.9229    -1.4672 O.2     
  23 C23           -0.1417     3.6812     1.3961 C.ar    
  24 C24            0.8443     4.3429     0.6778 C.ar    
  25 C25            1.7030     3.6322    -0.1448 C.ar    
  26 C26            1.5865     2.2618    -0.2488 C.ar    
  27 F27            0.9667     5.6844     0.7808 F       
  28 F28           -0.9768     4.3792     2.1965 F       
  29 C29            8.0639    -6.1566    -0.6879 C.3     
  30 C30            7.3423    -4.8277    -0.9206 C.3     
  31 H31            3.2994    -2.2119    -1.0590 H       
  32 H32           -1.0381     1.7949     1.8516 H       
  33 H33            3.3175    -5.1167    -0.7593 H       
  34 H34            4.5301    -3.1595    -3.7076 H       
  35 H35            3.1971    -3.6560    -4.7777 H       
  36 H36            2.8788    -2.5674    -3.4059 H       
  37 H37            5.5671    -5.9822    -1.0753 H       
  38 H38            3.8011    -6.6900    -2.7316 H       
  39 H39            3.7976    -6.0213    -4.3812 H       
  40 H40            5.0932    -5.5782    -3.2440 H       
  41 H41           -1.7670     0.0972     2.3278 H       
  42 H42           -2.2149     0.7726     0.7400 H       
  43 H43           -3.8542    -0.9461     1.6582 H       
  44 H44           -3.2054    -1.3284     0.0462 H       
  45 H45           -2.0086    -2.4010     2.6367 H       
  46 H46           -3.2200    -3.2830     1.6745 H       
  47 H47           -1.7409    -3.3888    -0.2389 H       
  48 H48           -0.7733    -3.8794     1.1764 H       
  49 H49            1.1229    -4.1354    -2.5690 H       
  50 H50            1.4412    -5.2240    -3.9408 H       
  51 H51            1.5232    -5.8446    -2.2745 H       
  52 H52            2.4683     4.1518    -0.7023 H       
  53 H53            2.2569     1.7094    -0.8906 H       
  54 H54            9.1289    -5.9719    -0.5471 H       
  55 H55            7.6582    -6.6395     0.2011 H       
  56 H56            7.9187    -6.8050    -1.5519 H       
  57 H57            7.7479    -4.3447    -1.8096 H       
  58 H58            7.4875    -4.1792    -0.0565 H       
@<TRIPOS>BOND
   1    1    2 1
   2    1    9 ar
   3    1   26 ar
   4    2    3 1
   5    2    6 2
   6    3    4 1
   7    3   17 1
   8    4    5 2
   9    4   20 1
  10    5    6 1
  11    5    7 1
  12    7    8 am
  13    7   10 2
  14    8   11 1
  15    8   31 1
  16    9   23 ar
  17    9   32 1
  18   11   12 1
  19   11   13 1
  20   11   33 1
  21   12   14 1
  22   12   16 1
  23   12   21 1
  24   13   15 am
  25   13   22 2
  26   14   34 1
  27   14   35 1
  28   14   36 1
  29   15   30 1
  30   15   37 1
  31   16   38 1
  32   16   39 1
  33   16   40 1
  34   17   18 1
  35   17   41 1
  36   17   42 1
  37   18   19 1
  38   18   43 1
  39   18   44 1
  40   19   20 1
  41   19   45 1
  42   19   46 1
  43   20   47 1
  44   20   48 1
  45   21   49 1
  46   21   50 1
  47   21   51 1
  48   23   24 ar
  49   23   28 1
  50   24   25 ar
  51   24   27 1
  52   25   26 ar
  53   25   52 1
  54   26   53 1
  55   29   30 1
  56   29   54 1
  57   29   55 1
  58   29   56 1
  59   30   57 1
  60   30   58 1

#	End of record

