#	Name: ASD08070038
#	Creating user name:	WinNT
#	Creation time:	15. 06. 2019 21:14

#	Modifying user name:	WinNT
#	Modification time:	15. 06. 2019 21:14

#	Program:	/corina/corina34_cracker 3.40 0067  02.08.2006

@<TRIPOS>MOLECULE
ASD08070038
  41   42    0    0    0
SMALL
NO_CHARGES


@<TRIPOS>ATOM
   1 C1            -0.0170     1.4047     0.0098 C.ar    
   2 C2             0.0021    -0.0041     0.0020 C.ar    
   3 C3            -1.1956    -0.7033     0.0097 C.ar    
   4 C4            -2.4010    -0.0057     0.0249 C.ar    
   5 C5            -2.4077     1.3967     0.0325 C.ar    
   6 C6            -1.2361     2.0911     0.0301 C.ar    
   7 C7             1.3832     1.8268    -0.0013 C.2     
   8 C8             2.1313     0.7097    -0.0145 C.2     
   9 N9             1.3245    -0.3921    -0.0127 N.pl3   
  10 C10           -3.6777    -0.7460     0.0326 C.2     
  11 N11           -4.8461    -0.0743     0.0474 N.am    
  12 O12           -3.6754    -1.9619     0.0256 O.2     
  13 C13           -6.1134    -0.8093     0.0550 C.3     
  14 C14           -6.4781    -1.1821     1.4934 C.3     
  15 C15           -5.4395    -2.1605     2.0456 C.3     
  16 C16           -5.8042    -2.5333     3.4840 C.3     
  17 C17           -7.2160     0.0693    -0.5393 C.3     
  18 C18           -6.9134     0.3391    -2.0147 C.3     
  19 C19           -8.0161     1.2177    -2.6090 C.3     
  20 H20           -1.1936    -1.7832     0.0035 H       
  21 H21           -3.3473     1.9291     0.0444 H       
  22 H22           -1.2480     3.1711     0.0360 H       
  23 H23            1.7474     2.8435     0.0006 H       
  24 H24            3.2110     0.6870    -0.0252 H       
  25 H25            1.6357    -1.3108    -0.0205 H       
  26 H26           -4.8479     0.8956     0.0529 H       
  27 H27           -6.0109    -1.7164    -0.5406 H       
  28 H28           -6.4935    -0.2827     2.1090 H       
  29 H29           -7.4624    -1.6500     1.5090 H       
  30 H30           -5.4241    -3.0598     1.4299 H       
  31 H31           -4.4551    -1.6926     2.0300 H       
  32 H32           -5.8196    -1.6339     4.0996 H       
  33 H33           -6.7885    -3.0012     3.4996 H       
  34 H34           -5.0643    -3.2303     3.8774 H       
  35 H35           -8.1745    -0.4423    -0.4527 H       
  36 H36           -7.2585     1.0146     0.0016 H       
  37 H37           -5.9549     0.8508    -2.1013 H       
  38 H38           -6.8709    -0.6062    -2.5556 H       
  39 H39           -8.9746     0.7061    -2.5223 H       
  40 H40           -8.0586     2.1630    -2.0680 H       
  41 H41           -7.8005     1.4099    -3.6600 H       
@<TRIPOS>BOND
   1    1    2 ar
   2    1    7 1
   3    1    6 ar
   4    2    3 ar
   5    2    9 1
   6    3    4 ar
   7    3   20 1
   8    4    5 ar
   9    4   10 1
  10    5    6 ar
  11    5   21 1
  12    6   22 1
  13    7    8 2
  14    7   23 1
  15    8    9 1
  16    8   24 1
  17    9   25 1
  18   10   11 am
  19   10   12 2
  20   11   13 1
  21   11   26 1
  22   13   14 1
  23   13   17 1
  24   13   27 1
  25   14   15 1
  26   14   28 1
  27   14   29 1
  28   15   16 1
  29   15   30 1
  30   15   31 1
  31   16   32 1
  32   16   33 1
  33   16   34 1
  34   17   18 1
  35   17   35 1
  36   17   36 1
  37   18   19 1
  38   18   37 1
  39   18   38 1
  40   19   39 1
  41   19   40 1
  42   19   41 1

#	End of record

