#	Name: ASD02198107
#	Creating user name:	WinNT
#	Creation time:	15. 06. 2019 20:18

#	Modifying user name:	WinNT
#	Modification time:	15. 06. 2019 20:18

#	Program:	/corina/corina34_cracker 3.40 0067  02.08.2006

@<TRIPOS>MOLECULE
ASD02198107
  51   54    0    0    0
SMALL
NO_CHARGES


@<TRIPOS>ATOM
   1 C1            -0.2712     1.3775    -0.2399 C.2     
   2 C2            -0.1869     0.0122    -0.4117 C.2     
   3 C3            -1.2895    -0.7889    -0.8510 C.1     
   4 S4             1.2183     2.0165     0.2892 S.3     
   5 C5             1.9753     0.4317     0.2832 C.2     
   6 C6             1.0685    -0.5178    -0.1195 C.2     
   7 C7             3.3151     0.1729     0.6384 C.2     
   8 C8             4.2317     1.2931     0.9266 C.ar    
   9 O9             3.7165    -0.9768     0.7075 O.2     
  10 N10            1.3713    -1.8673    -0.2244 N.pl3   
  11 N11           -1.4038     2.1249    -0.4703 N.pl3   
  12 N12           -2.1642    -1.4244    -1.1996 N.1     
  13 C13            4.5782     1.5940     2.2463 C.ar    
  14 C14           -1.3486     3.5191    -0.3929 C.ar    
  15 C15            5.4338     2.6393     2.5113 C.ar    
  16 C16            5.9553     3.3988     1.4693 C.ar    
  17 C17            5.6175     3.1083     0.1554 C.ar    
  18 C18            4.7628     2.0561    -0.1236 C.ar    
  19 C19           -0.2715     4.2049    -0.9379 C.ar    
  20 O20            4.4316     1.7702    -1.4081 O.3     
  21 C21            5.0021     2.5969    -2.4246 C.3     
  22 C22           -2.3739     4.2240     0.2246 C.ar    
  23 C23           -2.3139     5.6007     0.2982 C.ar    
  24 C24           -1.2358     6.2835    -0.2409 C.ar    
  25 C25           -0.2157     5.5848    -0.8613 C.ar    
  26 O26            6.7977     4.4285     1.7390 O.3     
  27 C27            7.1036     4.6736     3.1132 C.3     
  28 C28           -0.9411     7.7677    -0.2885 C.3     
  29 C29            0.5660     7.8706    -0.6048 C.3     
  30 C30            0.8352     6.5521    -1.3630 C.3     
  31 H31            2.2626    -2.1826    -0.0079 H       
  32 H32            0.6916    -2.4957    -0.5143 H       
  33 H33           -2.2403     1.6839    -0.6863 H       
  34 H34            4.1747     1.0069     3.0580 H       
  35 H35            5.7007     2.8707     3.5319 H       
  36 H36            6.0248     3.7011    -0.6503 H       
  37 H37            0.5249     3.6595    -1.4224 H       
  38 H38            4.6957     3.6309    -2.2664 H       
  39 H39            6.0891     2.5292    -2.3804 H       
  40 H40            4.6566     2.2611    -3.4024 H       
  41 H41           -3.2164     3.6957     0.6459 H       
  42 H42           -3.1114     6.1484     0.7782 H       
  43 H43            6.1850     4.8970     3.6556 H       
  44 H44            7.5742     3.7898     3.5439 H       
  45 H45            7.7851     5.5211     3.1881 H       
  46 H46           -1.5260     8.2444    -1.0751 H       
  47 H47           -1.1574     8.2273     0.6760 H       
  48 H48            0.7702     8.7308    -1.2423 H       
  49 H49            1.1520     7.9194     0.3130 H       
  50 H50            1.8330     6.1795    -1.1312 H       
  51 H51            0.7276     6.7046    -2.4369 H       
@<TRIPOS>BOND
   1    1    2 2
   2    1    4 1
   3    1   11 1
   4    2    3 1
   5    2    6 1
   6    3   12 3
   7    4    5 1
   8    5    6 2
   9    5    7 1
  10    6   10 1
  11    7    8 1
  12    7    9 2
  13    8   13 ar
  14    8   18 ar
  15   10   31 1
  16   10   32 1
  17   11   14 1
  18   11   33 1
  19   13   15 ar
  20   13   34 1
  21   14   22 ar
  22   14   19 ar
  23   15   16 ar
  24   15   35 1
  25   16   17 ar
  26   16   26 1
  27   17   18 ar
  28   17   36 1
  29   18   20 1
  30   19   25 ar
  31   19   37 1
  32   20   21 1
  33   21   38 1
  34   21   39 1
  35   21   40 1
  36   22   23 ar
  37   22   41 1
  38   23   24 ar
  39   23   42 1
  40   24   25 ar
  41   24   28 1
  42   25   30 1
  43   26   27 1
  44   27   43 1
  45   27   44 1
  46   27   45 1
  47   28   29 1
  48   28   46 1
  49   28   47 1
  50   29   30 1
  51   29   48 1
  52   29   49 1
  53   30   50 1
  54   30   51 1

#	End of record

