#	Name: ASD05060096
#	Creating user name:	WinNT
#	Creation time:	15. 06. 2019 20:56

#	Modifying user name:	WinNT
#	Modification time:	15. 06. 2019 20:56

#	Program:	/corina/corina34_cracker 3.40 0067  02.08.2006

@<TRIPOS>MOLECULE
ASD05060096
  26   27    0    0    0
SMALL
NO_CHARGES


@<TRIPOS>ATOM
   1 S1            -0.2112     0.8899     0.4493 S.3     
   2 C2             0.4336     1.8339    -0.8165 C.2     
   3 C3             1.7460     1.6251    -0.9544 C.2     
   4 C4             2.2903     0.7156    -0.0697 C.2     
   5 C5             1.3633     0.1898     0.7985 C.2     
   6 C6             1.6331    -0.7623     1.8114 C.2     
   7 O7             2.7407    -1.2585     1.9006 O.2     
   8 O8             0.6620    -1.1193     2.6779 O.3     
   9 N9             3.6441     0.3656    -0.0580 N.pl3   
  10 C10            4.2968    -0.3256    -1.0391 C.2     
  11 C11            5.5852    -0.4680    -0.6680 C.2     
  12 C12            5.7359     0.1567     0.5867 C.2     
  13 C13            4.5353     0.6632     0.9337 C.2     
  14 C14            4.2287     1.4226     2.1987 C.3     
  15 C15            4.5893     2.8973     2.0083 C.3     
  16 H16           -0.1439     2.5120    -1.4273 H       
  17 H17            2.3378     2.1304    -1.7034 H       
  18 H18            0.9403    -1.7742     3.3327 H       
  19 H19            3.8568    -0.6942    -1.9540 H       
  20 H20            6.3599    -0.9693    -1.2291 H       
  21 H21            6.6472     0.2219     1.1626 H       
  22 H22            3.1665     1.3348     2.4268 H       
  23 H23            4.8124     1.0091     3.0212 H       
  24 H24            4.4505     3.4296     2.9493 H       
  25 H25            5.6299     2.9793     1.6945 H       
  26 H26            3.9443     3.3335     1.2455 H       
@<TRIPOS>BOND
   1    1    2 1
   2    1    5 1
   3    2    3 2
   4    2   16 1
   5    3    4 1
   6    3   17 1
   7    4    5 2
   8    4    9 1
   9    5    6 1
  10    6    7 2
  11    6    8 1
  12    8   18 1
  13    9   10 1
  14    9   13 1
  15   10   11 2
  16   10   19 1
  17   11   12 1
  18   11   20 1
  19   12   13 2
  20   12   21 1
  21   13   14 1
  22   14   15 1
  23   14   22 1
  24   14   23 1
  25   15   24 1
  26   15   25 1
  27   15   26 1

#	End of record

