#	Name: ASD00311075
#	Creating user name:	WinNT
#	Creation time:	15. 06. 2019 18:34

#	Modifying user name:	WinNT
#	Modification time:	15. 06. 2019 18:34

#	Program:	/corina/corina34_cracker 3.40 0067  02.08.2006

@<TRIPOS>MOLECULE
ASD00311075
  41   44    0    0    0
SMALL
NO_CHARGES


@<TRIPOS>ATOM
   1 C1            -0.0167     1.3777     0.0096 C.2     
   2 C2             0.0021    -0.0041     0.0020 C.2     
   3 C3             1.2586    -0.6766    -0.0140 C.2     
   4 C4             2.4314     0.0673    -0.0217 C.2     
   5 C5             2.3575     1.4750    -0.0134 C.2     
   6 N6             1.1650     2.0903     0.0022 N.am    
   7 C7            -1.3434    -0.5753     0.0123 C.2     
   8 C8            -2.3230     0.3265     0.0268 C.2     
   9 S9            -1.6792     1.9564     0.0358 S.3     
  10 O10            3.3825     2.1370    -0.0196 O.2     
  11 C11            3.7477    -0.6123    -0.0379 C.ar    
  12 C12            4.5904    -0.4742    -1.1376 C.ar    
  13 C13            5.8273    -1.1168    -1.1451 C.ar    
  14 C14            6.2130    -1.8946    -0.0502 C.ar    
  15 C15            5.3718    -2.0270     1.0361 C.ar    
  16 C16            4.1476    -1.3873     1.0514 C.ar    
  17 C17            6.7002    -0.9807    -2.2721 C.1     
  18 N18            7.3927    -0.8728    -3.1661 N.1     
  19 C19           -1.5961    -2.0357     0.0062 C.ar    
  20 C20           -2.2066    -2.6439     1.1025 C.ar    
  21 C21           -2.4406    -4.0031     1.0932 C.ar    
  22 C22           -2.0688    -4.7656    -0.0055 C.ar    
  23 C23           -1.4605    -4.1635    -1.0983 C.ar    
  24 C24           -1.2290    -2.8038    -1.0983 C.ar    
  25 O25           -2.3006    -6.1050    -0.0111 O.3     
  26 C26           -1.8927    -6.8290    -1.1736 C.3     
  27 O27            1.3084    -2.0292    -0.0214 O.3     
  28 Cl28          -4.0151    -0.0614     0.0415 Cl      
  29 H29            1.1329     3.0597     0.0073 H       
  30 H30            4.2870     0.1280    -1.9813 H       
  31 H31            7.1709    -2.3934    -0.0541 H       
  32 H32            5.6741    -2.6295     1.8798 H       
  33 H33            3.4965    -1.4910     1.9068 H       
  34 H34           -2.4955    -2.0514     1.9580 H       
  35 H35           -2.9134    -4.4748     1.9420 H       
  36 H36           -1.1718    -4.7598    -1.9512 H       
  37 H37           -0.7598    -2.3353    -1.9508 H       
  38 H38           -2.4145    -6.4379    -2.0470 H       
  39 H39           -0.8174    -6.7173    -1.3126 H       
  40 H40           -2.1351    -7.8843    -1.0480 H       
  41 H41            2.2057    -2.3896    -0.0322 H       
@<TRIPOS>BOND
   1    1    2 2
   2    1    6 1
   3    1    9 1
   4    2    3 1
   5    2    7 1
   6    3    4 2
   7    3   27 1
   8    4    5 1
   9    4   11 1
  10    5    6 am
  11    5   10 2
  12    6   29 1
  13    7    8 2
  14    7   19 1
  15    8    9 1
  16    8   28 1
  17   11   12 ar
  18   11   16 ar
  19   12   13 ar
  20   12   30 1
  21   13   14 ar
  22   13   17 1
  23   14   15 ar
  24   14   31 1
  25   15   16 ar
  26   15   32 1
  27   16   33 1
  28   17   18 3
  29   19   20 ar
  30   19   24 ar
  31   20   21 ar
  32   20   34 1
  33   21   22 ar
  34   21   35 1
  35   22   23 ar
  36   22   25 1
  37   23   24 ar
  38   23   36 1
  39   24   37 1
  40   25   26 1
  41   26   38 1
  42   26   39 1
  43   26   40 1
  44   27   41 1

#	End of record

