#	Name: ASD03330402
#	Creating user name:	WinNT
#	Creation time:	15. 06. 2019 20:37

#	Modifying user name:	WinNT
#	Modification time:	15. 06. 2019 20:37

#	Program:	/corina/corina34_cracker 3.40 0067  02.08.2006

@<TRIPOS>MOLECULE
ASD03330402
  68   70    0    0    0
SMALL
NO_CHARGES


@<TRIPOS>ATOM
   1 C1            -0.3175     0.2908     2.6229 C.3     
   2 N2            -0.3528    -1.0945     2.1299 N.am    
   3 C3             0.3768    -1.4059     0.8859 C.3     
   4 C4             1.7064    -0.6969     0.9669 C.2     
   5 N5             2.0189     0.2286     1.9086 N.pl3   
   6 C6             1.1247     0.6631     2.9844 C.3     
   7 C7             2.7884    -0.8370     0.1593 C.2     
   8 N8             3.7462     0.0051     0.6085 N.2     
   9 C9             3.2902     0.6499     1.6578 C.2     
  10 C10            4.0327     1.6650     2.4371 C.ar    
  11 C11            5.1916     2.2395     1.9144 C.ar    
  12 C12            2.8993    -1.7435    -0.9973 C.2     
  13 O13            1.9629    -2.4569    -1.3028 O.2     
  14 C14            4.1489    -2.6832    -2.8662 C.3     
  15 N15            4.0386    -1.7820    -1.7164 N.am    
  16 C16           -1.0308    -2.0508     2.7949 C.2     
  17 O17           -1.1197    -3.1668     2.3284 O.2     
  18 C18            5.8793     3.1860     2.6459 C.ar    
  19 C19            5.4219     3.5654     3.8952 C.ar    
  20 C20            4.2734     2.9993     4.4191 C.ar    
  21 C21            3.5737     2.0557     3.6953 C.ar    
  22 C22           -1.6786    -1.7334     4.1180 C.3     
  23 C23           -2.2775    -3.0100     4.7119 C.3     
  24 C24            4.4359    -0.8081    -4.4923 C.3     
  25 C25            3.5626    -2.0033    -4.1051 C.3     
  26 C26            3.5221    -3.0019    -5.2637 C.3     
  27 C27            5.5996    -3.0095    -3.1113 C.2     
  28 N28            5.9322    -4.0575    -3.8907 N.am    
  29 C29            2.1437    -1.5202    -3.7984 C.3     
  30 O30            6.4677    -2.3290    -2.6072 O.2     
  31 C31            7.3396    -4.4282    -4.0582 C.3     
  32 C32           -0.6291    -1.1684     5.0772 C.3     
  33 C33           -2.7870    -0.6998     3.9083 C.3     
  34 H34           -0.6830     0.9628     1.8464 H       
  35 H35           -0.9485     0.3785     3.5073 H       
  36 H36            0.5330    -2.4816     0.8055 H       
  37 H37           -0.1854    -1.0451     0.0246 H       
  38 H38            1.2019     1.7433     3.1080 H       
  39 H39            1.4064     0.1684     3.9139 H       
  40 H40            5.5499     1.9439     0.9394 H       
  41 H41            3.5994    -3.6021    -2.6617 H       
  42 H42            4.7854    -1.2131    -1.4727 H       
  43 H43            6.7767     3.6312     2.2425 H       
  44 H44            5.9639     4.3064     4.4641 H       
  45 H45            3.9213     3.2997     5.3950 H       
  46 H46            2.6773     1.6146     4.1053 H       
  47 H47           -1.4879    -3.7464     4.8613 H       
  48 H48           -2.7461    -2.7804     5.6689 H       
  49 H49           -3.0253    -3.4126     4.0285 H       
  50 H50            5.4467    -1.1523    -4.7108 H       
  51 H51            4.0182    -0.3238    -5.3749 H       
  52 H52            4.4647    -0.0968    -3.6669 H       
  53 H53            4.5201    -3.4083    -5.4281 H       
  54 H54            2.8351    -3.8125    -5.0208 H       
  55 H55            3.1823    -2.4961    -6.1675 H       
  56 H56            5.2398    -4.5663    -4.3408 H       
  57 H57            1.7261    -1.0359    -4.6811 H       
  58 H58            1.5216    -2.3717    -3.5226 H       
  59 H59            2.1726    -0.8088    -2.9730 H       
  60 H60            7.8862    -3.5920    -4.4940 H       
  61 H61            7.7681    -4.6758    -3.0870 H       
  62 H62            7.4115    -5.2928    -4.7181 H       
  63 H63           -0.3305    -0.1743     4.7444 H       
  64 H64           -1.0507    -1.1042     6.0803 H       
  65 H65            0.2416    -1.8240     5.0903 H       
  66 H66           -3.5645    -1.1245     3.2733 H       
  67 H67           -3.2150    -0.4253     4.8725 H       
  68 H68           -2.3711     0.1869     3.4298 H       
@<TRIPOS>BOND
   1    1    2 1
   2    1    6 1
   3    1   34 1
   4    1   35 1
   5    2    3 1
   6    2   16 am
   7    3    4 1
   8    3   36 1
   9    3   37 1
  10    4    5 1
  11    4    7 2
  12    5    6 1
  13    5    9 1
  14    6   38 1
  15    6   39 1
  16    7    8 1
  17    7   12 1
  18    8    9 2
  19    9   10 1
  20   10   11 ar
  21   10   21 ar
  22   11   18 ar
  23   11   40 1
  24   12   13 2
  25   12   15 am
  26   14   15 1
  27   14   27 1
  28   14   25 1
  29   14   41 1
  30   15   42 1
  31   16   17 2
  32   16   22 1
  33   18   19 ar
  34   18   43 1
  35   19   20 ar
  36   19   44 1
  37   20   21 ar
  38   20   45 1
  39   21   46 1
  40   22   23 1
  41   22   32 1
  42   22   33 1
  43   23   47 1
  44   23   48 1
  45   23   49 1
  46   24   25 1
  47   24   50 1
  48   24   51 1
  49   24   52 1
  50   25   29 1
  51   25   26 1
  52   26   53 1
  53   26   54 1
  54   26   55 1
  55   27   28 am
  56   27   30 2
  57   28   31 1
  58   28   56 1
  59   29   57 1
  60   29   58 1
  61   29   59 1
  62   31   60 1
  63   31   61 1
  64   31   62 1
  65   32   63 1
  66   32   64 1
  67   32   65 1
  68   33   66 1
  69   33   67 1
  70   33   68 1

#	End of record

