#	Name: ASD02590030
#	Creating user name:	WinNT
#	Creation time:	15. 06. 2019 20:25

#	Modifying user name:	WinNT
#	Modification time:	15. 06. 2019 20:25

#	Program:	/corina/corina34_cracker 3.40 0067  02.08.2006

@<TRIPOS>MOLECULE
ASD02590030
  31   34    0    0    0
SMALL
NO_CHARGES


@<TRIPOS>ATOM
   1 C1            -0.0168     1.3890     0.0097 C.ar    
   2 C2             0.0021    -0.0041     0.0020 C.ar    
   3 C3            -1.1764    -0.7178     0.0090 C.ar    
   4 C4            -2.3921    -0.0478     0.0242 C.ar    
   5 C5            -2.4205     1.3588     0.0325 C.ar    
   6 C6            -1.2174     2.0718     0.0305 C.ar    
   7 N7            -3.7107    -0.4591     0.0346 N.pl3   
   8 C8            -4.4862     0.6685     0.0486 C.2     
   9 N9            -3.7224     1.7326     0.0472 N.2     
  10 C10           -5.9660     0.6833     0.0626 C.ar    
  11 C11           -6.6452     1.9006     0.0762 C.ar    
  12 C12           -8.0299     1.8981     0.0892 C.ar    
  13 C13           -8.6899     0.6781     0.0882 C.ar    
  14 C14           -7.9522    -0.4930     0.0743 C.ar    
  15 N15           -6.6363    -0.4631     0.0566 N.ar    
  16 N16            1.1916     2.1030     0.0020 N.pl3   
  17 C17            2.4537     1.5684    -0.0129 C.2     
  18 C18            3.3156     2.6032    -0.0161 C.2     
  19 N19            2.6045     3.7403    -0.0035 N.2     
  20 C20            1.3310     3.4539     0.0019 C.2     
  21 H21            0.9465    -0.5278    -0.0098 H       
  22 H22           -1.1544    -1.7976     0.0023 H       
  23 H23           -1.2270     3.1518     0.0369 H       
  24 H24           -4.0278    -1.3758     0.0320 H       
  25 H25           -6.0992     2.8324     0.0769 H       
  26 H26           -8.5836     2.8253     0.1002 H       
  27 H27           -9.7692     0.6422     0.0985 H       
  28 H28           -8.4633    -1.4444     0.0739 H       
  29 H29            2.7081     0.5189    -0.0201 H       
  30 H30            4.3930     2.5301    -0.0266 H       
  31 H31            0.5236     4.1710     0.0115 H       
@<TRIPOS>BOND
   1    1    2 ar
   2    1   16 1
   3    1    6 ar
   4    2    3 ar
   5    2   21 1
   6    3    4 ar
   7    3   22 1
   8    4    5 ar
   9    4    7 1
  10    5    6 ar
  11    5    9 1
  12    6   23 1
  13    7    8 1
  14    7   24 1
  15    8    9 2
  16    8   10 1
  17   10   11 ar
  18   10   15 ar
  19   11   12 ar
  20   11   25 1
  21   12   13 ar
  22   12   26 1
  23   13   14 ar
  24   13   27 1
  25   14   15 ar
  26   14   28 1
  27   16   17 1
  28   16   20 1
  29   17   18 2
  30   17   29 1
  31   18   19 1
  32   18   30 1
  33   19   20 2
  34   20   31 1

#	End of record

