#	Name: ASD01908110
#	Creating user name:	WinNT
#	Creation time:	15. 06. 2019 19:54

#	Modifying user name:	WinNT
#	Modification time:	15. 06. 2019 19:54

#	Program:	/corina/corina34_cracker 3.40 0067  02.08.2006

@<TRIPOS>MOLECULE
ASD01908110
  34   35    0    0    0
SMALL
NO_CHARGES


@<TRIPOS>ATOM
   1 C1            -0.0184     1.5028     0.0103 C.2     
   2 C2             0.0112     0.0230    -0.2731 C.3     
   3 C3            -0.1053    -0.7506     1.0418 C.3     
   4 O4             1.0121     2.1429     0.0008 O.2     
   5 N5            -2.7995     3.7193     0.6889 N.pl3   
   6 N6            -3.4354     2.4730     0.6973 N.2     
   7 C7            -2.5516     1.5438     0.4625 C.2     
   8 C8            -1.2937     2.1702     0.2917 C.2     
   9 C9            -1.4946     3.5319     0.4415 C.2     
  10 C10           -3.4511     5.0130     0.9075 C.3     
  11 C11           -4.5896     5.1731    -0.0668 C.ar    
  12 C12           -5.8567     4.7377     0.2748 C.ar    
  13 C13           -6.9020     4.8833    -0.6166 C.ar    
  14 C14           -6.6796     5.4669    -1.8554 C.ar    
  15 C15           -5.4073     5.9029    -2.1957 C.ar    
  16 C16           -4.3665     5.7602    -1.2986 C.ar    
  17 O17           -7.7062     5.6108    -2.7341 O.3     
  18 C18           -7.4038     6.2203    -3.9908 C.3     
  19 Br19          -1.4933    -0.4497    -1.4470 Br      
  20 H20            0.9498    -0.2343    -0.7640 H       
  21 H21           -1.0439    -0.4933     1.5327 H       
  22 H22           -0.0839    -1.8209     0.8369 H       
  23 H23            0.7288    -0.4885     1.6927 H       
  24 H24           -2.7451     0.4827     0.4082 H       
  25 H25           -0.7399     4.3012     0.3720 H       
  26 H26           -3.8357     5.0586     1.9263 H       
  27 H27           -2.7278     5.8143     0.7559 H       
  28 H28           -6.0293     4.2832     1.2391 H       
  29 H29           -7.8915     4.5428    -0.3494 H       
  30 H30           -5.2316     6.3575    -3.1595 H       
  31 H31           -3.3769     6.1037    -1.5612 H       
  32 H32           -8.3090     6.2741    -4.5956 H       
  33 H33           -7.0184     7.2261    -3.8234 H       
  34 H34           -6.6535     5.6257    -4.5118 H       
@<TRIPOS>BOND
   1    1    2 1
   2    1    4 2
   3    1    8 1
   4    2    3 1
   5    2   19 1
   6    2   20 1
   7    3   21 1
   8    3   22 1
   9    3   23 1
  10    5    6 1
  11    5    9 1
  12    5   10 1
  13    6    7 2
  14    7    8 1
  15    7   24 1
  16    8    9 2
  17    9   25 1
  18   10   11 1
  19   10   26 1
  20   10   27 1
  21   11   12 ar
  22   11   16 ar
  23   12   13 ar
  24   12   28 1
  25   13   14 ar
  26   13   29 1
  27   14   15 ar
  28   14   17 1
  29   15   16 ar
  30   15   30 1
  31   16   31 1
  32   17   18 1
  33   18   32 1
  34   18   33 1
  35   18   34 1

#	End of record

