#	Name: ASD01914202
#	Creating user name:	WinNT
#	Creation time:	15. 06. 2019 20:03

#	Modifying user name:	WinNT
#	Modification time:	15. 06. 2019 20:03

#	Program:	/corina/corina34_cracker 3.40 0067  02.08.2006

@<TRIPOS>MOLECULE
ASD01914202
  36   37    0    0    0
SMALL
NO_CHARGES


@<TRIPOS>ATOM
   1 C1            -0.0930     1.4776    -0.0014 C.2     
   2 C2            -0.1729     0.0029    -0.0071 C.ar    
   3 C3             0.2771    -0.7210    -1.1160 C.ar    
   4 C4             0.1985    -2.1016    -1.1129 C.ar    
   5 C5            -0.3236    -2.7642    -0.0177 C.ar    
   6 C6            -0.7709    -2.0526     1.0821 C.ar    
   7 C7            -0.6928    -0.6759     1.0966 C.ar    
   8 O8             0.9037     2.0340    -0.4195 O.2     
   9 N9            -1.1273     2.2067     0.4624 N.am    
  10 C10           -1.0058     3.6624     0.5737 C.3     
  11 C11           -1.4645     4.3139    -0.7324 C.3     
  12 C12           -1.3424     5.7765    -0.6206 C.1     
  13 C13           -1.2449     6.9431    -0.5314 C.1     
  14 C14           -1.1261     8.3660    -0.4226 C.ar    
  15 C15           -1.4895     9.1755    -1.4995 C.ar    
  16 C16           -1.3689    10.5484    -1.3788 C.ar    
  17 C17           -0.8887    11.0693    -0.1850 C.ar    
  18 C18           -0.5469    10.2091     0.8422 C.ar    
  19 N19           -0.6761     8.9053     0.7045 N.ar    
  20 C20           -2.3732     1.5435     0.8552 C.3     
  21 F21            0.7865    -0.0736    -2.1868 F       
  22 H22            0.5452    -2.6631    -1.9678 H       
  23 H23           -0.3832    -3.8425    -0.0204 H       
  24 H24           -1.1781    -2.5776     1.9336 H       
  25 H25           -1.0381    -0.1235     1.9580 H       
  26 H26           -1.6285     4.0173     1.3950 H       
  27 H27            0.0341     3.9265     0.7658 H       
  28 H28           -0.8418     3.9590    -1.5537 H       
  29 H29           -2.5044     4.0498    -0.9246 H       
  30 H30           -1.8592     8.7365    -2.4144 H       
  31 H31           -1.6419    11.2004    -2.1953 H       
  32 H32           -0.7827    12.1367    -0.0598 H       
  33 H33           -0.1728    10.6119     1.7718 H       
  34 H34           -2.3023     1.2233     1.8947 H       
  35 H35           -3.2053     2.2390     0.7452 H       
  36 H36           -2.5390     0.6749     0.2179 H       
@<TRIPOS>BOND
   1    1    2 1
   2    1    8 2
   3    1    9 am
   4    2    3 ar
   5    2    7 ar
   6    3    4 ar
   7    3   21 1
   8    4    5 ar
   9    4   22 1
  10    5    6 ar
  11    5   23 1
  12    6    7 ar
  13    6   24 1
  14    7   25 1
  15    9   10 1
  16    9   20 1
  17   10   11 1
  18   10   26 1
  19   10   27 1
  20   11   12 1
  21   11   28 1
  22   11   29 1
  23   12   13 3
  24   13   14 1
  25   14   15 ar
  26   14   19 ar
  27   15   16 ar
  28   15   30 1
  29   16   17 ar
  30   16   31 1
  31   17   18 ar
  32   17   32 1
  33   18   19 ar
  34   18   33 1
  35   20   34 1
  36   20   35 1
  37   20   36 1

#	End of record

