#	Name: ASD05720041
#	Creating user name:	WinNT
#	Creation time:	15. 06. 2019 21:01

#	Modifying user name:	WinNT
#	Modification time:	15. 06. 2019 21:01

#	Program:	/corina/corina34_cracker 3.40 0067  02.08.2006

@<TRIPOS>MOLECULE
ASD05720041
  49   54    0    0    0
SMALL
NO_CHARGES


@<TRIPOS>ATOM
   1 O1            -0.0161     1.3334     0.0094 O.3     
   2 C2             0.0021    -0.0041     0.0020 C.2     
   3 N3             1.2348    -0.5293    -0.0126 N.am    
   4 C4             2.2183     0.5645    -0.0161 C.3     
   5 C5             1.3508     1.8379    -0.0010 C.3     
   6 O6            -1.0069    -0.6808     0.0084 O.2     
   7 C7             3.0621     0.5136    -1.2636 C.ar    
   8 C8             4.4174     0.7764    -1.1925 C.ar    
   9 C9             5.1915     0.7298    -2.3369 C.ar    
  10 C10            4.6103     0.4199    -3.5522 C.ar    
  11 C11            3.2552     0.1562    -3.6232 C.ar    
  12 C12            2.4820     0.1985    -2.4781 C.ar    
  13 C13            3.0997    -3.5830    -0.0446 C.2     
  14 N14            2.7934    -2.2820    -0.0358 N.2     
  15 C15            1.5348    -1.8852    -0.0220 C.2     
  16 C16            0.4948    -2.8369    -0.0165 C.2     
  17 C17            0.8012    -4.1542    -0.0253 C.2     
  18 N18            2.1144    -4.5345    -0.0395 N.pl3   
  19 N19            2.7294    -5.7914    -0.0515 N.2     
  20 C20            4.0306    -5.6364    -0.0634 C.2     
  21 C21            4.3226    -4.2670    -0.0650 C.2     
  22 C22            5.6706    -3.6561    -0.0831 C.ar    
  23 C23            6.6407    -4.0788     0.8272 C.ar    
  24 C24            7.8966    -3.5089     0.8095 C.ar    
  25 C25            8.1963    -2.5093    -0.1195 C.ar    
  26 C26            7.2260    -2.0883    -1.0281 C.ar    
  27 C27            5.9737    -2.6612    -1.0144 C.ar    
  28 N28           11.2830    -0.6691    -0.6320 N.pl3   
  29 N29            9.9472    -0.9508    -0.9614 N.2     
  30 C30            9.5460    -1.8958    -0.1389 C.2     
  31 N31           10.5598    -2.2120     0.6787 N.2     
  32 C32           11.6046    -1.4818     0.3903 C.2     
  33 F33            8.8363    -3.9168     1.6903 F       
  34 H34            2.8457     0.5180     0.8740 H       
  35 H35            1.5314     2.4339    -0.8956 H       
  36 H36            1.5485     2.4243     0.8964 H       
  37 H37            4.8714     1.0186    -0.2430 H       
  38 H38            6.2502     0.9358    -2.2814 H       
  39 H39            5.2150     0.3842    -4.4464 H       
  40 H40            2.8012    -0.0856    -4.5728 H       
  41 H41            1.4239    -0.0111    -2.5330 H       
  42 H42           -0.5367    -2.5172    -0.0049 H       
  43 H43            0.0174    -4.8972    -0.0209 H       
  44 H44            4.7584    -6.4342    -0.0738 H       
  45 H45            6.4080    -4.8513     1.5451 H       
  46 H46            7.4581    -1.3156    -1.7461 H       
  47 H47            5.2243    -2.3375    -1.7215 H       
  48 H48           11.8615    -0.0190    -1.0605 H       
  49 H49           12.5623    -1.5238     0.8878 H       
@<TRIPOS>BOND
   1    1    2 1
   2    1    5 1
   3    2    3 am
   4    2    6 2
   5    3    4 1
   6    3   15 1
   7    4    5 1
   8    4    7 1
   9    4   34 1
  10    5   35 1
  11    5   36 1
  12    7    8 ar
  13    7   12 ar
  14    8    9 ar
  15    8   37 1
  16    9   10 ar
  17    9   38 1
  18   10   11 ar
  19   10   39 1
  20   11   12 ar
  21   11   40 1
  22   12   41 1
  23   13   14 1
  24   13   18 1
  25   13   21 2
  26   14   15 2
  27   15   16 1
  28   16   17 2
  29   16   42 1
  30   17   18 1
  31   17   43 1
  32   18   19 1
  33   19   20 2
  34   20   21 1
  35   20   44 1
  36   21   22 1
  37   22   23 ar
  38   22   27 ar
  39   23   24 ar
  40   23   45 1
  41   24   25 ar
  42   24   33 1
  43   25   26 ar
  44   25   30 1
  45   26   27 ar
  46   26   46 1
  47   27   47 1
  48   28   29 1
  49   28   32 1
  50   28   48 1
  51   29   30 2
  52   30   31 1
  53   31   32 2
  54   32   49 1

#	End of record

