#	Name: ASD06660057
#	Creating user name:	WinNT
#	Creation time:	15. 06. 2019 21:07

#	Modifying user name:	WinNT
#	Modification time:	15. 06. 2019 21:07

#	Program:	/corina/corina34_cracker 3.40 0067  02.08.2006

@<TRIPOS>MOLECULE
ASD06660057
  72   75    0    0    0
SMALL
NO_CHARGES


@<TRIPOS>ATOM
   1 C1             0.0649     1.6573     0.9355 C.2     
   2 C2             0.0089     0.2620     0.3687 C.3     
   3 C3            -1.0699     0.1944    -0.7141 C.3     
   4 O4             1.0856     2.2995     0.8601 O.2     
   5 O5            -1.0207     2.1886     1.5193 O.3     
   6 C6            -1.2169    -1.2284    -1.1886 C.ar    
   7 C7            -2.0891    -2.0846    -0.5417 C.ar    
   8 C8            -2.2262    -3.3891    -0.9739 C.ar    
   9 C9            -1.4869    -3.8408    -2.0597 C.ar    
  10 C10           -0.6117    -2.9780    -2.7072 C.ar    
  11 C11           -0.4836    -1.6731    -2.2733 C.ar    
  12 N12           -1.6228    -5.1596    -2.4991 N.3     
  13 C13           -0.7536    -5.4220    -3.6533 C.3     
  14 C14           -1.0342    -6.8249    -4.1965 C.3     
  15 C15           -0.7749    -7.8552    -3.0938 C.3     
  16 C16           -1.6573    -7.5308    -1.8853 C.3     
  17 C17           -1.3586    -6.1074    -1.4091 C.3     
  18 C18           -1.1070    -9.2336    -3.6044 C.2     
  19 N19           -0.9546   -10.3047    -2.8007 N.am    
  20 O20           -1.5114    -9.3791    -4.7382 O.2     
  21 C21           -1.2590   -11.5685    -3.2687 C.2     
  22 N22           -1.6927   -11.7866    -4.4655 N.2     
  23 C23           -1.9252   -13.2238    -4.6645 C.3     
  24 C24           -1.5358   -13.8550    -3.3129 C.3     
  25 N25           -1.1213   -12.6950    -2.5060 N.pl3   
  26 N26            1.3083    -0.0806    -0.2145 N.am    
  27 C27            2.3339    -0.4340     0.5854 C.2     
  28 C28            3.6686    -0.6915     0.0054 C.ar    
  29 C29            4.0680    -1.9985    -0.2810 C.ar    
  30 C30            5.3145    -2.2325    -0.8219 C.ar    
  31 C31            6.1701    -1.1742    -1.0809 C.ar    
  32 C32            5.7796     0.1242    -0.7985 C.ar    
  33 C33            4.5327     0.3713    -0.2635 C.ar    
  34 O34            2.1611    -0.5408     1.7839 O.2     
  35 C35            4.1068     1.7853     0.0370 C.3     
  36 C36            3.1389    -3.1509     0.0010 C.3     
  37 C37            2.2057    -3.3578    -1.1937 C.3     
  38 Cl38           7.7381    -1.4768    -1.7615 Cl      
  39 H39           -0.2299    -0.4439     1.1641 H       
  40 H40           -2.0186     0.5405    -0.3039 H       
  41 H41           -0.7834     0.8292    -1.5526 H       
  42 H42           -0.9365     3.0866     1.8681 H       
  43 H43           -2.6633    -1.7330     0.3027 H       
  44 H44           -2.9073    -4.0575    -0.4680 H       
  45 H45           -0.0354    -3.3259    -3.5517 H       
  46 H46            0.1931    -1.0004    -2.7793 H       
  47 H47           -0.9510    -4.6849    -4.4316 H       
  48 H48            0.2897    -5.3539    -3.3451 H       
  49 H49           -2.0738    -6.8895    -4.5177 H       
  50 H50           -0.3780    -7.0252    -5.0434 H       
  51 H51            0.2740    -7.8176    -2.7996 H       
  52 H52           -2.7067    -7.6065    -2.1701 H       
  53 H53           -1.4462    -8.2355    -1.0809 H       
  54 H54           -0.3124    -6.0361    -1.1114 H       
  55 H55           -1.9955    -5.8682    -0.5574 H       
  56 H56           -0.6311   -10.1884    -1.8937 H       
  57 H57           -2.9752   -13.4140    -4.8867 H       
  58 H58           -1.2892   -13.6069    -5.4626 H       
  59 H59           -2.3921   -14.3559    -2.8613 H       
  60 H60           -0.7046   -14.5490    -3.4376 H       
  61 H61           -0.8066   -12.7247    -1.5890 H       
  62 H62            1.4306    -0.0533    -1.1764 H       
  63 H63            5.6245    -3.2429    -1.0439 H       
  64 H64            6.4511     0.9452    -1.0022 H       
  65 H65            4.3990     2.0443     1.0547 H       
  66 H66            4.5888     2.4667    -0.6640 H       
  67 H67            3.0244     1.8676    -0.0623 H       
  68 H68            3.7228    -4.0562     0.1670 H       
  69 H69            2.5477    -2.9318     0.8901 H       
  70 H70            1.4698    -4.1245    -0.9514 H       
  71 H71            1.6944    -2.4225    -1.4216 H       
  72 H72            2.7881    -3.6737    -2.0592 H       
@<TRIPOS>BOND
   1    1    2 1
   2    1    4 2
   3    1    5 1
   4    2    3 1
   5    2   26 1
   6    2   39 1
   7    3    6 1
   8    3   40 1
   9    3   41 1
  10    5   42 1
  11    6    7 ar
  12    6   11 ar
  13    7    8 ar
  14    7   43 1
  15    8    9 ar
  16    8   44 1
  17    9   10 ar
  18    9   12 1
  19   10   11 ar
  20   10   45 1
  21   11   46 1
  22   12   13 1
  23   12   17 1
  24   13   14 1
  25   13   47 1
  26   13   48 1
  27   14   15 1
  28   14   49 1
  29   14   50 1
  30   15   16 1
  31   15   18 1
  32   15   51 1
  33   16   17 1
  34   16   52 1
  35   16   53 1
  36   17   54 1
  37   17   55 1
  38   18   19 am
  39   18   20 2
  40   19   21 1
  41   19   56 1
  42   21   22 2
  43   21   25 1
  44   22   23 1
  45   23   24 1
  46   23   57 1
  47   23   58 1
  48   24   25 1
  49   24   59 1
  50   24   60 1
  51   25   61 1
  52   26   27 am
  53   26   62 1
  54   27   28 1
  55   27   34 2
  56   28   29 ar
  57   28   33 ar
  58   29   30 ar
  59   29   36 1
  60   30   31 ar
  61   30   63 1
  62   31   32 ar
  63   31   38 1
  64   32   33 ar
  65   32   64 1
  66   33   35 1
  67   35   65 1
  68   35   66 1
  69   35   67 1
  70   36   37 1
  71   36   68 1
  72   36   69 1
  73   37   70 1
  74   37   71 1
  75   37   72 1

#	End of record

