#	Name: ASD01028508
#	Creating user name:	WinNT
#	Creation time:	15. 06. 2019 18:57

#	Modifying user name:	WinNT
#	Modification time:	15. 06. 2019 18:57

#	Program:	/corina/corina34_cracker 3.40 0067  02.08.2006

@<TRIPOS>MOLECULE
ASD01028508
  42   46    0    0    0
SMALL
NO_CHARGES


@<TRIPOS>ATOM
   1 C1            -0.0170     1.4037     0.0098 C.ar    
   2 C2             0.0021    -0.0041     0.0020 C.ar    
   3 C3             1.1898     2.1073     0.0020 C.ar    
   4 C4             2.3653     1.3807    -0.0131 C.ar    
   5 C5             2.3094    -0.0048    -0.0200 C.ar    
   6 N6             1.1616    -0.6482    -0.0132 N.ar    
   7 C7             1.2093     3.6141     0.0094 C.3     
   8 C8             1.1036     4.1184     1.4501 C.3     
   9 C9             1.1231     5.6253     1.4575 C.2     
  10 N10            0.0462     6.4370     1.3766 N.pl3   
  11 C11            0.5351     7.7212     1.4203 C.2     
  12 N12            1.8507     7.6266     1.5229 N.2     
  13 N13            2.1867     6.3841     1.5492 N.2     
  14 N14           -1.3280     6.2143     1.2677 N.2     
  15 C15           -2.1645     7.2267     1.2061 C.2     
  16 C16           -1.6936     8.5562     1.2481 C.2     
  17 C17           -0.3616     8.8045     1.3547 C.2     
  18 C18           -3.6208     6.9681     1.0906 C.ar    
  19 C19           -4.0976     5.6594     1.0477 C.ar    
  20 C20           -5.4534     5.4247     0.9406 C.ar    
  21 C21           -6.3385     6.4857     0.8759 C.ar    
  22 C22           -5.8709     7.7868     0.9181 C.ar    
  23 C23           -4.5176     8.0331     1.0303 C.ar    
  24 N24           -1.3066    -0.4232     0.0123 N.pl3   
  25 C25           -2.1454     0.6589     0.0261 C.2     
  26 C26           -1.4280     1.7935     0.0195 C.2     
  27 H27            3.3190     1.8876    -0.0199 H       
  28 H28            3.2300    -0.5693    -0.0322 H       
  29 H29            2.1412     3.9676    -0.4318 H       
  30 H30            0.3668     3.9912    -0.5702 H       
  31 H31            0.1717     3.7650     1.8913 H       
  32 H32            1.9461     3.7413     2.0298 H       
  33 H33           -2.3928     9.3777     1.1959 H       
  34 H34            0.0044     9.8200     1.3873 H       
  35 H35           -3.4073     4.8302     1.0978 H       
  36 H36           -5.8239     4.4108     0.9070 H       
  37 H37           -7.3987     6.2975     0.7918 H       
  38 H38           -6.5664     8.6115     0.8668 H       
  39 H39           -4.1535     9.0494     1.0632 H       
  40 H40           -1.5940    -1.3496     0.0101 H       
  41 H41           -3.2241     0.6074     0.0356 H       
  42 H42           -1.8172     2.8009     0.0275 H       
@<TRIPOS>BOND
   1    1    2 ar
   2    1    3 ar
   3    1   26 1
   4    2   24 1
   5    2    6 ar
   6    3    4 ar
   7    3    7 1
   8    4    5 ar
   9    4   27 1
  10    5    6 ar
  11    5   28 1
  12    7    8 1
  13    7   29 1
  14    7   30 1
  15    8    9 1
  16    8   31 1
  17    8   32 1
  18    9   10 1
  19    9   13 2
  20   10   11 1
  21   10   14 1
  22   11   12 2
  23   11   17 1
  24   12   13 1
  25   14   15 2
  26   15   16 1
  27   15   18 1
  28   16   17 2
  29   16   33 1
  30   17   34 1
  31   18   19 ar
  32   18   23 ar
  33   19   20 ar
  34   19   35 1
  35   20   21 ar
  36   20   36 1
  37   21   22 ar
  38   21   37 1
  39   22   23 ar
  40   22   38 1
  41   23   39 1
  42   24   25 1
  43   24   40 1
  44   25   26 2
  45   25   41 1
  46   26   42 1

#	End of record

