#	Name: ASD09900029
#	Creating user name:	WinNT
#	Creation time:	15. 06. 2019 21:24

#	Modifying user name:	WinNT
#	Modification time:	15. 06. 2019 21:24

#	Program:	/corina/corina34_cracker 3.40 0067  02.08.2006

@<TRIPOS>MOLECULE
ASD09900029
  28   29    0    0    0
SMALL
NO_CHARGES


@<TRIPOS>ATOM
   1 C1            -0.0164     1.3550     0.0095 C.ar    
   2 C2             0.0021    -0.0041     0.0020 C.ar    
   3 C3             1.2066    -0.6971    -0.0127 C.ar    
   4 C4             2.3977    -0.0123    -0.0200 C.ar    
   5 C5             2.4046     1.3866    -0.0125 C.ar    
   6 C6             1.1936     2.0899     0.0019 C.ar    
   7 S7             3.7468     2.5250    -0.0181 S.3     
   8 C8             2.6501     3.8949    -0.0011 C.2     
   9 C9             1.3788     3.4818     0.0076 C.2     
  10 C10            3.0716     5.3032     0.0032 C.2     
  11 O11            2.2368     6.1879     0.0157 O.2     
  12 N12            4.3830     5.6142    -0.0067 N.am    
  13 C13            4.8030     7.0177    -0.0023 C.3     
  14 C14            6.2071     7.1280     0.5955 C.3     
  15 C15            4.8160     7.5505    -1.4365 C.3     
  16 H16           -0.9612     1.8781     0.0168 H       
  17 H17           -0.9291    -0.5511     0.0080 H       
  18 H18            1.2064    -1.7771    -0.0182 H       
  19 H19            3.3311    -0.5554    -0.0311 H       
  20 H20            0.5489     4.1729     0.0190 H       
  21 H21            5.0486     4.9087    -0.0166 H       
  22 H22            4.1060     7.6037     0.5967 H       
  23 H23            6.9041     6.5419    -0.0036 H       
  24 H24            6.5196     8.1722     0.5987 H       
  25 H25            6.1978     6.7483     1.6172 H       
  26 H26            3.8157     7.4720    -1.8624 H       
  27 H27            5.1285     8.5948    -1.4333 H       
  28 H28            5.5130     6.9645    -2.0355 H       
@<TRIPOS>BOND
   1    1    2 ar
   2    1    6 ar
   3    1   16 1
   4    2    3 ar
   5    2   17 1
   6    3    4 ar
   7    3   18 1
   8    4    5 ar
   9    4   19 1
  10    5    7 1
  11    5    6 ar
  12    6    9 1
  13    7    8 1
  14    8    9 2
  15    8   10 1
  16    9   20 1
  17   10   11 2
  18   10   12 am
  19   12   13 1
  20   12   21 1
  21   13   14 1
  22   13   15 1
  23   13   22 1
  24   14   23 1
  25   14   24 1
  26   14   25 1
  27   15   26 1
  28   15   27 1
  29   15   28 1

#	End of record

