#	Name: ASD00311331
#	Creating user name:	WinNT
#	Creation time:	15. 06. 2019 18:34

#	Modifying user name:	WinNT
#	Modification time:	15. 06. 2019 18:34

#	Program:	/corina/corina34_cracker 3.40 0067  02.08.2006

@<TRIPOS>MOLECULE
ASD00311331
  50   54    0    0    0
SMALL
NO_CHARGES


@<TRIPOS>ATOM
   1 C1            -0.0167     1.3779     0.0096 C.2     
   2 C2             0.0021    -0.0041     0.0020 C.2     
   3 C3             1.2588    -0.6766    -0.0133 C.2     
   4 C4             2.4315     0.0674    -0.0202 C.2     
   5 C5             2.3574     1.4754    -0.0120 C.2     
   6 N6             1.1649     2.0906     0.0022 N.am    
   7 C7            -1.3431    -0.5749     0.0123 C.2     
   8 C8            -2.3222     0.3256     0.0268 C.2     
   9 S9            -1.6794     1.9560     0.0358 S.3     
  10 O10            3.3823     2.1374    -0.0176 O.2     
  11 C11            3.7477    -0.6118    -0.0357 C.ar    
  12 C12            4.5937    -0.4743    -1.1360 C.ar    
  13 C13            5.8188    -1.1092    -1.1442 C.ar    
  14 C14            6.2085    -1.8807    -0.0641 C.ar    
  15 C15            5.3737    -2.0209     1.0302 C.ar    
  16 C16            4.1485    -1.3867     1.0525 C.ar    
  17 O17            1.3089    -2.0290    -0.0206 O.3     
  18 C18           -1.5955    -2.0354     0.0070 C.ar    
  19 C19           -1.2006    -2.8204     1.0952 C.ar    
  20 C20           -1.4397    -4.1839     1.0831 C.ar    
  21 C21           -2.0669    -4.7685    -0.0021 C.ar    
  22 C22           -2.4597    -3.9950    -1.0819 C.ar    
  23 C23           -2.2323    -2.6312    -1.0795 C.ar    
  24 F24           -3.0718    -4.5740    -2.1380 F       
  25 O25           -0.5833    -2.2460     2.1615 O.3     
  26 C26           -0.2082    -3.1096     3.2365 C.3     
  27 C27            0.4577    -2.3019     4.3206 C.ar    
  28 C28           -0.3008    -1.7492     5.3355 C.ar    
  29 C29            0.3101    -1.0083     6.3300 C.ar    
  30 C30            1.6795    -0.8206     6.3097 C.ar    
  31 C31            2.4381    -1.3742     5.2953 C.ar    
  32 C32            1.8278    -2.1186     4.3033 C.ar    
  33 H33            1.1327     3.0600     0.0073 H       
  34 H34           -3.3748     0.0838     0.0354 H       
  35 H35            4.2904     0.1275    -1.9799 H       
  36 H36            6.4746    -1.0038    -1.9958 H       
  37 H37            7.1682    -2.3760    -0.0753 H       
  38 H38            5.6835    -2.6245     1.8705 H       
  39 H39            3.4994    -1.4935     1.9091 H       
  40 H40            2.2062    -2.3894    -0.0309 H       
  41 H41           -1.1357    -4.7921     1.9222 H       
  42 H42           -2.2508    -5.8327    -0.0077 H       
  43 H43           -2.5435    -2.0295    -1.9206 H       
  44 H44           -1.0970    -3.5954     3.6393 H       
  45 H45            0.4849    -3.8665     2.8696 H       
  46 H46           -1.3706    -1.8958     5.3514 H       
  47 H47           -0.2826    -0.5758     7.1225 H       
  48 H48            2.1567    -0.2412     7.0863 H       
  49 H49            3.5079    -1.2272     5.2793 H       
  50 H50            2.4209    -2.5542     3.5128 H       
@<TRIPOS>BOND
   1    1    2 2
   2    1    6 1
   3    1    9 1
   4    2    3 1
   5    2    7 1
   6    3    4 2
   7    3   17 1
   8    4    5 1
   9    4   11 1
  10    5    6 am
  11    5   10 2
  12    6   33 1
  13    7    8 2
  14    7   18 1
  15    8    9 1
  16    8   34 1
  17   11   12 ar
  18   11   16 ar
  19   12   13 ar
  20   12   35 1
  21   13   14 ar
  22   13   36 1
  23   14   15 ar
  24   14   37 1
  25   15   16 ar
  26   15   38 1
  27   16   39 1
  28   17   40 1
  29   18   19 ar
  30   18   23 ar
  31   19   20 ar
  32   19   25 1
  33   20   21 ar
  34   20   41 1
  35   21   22 ar
  36   21   42 1
  37   22   23 ar
  38   22   24 1
  39   23   43 1
  40   25   26 1
  41   26   27 1
  42   26   44 1
  43   26   45 1
  44   27   28 ar
  45   27   32 ar
  46   28   29 ar
  47   28   46 1
  48   29   30 ar
  49   29   47 1
  50   30   31 ar
  51   30   48 1
  52   31   32 ar
  53   31   49 1
  54   32   50 1

#	End of record

