#	Name: ASD01150025
#	Creating user name:	WinNT
#	Creation time:	15. 06. 2019 19:03

#	Modifying user name:	WinNT
#	Modification time:	15. 06. 2019 19:03

#	Program:	/corina/corina34_cracker 3.40 0067  02.08.2006

@<TRIPOS>MOLECULE
ASD01150025
  47   49    0    0    0
SMALL
NO_CHARGES


@<TRIPOS>ATOM
   1 N1            -0.1210     0.9977     0.2003 N.ar    
   2 C2             0.2328    -0.2824     0.1135 C.ar    
   3 C3             1.5704    -0.6026    -0.1000 C.ar    
   4 C4             2.4902     0.4357    -0.2151 C.ar    
   5 N5             2.0638     1.6928    -0.1177 N.ar    
   6 C6             0.7821     1.9606     0.0859 C.ar    
   7 S7             0.2653     3.6407     0.2072 S.3     
   8 C8            -1.5094     3.4051     0.4741 C.3     
   9 C9             2.0125    -2.0395    -0.2038 C.3     
  10 F10            0.9867    -2.8032    -0.7710 F       
  11 F11            3.1534    -2.1194    -1.0095 F       
  12 F12            2.3077    -2.5299     1.0727 F       
  13 C13            6.1948     0.8370    -0.2638 C.3     
  14 C14            4.7727     1.2615    -0.6701 C.3     
  15 C15            4.8243     1.5900    -2.1765 C.3     
  16 C16            6.0439     0.7902    -2.6981 C.3     
  17 C17            7.0610     0.9223    -1.5375 C.3     
  18 N18            3.8328     0.1642    -0.4277 N.pl3   
  19 C19           -3.8926    -1.1335     2.1449 C.3     
  20 C20           -4.1884    -2.1717     1.0429 C.3     
  21 C21           -3.0575    -2.0474     0.0069 C.3     
  22 C22           -2.1139    -0.9381     0.5155 C.3     
  23 C23           -2.3653    -0.8964     2.0432 C.3     
  24 N24           -0.7182    -1.2836     0.2347 N.pl3   
  25 H25           -1.6662     2.8266     1.3845 H       
  26 H26           -1.9940     4.3765     0.5728 H       
  27 H27           -1.9366     2.8705    -0.3743 H       
  28 H28            6.5831     1.5133     0.4978 H       
  29 H29            6.1857    -0.1855     0.1138 H       
  30 H30            4.4708     2.1438    -0.1058 H       
  31 H31            3.9111     1.2585    -2.6708 H       
  32 H32            4.9755     2.6586    -2.3290 H       
  33 H33            5.7791    -0.2543    -2.8627 H       
  34 H34            6.4382     1.2382    -3.6102 H       
  35 H35            7.5733     1.8831    -1.5867 H       
  36 H36            7.7801     0.1036    -1.5653 H       
  37 H37            4.1500    -0.7524    -0.4160 H       
  38 H38           -4.4358    -0.2082     1.9531 H       
  39 H39           -4.1521    -1.5332     3.1252 H       
  40 H40           -4.1968    -3.1753     1.4680 H       
  41 H41           -5.1489    -1.9559     0.5749 H       
  42 H42           -2.5171    -2.9908    -0.0708 H       
  43 H43           -3.4692    -1.7714    -0.9639 H       
  44 H44           -2.3699     0.0188     0.0605 H       
  45 H45           -2.0975     0.0778     2.4524 H       
  46 H46           -1.8165    -1.6922     2.5469 H       
  47 H47           -0.4595    -2.2130     0.1337 H       
@<TRIPOS>BOND
   1    1    2 ar
   2    1    6 ar
   3    2    3 ar
   4    2   24 1
   5    3    4 ar
   6    3    9 1
   7    4    5 ar
   8    4   18 1
   9    5    6 ar
  10    6    7 1
  11    7    8 1
  12    8   25 1
  13    8   26 1
  14    8   27 1
  15    9   10 1
  16    9   11 1
  17    9   12 1
  18   13   14 1
  19   13   17 1
  20   13   28 1
  21   13   29 1
  22   14   15 1
  23   14   18 1
  24   14   30 1
  25   15   16 1
  26   15   31 1
  27   15   32 1
  28   16   17 1
  29   16   33 1
  30   16   34 1
  31   17   35 1
  32   17   36 1
  33   18   37 1
  34   19   20 1
  35   19   23 1
  36   19   38 1
  37   19   39 1
  38   20   21 1
  39   20   40 1
  40   20   41 1
  41   21   22 1
  42   21   42 1
  43   21   43 1
  44   22   23 1
  45   22   24 1
  46   22   44 1
  47   23   45 1
  48   23   46 1
  49   24   47 1

#	End of record

