#	Name: ASD01883994
#	Creating user name:	WinNT
#	Creation time:	15. 06. 2019 19:47

#	Modifying user name:	WinNT
#	Modification time:	15. 06. 2019 19:47

#	Program:	/corina/corina34_cracker 3.40 0067  02.08.2006

@<TRIPOS>MOLECULE
ASD01883994
  46   47    0    0    0
SMALL
NO_CHARGES


@<TRIPOS>ATOM
   1 C1            -0.0171     1.4071     0.0098 C.2     
   2 C2             0.0021    -0.0041     0.0020 C.2     
   3 C3            -1.2296    -0.6975     0.0100 C.2     
   4 C4            -2.3903    -0.0080     0.0247 C.2     
   5 N5            -2.4075     1.3514     0.0322 N.am    
   6 C6            -1.2687     2.0683     0.0312 C.2     
   7 C7             1.2043     2.1546     0.0021 C.1     
   8 N8             2.1732     2.7476    -0.0039 N.1     
   9 C9             1.2715    -0.7347    -0.0145 C.2     
  10 O10           -1.3149     3.2867     0.0383 O.2     
  11 C11           -3.6944     2.0513     0.0482 C.3     
  12 C12           -4.1287     2.2872     1.4962 C.3     
  13 C13           -5.4726     3.0182     1.5129 C.3     
  14 C14           -5.9670     3.1437     2.9554 C.3     
  15 C15           -5.3018     4.4136     0.9091 C.3     
  16 C16            1.2733    -2.0840    -0.0217 C.2     
  17 C17            2.5477    -2.8174    -0.0383 C.ar    
  18 C18            2.5523    -4.2169    -0.0458 C.ar    
  19 C19            3.7483    -4.8989    -0.0618 C.ar    
  20 C20            4.9497    -4.1998    -0.0699 C.ar    
  21 C21            4.9506    -2.8099    -0.0625 C.ar    
  22 C22            3.7600    -2.1183    -0.0523 C.ar    
  23 O23            6.1264    -4.8770    -0.0848 O.3     
  24 C24            7.3237    -4.0971    -0.0925 C.3     
  25 H25           -1.2421    -1.7774     0.0040 H       
  26 H26           -3.3255    -0.5482     0.0304 H       
  27 H27            2.2061    -0.1934    -0.0208 H       
  28 H28           -3.5932     3.0095    -0.4615 H       
  29 H29           -4.4437     1.4458    -0.4618 H       
  30 H30           -4.2298     1.3291     2.0059 H       
  31 H31           -3.3794     2.8927     2.0062 H       
  32 H32           -6.1996     2.4555     0.9273 H       
  33 H33           -5.2400     3.7065     3.5410 H       
  34 H34           -6.9245     3.6645     2.9673 H       
  35 H35           -6.0888     2.1496     3.3855 H       
  36 H36           -4.5748     4.9764     1.4947 H       
  37 H37           -4.9496     4.3242    -0.1185 H       
  38 H38           -6.2592     4.9344     0.9210 H       
  39 H39            0.3388    -2.6252    -0.0154 H       
  40 H40            1.6194    -4.7610    -0.0388 H       
  41 H41            3.7530    -5.9789    -0.0676 H       
  42 H42            5.8868    -2.2714    -0.0689 H       
  43 H43            3.7618    -1.0383    -0.0465 H       
  44 H44            7.3391    -3.4638    -0.9795 H       
  45 H45            7.3564    -3.4727     0.8004 H       
  46 H46            8.1890    -4.7599    -0.1042 H       
@<TRIPOS>BOND
   1    1    2 2
   2    1    7 1
   3    1    6 1
   4    2    3 1
   5    2    9 1
   6    3    4 2
   7    3   25 1
   8    4    5 1
   9    4   26 1
  10    5   11 1
  11    5    6 am
  12    6   10 2
  13    7    8 3
  14    9   16 2
  15    9   27 1
  16   11   12 1
  17   11   28 1
  18   11   29 1
  19   12   13 1
  20   12   30 1
  21   12   31 1
  22   13   14 1
  23   13   15 1
  24   13   32 1
  25   14   33 1
  26   14   34 1
  27   14   35 1
  28   15   36 1
  29   15   37 1
  30   15   38 1
  31   16   17 1
  32   16   39 1
  33   17   18 ar
  34   17   22 ar
  35   18   19 ar
  36   18   40 1
  37   19   20 ar
  38   19   41 1
  39   20   21 ar
  40   20   23 1
  41   21   22 ar
  42   21   42 1
  43   22   43 1
  44   23   24 1
  45   24   44 1
  46   24   45 1
  47   24   46 1

#	End of record

