#	Name: ASD01120286
#	Creating user name:	WinNT
#	Creation time:	15. 06. 2019 18:59

#	Modifying user name:	WinNT
#	Modification time:	15. 06. 2019 18:59

#	Program:	/corina/corina34_cracker 3.40 0067  02.08.2006

@<TRIPOS>MOLECULE
ASD01120286
  47   49    0    0    0
SMALL
NO_CHARGES


@<TRIPOS>ATOM
   1 C1             0.3591     1.2523     0.6218 C.3     
   2 C2             0.2678    -0.2245     0.2325 C.3     
   3 O3            -1.0776    -0.7092     0.4841 O.3     
   4 C4            -1.3273    -2.0021     0.1923 C.2     
   5 O5            -0.4441    -2.7048    -0.2603 O.2     
   6 C6            -2.6644    -2.5606     0.4207 C.2     
   7 N7            -3.7486    -1.8667     0.9282 N.pl3   
   8 C8            -4.8251    -2.7198     0.9979 C.ar    
   9 C9            -4.3993    -3.9748     0.5220 C.ar    
  10 C10           -3.0395    -3.8428     0.1621 C.2     
  11 C11           -5.3092    -5.0487     0.4815 C.ar    
  12 C12           -6.6102    -4.8569     0.9100 C.ar    
  13 C13           -7.0191    -3.6167     1.3770 C.ar    
  14 C14           -6.1404    -2.5563     1.4230 C.ar    
  15 N15           -6.5964    -1.2403     1.9249 N.pl3   
  16 O16           -7.7473    -1.0957     2.2966 O.2     
  17 O17           -5.8208    -0.3021     1.9662 O.2     
  18 N18           -4.9023    -6.2947     0.0130 N.pl3   
  19 C19           -5.7585    -7.3961     0.1198 C.ar    
  20 C20           -5.8820    -8.2849    -0.9397 C.ar    
  21 C21           -6.7272    -9.3737    -0.8355 C.ar    
  22 C22           -7.4527    -9.5805     0.3261 C.ar    
  23 C23           -7.3317    -8.6911     1.3900 C.ar    
  24 C24           -6.4808    -7.6036     1.2880 C.ar    
  25 O25           -8.0441    -8.8933     2.5306 O.3     
  26 C26           -7.8704    -7.9406     3.5814 C.3     
  27 O27           -8.2843   -10.6529     0.4271 O.3     
  28 C28           -8.3598   -11.5240    -0.7032 C.3     
  29 H29            1.3691     1.6161     0.4329 H       
  30 H30           -0.3515     1.8288     0.0295 H       
  31 H31            0.1247     1.3641     1.6804 H       
  32 H32            0.5022    -0.3364    -0.8261 H       
  33 H33            0.9784    -0.8010     0.8248 H       
  34 H34           -3.7492    -0.9331     1.1916 H       
  35 H35           -2.4090    -4.6217    -0.2407 H       
  36 H36           -7.3117    -5.6775     0.8805 H       
  37 H37           -8.0380    -3.4804     1.7083 H       
  38 H38           -4.0250    -6.3994    -0.3875 H       
  39 H39           -5.3173    -8.1252    -1.8464 H       
  40 H40           -6.8221   -10.0638    -1.6608 H       
  41 H41           -6.3853    -6.9127     2.1125 H       
  42 H42           -6.8246    -7.9248     3.8883 H       
  43 H43           -8.1600    -6.9515     3.2266 H       
  44 H44           -8.4942    -8.2189     4.4309 H       
  45 H45           -7.3726   -11.9373    -0.9100 H       
  46 H46           -9.0562   -12.3352    -0.4909 H       
  47 H47           -8.7082   -10.9638    -1.5710 H       
@<TRIPOS>BOND
   1    1    2 1
   2    1   29 1
   3    1   30 1
   4    1   31 1
   5    2    3 1
   6    2   32 1
   7    2   33 1
   8    3    4 1
   9    4    5 2
  10    4    6 1
  11    6    7 1
  12    6   10 2
  13    7    8 1
  14    7   34 1
  15    8    9 ar
  16    8   14 ar
  17    9   10 1
  18    9   11 ar
  19   10   35 1
  20   11   12 ar
  21   11   18 1
  22   12   13 ar
  23   12   36 1
  24   13   14 ar
  25   13   37 1
  26   14   15 1
  27   15   16 2
  28   15   17 2
  29   18   19 1
  30   18   38 1
  31   19   20 ar
  32   19   24 ar
  33   20   21 ar
  34   20   39 1
  35   21   22 ar
  36   21   40 1
  37   22   23 ar
  38   22   27 1
  39   23   24 ar
  40   23   25 1
  41   24   41 1
  42   25   26 1
  43   26   42 1
  44   26   43 1
  45   26   44 1
  46   27   28 1
  47   28   45 1
  48   28   46 1
  49   28   47 1

#	End of record

