#	Name: ASD03081281
#	Creating user name:	WinNT
#	Creation time:	15. 06. 2019 20:27

#	Modifying user name:	WinNT
#	Modification time:	15. 06. 2019 20:27

#	Program:	/corina/corina34_cracker 3.40 0067  02.08.2006

@<TRIPOS>MOLECULE
ASD03081281
  27   29    0    0    0
SMALL
NO_CHARGES


@<TRIPOS>ATOM
   1 C1            -0.0167     1.3806     0.0096 C.ar    
   2 C2             0.0021    -0.0041     0.0020 C.ar    
   3 C3             1.2221    -0.6807    -0.0132 C.ar    
   4 C4             2.4162     0.0434    -0.0207 C.ar    
   5 C5             2.3857     1.4226    -0.0130 C.ar    
   6 C6             1.1755     2.0917     0.0021 C.ar    
   7 O7            -1.2030     2.0437     0.0188 O.3     
   8 O8             2.3529    -2.9348    -0.0356 O.3     
   9 C9             1.2506    -2.1579    -0.0210 C.2     
  10 N10            0.2069    -2.9557    -0.0141 N.2     
  11 N11            0.6045    -4.1793    -0.0236 N.2     
  12 C12            1.9178    -4.2112    -0.0370 C.2     
  13 C13            4.1549    -5.3177    -0.0654 C.ar    
  14 C14            2.7628    -5.4231    -0.0514 C.ar    
  15 C15            2.1813    -6.6966    -0.0508 C.ar    
  16 C16            3.0173    -7.7993    -0.0642 C.ar    
  17 C17            4.3874    -7.6102    -0.0776 C.ar    
  18 N18            4.9079    -6.3977    -0.0783 N.ar    
  19 H19           -0.9248    -0.5584     0.0082 H       
  20 H20            3.3630    -0.4761    -0.0322 H       
  21 H21            3.3098     1.9815    -0.0185 H       
  22 H22            1.1579     3.1716     0.0080 H       
  23 H23           -1.5421     2.2308     0.9049 H       
  24 H24            4.6180    -4.3420    -0.0706 H       
  25 H25            1.1079    -6.8154    -0.0398 H       
  26 H26            2.6043    -8.7972    -0.0638 H       
  27 H27            5.0420    -8.4691    -0.0881 H       
@<TRIPOS>BOND
   1    1    2 ar
   2    1    6 ar
   3    1    7 1
   4    2    3 ar
   5    2   19 1
   6    3    4 ar
   7    3    9 1
   8    4    5 ar
   9    4   20 1
  10    5    6 ar
  11    5   21 1
  12    6   22 1
  13    7   23 1
  14    8    9 1
  15    8   12 1
  16    9   10 2
  17   10   11 1
  18   11   12 2
  19   12   14 1
  20   13   14 ar
  21   13   18 ar
  22   13   24 1
  23   14   15 ar
  24   15   16 ar
  25   15   25 1
  26   16   17 ar
  27   16   26 1
  28   17   18 ar
  29   17   27 1

#	End of record

