#	Name: ASD04910367
#	Creating user name:	WinNT
#	Creation time:	15. 06. 2019 20:55

#	Modifying user name:	WinNT
#	Modification time:	15. 06. 2019 20:55

#	Program:	/corina/corina34_cracker 3.40 0067  02.08.2006

@<TRIPOS>MOLECULE
ASD04910367
  60   62    0    0    0
SMALL
NO_CHARGES


@<TRIPOS>ATOM
   1 C1            -2.0227     1.0532    -0.5231 C.2     
   2 C2            -1.6770    -0.3831    -0.5247 C.ar    
   3 C3            -0.3394    -0.7825    -0.4931 C.ar    
   4 C4            -0.0237    -2.1253    -0.4943 C.ar    
   5 C5            -1.0290    -3.0756    -0.5270 C.ar    
   6 C6            -2.3565    -2.6867    -0.5589 C.ar    
   7 C7            -2.6865    -1.3473    -0.5518 C.ar    
   8 O8            -1.1424     1.8897    -0.4944 O.2     
   9 O9            -3.3140     1.4352    -0.5592 O.3     
  10 C10           -0.6763    -4.5407    -0.5286 C.3     
  11 C11           -0.6422    -5.0556    -1.9690 C.3     
  12 C12           -0.1635    -6.5087    -1.9800 C.3     
  13 C13           -0.1294    -7.0235    -3.4203 C.3     
  14 O14           -1.6574    -5.2676     0.2139 O.3     
  15 C15           -1.2071    -6.2654     1.0199 C.ar    
  16 C16            0.1350    -6.6170     1.0044 C.ar    
  17 C17            0.5929    -7.6300     1.8231 C.ar    
  18 C18           -0.2898    -8.2969     2.6620 C.ar    
  19 C19           -1.6326    -7.9447     2.6771 C.ar    
  20 C20           -2.0886    -6.9279     1.8618 C.ar    
  21 N21            0.1749    -9.3266     3.4937 N.pl3   
  22 N22            0.8962   -10.4555     3.0838 N.2     
  23 C23            1.1503   -11.1847     4.1407 C.2     
  24 C24            0.6001   -10.5451     5.2566 C.2     
  25 C25            0.0111    -9.4023     4.8336 C.2     
  26 C26            0.6585   -11.0383     6.6795 C.3     
  27 F27            1.3558   -12.2503     6.7247 F       
  28 F28            1.3151   -10.0926     7.4742 F       
  29 F29           -0.6413   -11.2298     7.1603 F       
  30 C30           -2.5913    -8.6681     3.5874 C.3     
  31 C31            2.0506    -8.0122     1.8059 C.3     
  32 C32           -3.5795     2.8627    -0.5553 C.3     
  33 C33           -5.0902     3.1006    -0.5992 C.3     
  34 H34            0.4462    -0.0418    -0.4682 H       
  35 H35            1.0104    -2.4357    -0.4699 H       
  36 H36           -3.1362    -3.4336    -0.5851 H       
  37 H37           -3.7232    -1.0452    -0.5718 H       
  38 H38            0.3027    -4.6793    -0.0699 H       
  39 H39           -1.6423    -4.9992    -2.3987 H       
  40 H40            0.0412    -4.4434    -2.5575 H       
  41 H41            0.8366    -6.5650    -1.5502 H       
  42 H42           -0.8469    -7.1208    -1.3914 H       
  43 H43            0.5540    -6.4114    -4.0089 H       
  44 H44            0.2117    -8.0588    -3.4282 H       
  45 H45           -1.1295    -6.9672    -3.8501 H       
  46 H46            0.8215    -6.0984     0.3516 H       
  47 H47           -3.1323    -6.6509     1.8768 H       
  48 H48            1.6913   -12.1194     4.1497 H       
  49 H49           -0.5004    -8.6817     5.4545 H       
  50 H50           -2.5729    -8.2068     4.5748 H       
  51 H51           -3.5990    -8.6067     3.1764 H       
  52 H52           -2.2954    -9.7140     3.6693 H       
  53 H53            2.5722    -7.4916     2.6090 H       
  54 H54            2.1457    -9.0886     1.9487 H       
  55 H55            2.4881    -7.7328     0.8475 H       
  56 H56           -3.1680     3.3063     0.3514 H       
  57 H57           -3.1139     3.3212    -1.4277 H       
  58 H58           -5.5016     2.6570    -1.5059 H       
  59 H59           -5.5558     2.6421     0.2732 H       
  60 H60           -5.2895     4.1722    -0.5963 H       
@<TRIPOS>BOND
   1    1    2 1
   2    1    8 2
   3    1    9 1
   4    2    3 ar
   5    2    7 ar
   6    3    4 ar
   7    3   34 1
   8    4    5 ar
   9    4   35 1
  10    5    6 ar
  11    5   10 1
  12    6    7 ar
  13    6   36 1
  14    7   37 1
  15    9   32 1
  16   10   11 1
  17   10   14 1
  18   10   38 1
  19   11   12 1
  20   11   39 1
  21   11   40 1
  22   12   13 1
  23   12   41 1
  24   12   42 1
  25   13   43 1
  26   13   44 1
  27   13   45 1
  28   14   15 1
  29   15   16 ar
  30   15   20 ar
  31   16   17 ar
  32   16   46 1
  33   17   18 ar
  34   17   31 1
  35   18   19 ar
  36   18   21 1
  37   19   20 ar
  38   19   30 1
  39   20   47 1
  40   21   22 1
  41   21   25 1
  42   22   23 2
  43   23   24 1
  44   23   48 1
  45   24   25 2
  46   24   26 1
  47   25   49 1
  48   26   27 1
  49   26   28 1
  50   26   29 1
  51   30   50 1
  52   30   51 1
  53   30   52 1
  54   31   53 1
  55   31   54 1
  56   31   55 1
  57   32   33 1
  58   32   56 1
  59   32   57 1
  60   33   58 1
  61   33   59 1
  62   33   60 1

#	End of record

