#	Name: ASD04590165
#	Creating user name:	WinNT
#	Creation time:	15. 06. 2019 20:50

#	Modifying user name:	WinNT
#	Modification time:	15. 06. 2019 20:50

#	Program:	/corina/corina34_cracker 3.40 0067  02.08.2006

@<TRIPOS>MOLECULE
ASD04590165
  57   59    0    0    0
SMALL
NO_CHARGES


@<TRIPOS>ATOM
   1 N1            -0.0153     1.2802     0.0091 N.pl3   
   2 N2             0.0021    -0.0041     0.0020 N.2     
   3 C3             1.2455    -0.4440    -0.0122 C.2     
   4 C4             2.0903     0.6961    -0.0142 C.2     
   5 C5             1.2523     1.7667    -0.0004 C.2     
   6 C6             1.6764    -1.8547    -0.0235 C.2     
   7 N7             0.7570    -2.8402    -0.0200 N.am    
   8 O8             2.8611    -2.1285    -0.0359 O.2     
   9 N9             3.4929     0.7146    -0.0266 N.am    
  10 C10            4.1513     1.8906    -0.0267 C.2     
  11 C11            1.1850    -4.2412    -0.0312 C.3     
  12 O12            3.5296     2.9354    -0.0160 O.2     
  13 C13            0.0889    -5.1141     0.5843 C.3     
  14 C14            0.5540    -6.5736     0.6025 C.3     
  15 N15            0.9419    -6.9634    -0.7599 N.am    
  16 C16            1.9230    -6.1388    -1.4784 C.3     
  17 C17            1.4426    -4.6842    -1.4733 C.3     
  18 C18            5.6287     1.9101    -0.0397 C.ar    
  19 C19            6.3136     3.1269    -0.0399 C.ar    
  20 C20            7.6924     3.1387    -0.0516 C.ar    
  21 C21            8.3979     1.9468    -0.0637 C.ar    
  22 C22            7.7241     0.7366    -0.0637 C.ar    
  23 C23            6.3455     0.7119    -0.0462 C.ar    
  24 C24            0.4081    -8.0569    -1.3395 C.2     
  25 C25           -1.3604    -9.4050    -3.2012 C.3     
  26 C26            0.1572    -9.5919    -3.1497 C.3     
  27 O27            0.7726    -8.4024    -2.5887 O.3     
  28 C28            0.4928   -10.8010    -2.2743 C.3     
  29 O29           -0.4021    -8.7308    -0.7347 O.2     
  30 C30            0.6909    -9.8231    -4.5649 C.3     
  31 Cl31          10.1337     1.9697    -0.0797 Cl      
  32 H32           -0.8184     1.8242     0.0160 H       
  33 H33            1.5405     2.8076     0.0019 H       
  34 H34           -0.1880    -2.6218    -0.0102 H       
  35 H35            3.9889    -0.1189    -0.0351 H       
  36 H36            2.1014    -4.3457     0.5497 H       
  37 H37           -0.1104    -4.7830     1.6035 H       
  38 H38           -0.8205    -5.0295    -0.0106 H       
  39 H39            1.4100    -6.6760     1.2695 H       
  40 H40           -0.2593    -7.2120     0.9477 H       
  41 H41            2.8906    -6.2058    -0.9811 H       
  42 H42            2.0130    -6.4903    -2.5062 H       
  43 H43            0.5204    -4.6036    -2.0488 H       
  44 H44            2.2067    -4.0471    -1.9186 H       
  45 H45            5.7646     4.0569    -0.0312 H       
  46 H46            8.2233     4.0792    -0.0518 H       
  47 H47            8.2796    -0.1895    -0.0735 H       
  48 H48            5.8211    -0.2322    -0.0461 H       
  49 H49           -1.5995    -8.5436    -3.8249 H       
  50 H50           -1.8224   -10.2979    -3.6224 H       
  51 H51           -1.7406    -9.2403    -2.1930 H       
  52 H52            0.0308   -11.6939    -2.6954 H       
  53 H53            1.5740   -10.9341    -2.2376 H       
  54 H54            0.1126   -10.6362    -1.2661 H       
  55 H55            0.4518    -8.9617    -5.1886 H       
  56 H56            1.7721    -9.9562    -4.5282 H       
  57 H57            0.2289   -10.7160    -4.9861 H       
@<TRIPOS>BOND
   1    1    2 1
   2    1    5 1
   3    1   32 1
   4    2    3 2
   5    3    4 1
   6    3    6 1
   7    4    5 2
   8    4    9 1
   9    5   33 1
  10    6    7 am
  11    6    8 2
  12    7   11 1
  13    7   34 1
  14    9   10 am
  15    9   35 1
  16   10   12 2
  17   10   18 1
  18   11   13 1
  19   11   17 1
  20   11   36 1
  21   13   14 1
  22   13   37 1
  23   13   38 1
  24   14   15 1
  25   14   39 1
  26   14   40 1
  27   15   16 1
  28   15   24 am
  29   16   17 1
  30   16   41 1
  31   16   42 1
  32   17   43 1
  33   17   44 1
  34   18   19 ar
  35   18   23 ar
  36   19   20 ar
  37   19   45 1
  38   20   21 ar
  39   20   46 1
  40   21   22 ar
  41   21   31 1
  42   22   23 ar
  43   22   47 1
  44   23   48 1
  45   24   29 2
  46   24   27 1
  47   25   26 1
  48   25   49 1
  49   25   50 1
  50   25   51 1
  51   26   27 1
  52   26   28 1
  53   26   30 1
  54   28   52 1
  55   28   53 1
  56   28   54 1
  57   30   55 1
  58   30   56 1
  59   30   57 1

#	End of record

