#	Name: ASD01152189
#	Creating user name:	WinNT
#	Creation time:	15. 06. 2019 19:05

#	Modifying user name:	WinNT
#	Modification time:	15. 06. 2019 19:05

#	Program:	/corina/corina34_cracker 3.40 0067  02.08.2006

@<TRIPOS>MOLECULE
ASD01152189
  19   18    0    0    0
SMALL
NO_CHARGES


@<TRIPOS>ATOM
   1 C1            -0.0184     1.5028     0.0103 C.3     
   2 C2             0.0021    -0.0041     0.0020 C.2     
   3 N3            -1.1558    -0.6938     0.0094 N.am    
   4 C4            -1.1375    -2.0414     0.0020 C.2     
   5 O5            -2.2938    -2.7301     0.0093 O.3     
   6 O6             1.0600    -0.5959    -0.0113 O.2     
   7 O7            -0.0776    -2.6343    -0.0113 O.2     
   8 C8             1.3626     2.0123    -0.0001 C.1     
   9 N9             2.4284     2.4055    -0.0082 N.1     
  10 C10           -3.6039    -4.7829     0.0108 C.3     
  11 C11           -2.1982    -4.1789     0.0006 C.3     
  12 H12           -0.5455     1.8639    -0.8728 H       
  13 H13           -0.5286     1.8543     0.9071 H       
  14 H14           -2.0023    -0.2203     0.0200 H       
  15 H15           -3.5321    -5.8705     0.0043 H       
  16 H16           -4.1320    -4.4590     0.9076 H       
  17 H17           -4.1490    -4.4495    -0.8723 H       
  18 H18           -1.6701    -4.5028    -0.8962 H       
  19 H19           -1.6531    -4.5124     0.8836 H       
@<TRIPOS>BOND
   1    1    2 1
   2    1    8 1
   3    1   12 1
   4    1   13 1
   5    2    3 am
   6    2    6 2
   7    3    4 am
   8    3   14 1
   9    4    5 1
  10    4    7 2
  11    5   11 1
  12    8    9 3
  13   10   11 1
  14   10   15 1
  15   10   16 1
  16   10   17 1
  17   11   18 1
  18   11   19 1

#	End of record

