#	Name: ASD08390044
#	Creating user name:	WinNT
#	Creation time:	15. 06. 2019 21:19

#	Modifying user name:	WinNT
#	Modification time:	15. 06. 2019 21:19

#	Program:	/corina/corina34_cracker 3.40 0067  02.08.2006

@<TRIPOS>MOLECULE
ASD08390044
  52   54    0    0    0
SMALL
NO_CHARGES


@<TRIPOS>ATOM
   1 C1            -0.2060     1.5203    -0.1749 C.3     
   2 C2            -0.0124     0.0676     0.3033 C.3     
   3 N3             1.1653     1.9614    -0.4802 N.pl3   
   4 C4             2.0205     0.9224    -0.2184 C.2     
   5 N5             1.4385    -0.1468     0.2146 N.2     
   6 C6             3.4851     1.0171    -0.4155 C.ar    
   7 C7             4.3553     0.4790     0.5321 C.ar    
   8 C8             5.7191     0.5705     0.3429 C.ar    
   9 C9             6.2236     1.1948    -0.7838 C.ar    
  10 C10            5.3654     1.7309    -1.7272 C.ar    
  11 C11            3.9997     1.6398    -1.5524 C.ar    
  12 C12           -1.0660     1.5628    -1.4117 C.ar    
  13 C13            1.5499     3.2841    -0.9791 C.3     
  14 C14            1.7001     4.2494     0.1984 C.3     
  15 C15           -2.4070     1.8826    -1.3105 C.ar    
  16 C16           -3.1958     1.9215    -2.4450 C.ar    
  17 C17           -2.6435     1.6411    -3.6808 C.ar    
  18 C18           -1.3022     1.3223    -3.7821 C.ar    
  19 C19           -0.5125     1.2876    -2.6481 C.ar    
  20 C20            2.0957     5.6100    -0.3148 C.2     
  21 O21            2.2424     5.7892    -1.5007 O.2     
  22 O22            2.2851     6.6228     0.5455 O.3     
  23 C23            2.8344     8.9282     1.1057 C.3     
  24 C24            2.6649     7.9053    -0.0195 C.3     
  25 C25           -0.7439    -0.8886    -0.6031 C.2     
  26 O26           -1.8823    -1.2070    -0.3530 O.2     
  27 O27           -0.1308    -1.3866    -1.6884 O.3     
  28 C28           -0.4933    -0.0903     1.7471 C.3     
  29 H29           -0.6392     2.1313     0.6171 H       
  30 H30            3.9626    -0.0080     1.4125 H       
  31 H31            6.3940     0.1542     1.0761 H       
  32 H32            7.2918     1.2643    -0.9274 H       
  33 H33            5.7652     2.2174    -2.6046 H       
  34 H34            3.3307     2.0584    -2.2897 H       
  35 H35            2.4981     3.2100    -1.5114 H       
  36 H36            0.7807     3.6545    -1.6567 H       
  37 H37            0.7518     4.3235     0.7308 H       
  38 H38            2.4693     3.8790     0.8761 H       
  39 H39           -2.8385     2.1016    -0.3449 H       
  40 H40           -4.2437     2.1706    -2.3658 H       
  41 H41           -3.2599     1.6709    -4.5671 H       
  42 H42           -0.8708     1.1029    -4.7476 H       
  43 H43            0.5354     1.0385    -2.7273 H       
  44 H44            1.8936     9.0334     1.6459 H       
  45 H45            3.6110     8.5889     1.7912 H       
  46 H46            3.1195     9.8910     0.6815 H       
  47 H47            3.6057     7.8001    -0.5597 H       
  48 H48            1.8883     8.2447    -0.7050 H       
  49 H49           -0.6404    -1.9962    -2.2396 H       
  50 H50           -1.5515     0.1641     1.8074 H       
  51 H51           -0.3489    -1.1221     2.0674 H       
  52 H52            0.0777     0.5747     2.3950 H       
@<TRIPOS>BOND
   1    1    2 1
   2    1    3 1
   3    1   12 1
   4    1   29 1
   5    2   25 1
   6    2   28 1
   7    2    5 1
   8    3    4 1
   9    3   13 1
  10    4    5 2
  11    4    6 1
  12    6    7 ar
  13    6   11 ar
  14    7    8 ar
  15    7   30 1
  16    8    9 ar
  17    8   31 1
  18    9   10 ar
  19    9   32 1
  20   10   11 ar
  21   10   33 1
  22   11   34 1
  23   12   15 ar
  24   12   19 ar
  25   13   14 1
  26   13   35 1
  27   13   36 1
  28   14   20 1
  29   14   37 1
  30   14   38 1
  31   15   16 ar
  32   15   39 1
  33   16   17 ar
  34   16   40 1
  35   17   18 ar
  36   17   41 1
  37   18   19 ar
  38   18   42 1
  39   19   43 1
  40   20   21 2
  41   20   22 1
  42   22   24 1
  43   23   24 1
  44   23   44 1
  45   23   45 1
  46   23   46 1
  47   24   47 1
  48   24   48 1
  49   25   26 2
  50   25   27 1
  51   27   49 1
  52   28   50 1
  53   28   51 1
  54   28   52 1

#	End of record

