#	Name: ASD05720065
#	Creating user name:	WinNT
#	Creation time:	15. 06. 2019 21:01

#	Modifying user name:	WinNT
#	Modification time:	15. 06. 2019 21:01

#	Program:	/corina/corina34_cracker 3.40 0067  02.08.2006

@<TRIPOS>MOLECULE
ASD05720065
  30   33    0    0    0
SMALL
NO_CHARGES


@<TRIPOS>ATOM
   1 O1            -0.0161     1.3334     0.0094 O.3     
   2 C2             0.0021    -0.0041     0.0020 C.2     
   3 N3             1.2348    -0.5293    -0.0126 N.am    
   4 C4             2.2183     0.5645    -0.0161 C.3     
   5 C5             1.3508     1.8379    -0.0010 C.3     
   6 O6            -1.0069    -0.6808     0.0087 O.2     
   7 C7             3.0750     0.5128    -1.2827 C.3     
   8 C8             4.1546     1.5840    -1.4494 C.3     
   9 C9             4.5510     0.1429    -1.1226 C.3     
  10 C10            3.0998    -3.5861    -0.0446 C.2     
  11 N11            2.7924    -2.2814    -0.0357 N.2     
  12 C12            1.5350    -1.8858    -0.0220 C.2     
  13 C13            0.4938    -2.8374    -0.0165 C.2     
  14 C14            0.7983    -4.1544    -0.0253 C.2     
  15 N15            2.1111    -4.5364    -0.0395 N.pl3   
  16 N16            2.7293    -5.7921    -0.0510 N.2     
  17 C17            4.0323    -5.6237    -0.0626 C.2     
  18 C18            4.3115    -4.2644    -0.0648 C.2     
  19 Br19           6.0310    -3.4778    -0.0879 Br      
  20 H20            2.8457     0.5180     0.8740 H       
  21 H21            1.5314     2.4339    -0.8956 H       
  22 H22            1.5485     2.4243     0.8964 H       
  23 H23            2.5643     0.1687    -2.1820 H       
  24 H24            4.3544     1.9444    -2.4586 H       
  25 H25            4.2545     2.3256    -0.6568 H       
  26 H26            4.9116    -0.0637    -0.1149 H       
  27 H27            5.0115    -0.4449    -1.9166 H       
  28 H28           -0.5374    -2.5166    -0.0049 H       
  29 H29            0.0136    -4.8964    -0.0208 H       
  30 H30            4.7671    -6.4151    -0.0732 H       
@<TRIPOS>BOND
   1    1    2 1
   2    1    5 1
   3    2    3 am
   4    2    6 2
   5    3    4 1
   6    3   12 1
   7    4    5 1
   8    4    7 1
   9    4   20 1
  10    5   21 1
  11    5   22 1
  12    7    8 1
  13    7    9 1
  14    7   23 1
  15    8    9 1
  16    8   24 1
  17    8   25 1
  18    9   26 1
  19    9   27 1
  20   10   11 1
  21   10   15 1
  22   10   18 2
  23   11   12 2
  24   12   13 1
  25   13   14 2
  26   13   28 1
  27   14   15 1
  28   14   29 1
  29   15   16 1
  30   16   17 2
  31   17   18 1
  32   17   30 1
  33   18   19 1

#	End of record

