#	Name: ASD03430772
#	Creating user name:	WinNT
#	Creation time:	15. 06. 2019 20:41

#	Modifying user name:	WinNT
#	Modification time:	15. 06. 2019 20:41

#	Program:	/corina/corina34_cracker 3.40 0067  02.08.2006

@<TRIPOS>MOLECULE
ASD03430772
  37   41    0    0    0
SMALL
NO_CHARGES


@<TRIPOS>ATOM
   1 C1            -0.0166     1.3720     0.0096 C.ar    
   2 C2             0.0021    -0.0041     0.0020 C.ar    
   3 C3             1.2076    -0.6874    -0.0063 C.ar    
   4 C4             2.3974     0.0225    -0.0001 C.ar    
   5 C5             2.3762     1.4109     0.0020 C.ar    
   6 C6             1.1683     2.0984     0.0022 C.ar    
   7 C7             1.1964    -2.1911    -0.0310 C.3     
   8 C8             2.5595    -2.7431     0.3817 C.3     
   9 C9            -0.7463    -3.4557     0.0048 C.ar    
  10 C10            0.1126    -2.7360     0.8450 C.ar    
  11 C11            0.8391    -2.6828    -1.4181 C.2     
  12 N12           -0.2953    -3.4040    -1.3022 N.am    
  13 O13            1.4558    -2.4682    -2.4402 O.2     
  14 C14           -0.1075    -2.6269     2.2008 C.ar    
  15 C15           -1.2309    -3.2691     2.7115 C.ar    
  16 C16           -2.0840    -3.9824     1.8949 C.ar    
  17 C17           -1.8699    -4.0955     0.5298 C.ar    
  18 C18           -1.1529     2.3761     0.0348 C.3     
  19 C19           -0.4203     3.6794     0.4321 C.3     
  20 O20            0.9246     3.4378    -0.0153 O.3     
  21 O21            3.6011    -0.6081     0.0095 O.3     
  22 C22            3.6435    -1.9785    -0.3898 C.3     
  23 H23           -0.9274    -0.5541     0.0029 H       
  24 H24            3.3056     1.9609     0.0038 H       
  25 H25            2.7034    -2.6031     1.4531 H       
  26 H26            2.6150    -3.8042     0.1387 H       
  27 H27           -0.7418    -3.8357    -2.0473 H       
  28 H28            0.5621    -2.0685     2.8382 H       
  29 H29           -1.4395    -3.2082     3.7694 H       
  30 H30           -2.9445    -4.4669     2.3322 H       
  31 H31           -2.5445    -4.6554    -0.1010 H       
  32 H32           -1.6104     2.4712    -0.9499 H       
  33 H33           -1.8967     2.1037     0.7836 H       
  34 H34           -0.8508     4.5372    -0.0846 H       
  35 H35           -0.4478     3.8240     1.5121 H       
  36 H36            4.6227    -2.3976    -0.1580 H       
  37 H37            3.4534    -2.0542    -1.4605 H       
@<TRIPOS>BOND
   1    1    2 ar
   2    1    6 ar
   3    1   18 1
   4    2    3 ar
   5    2   23 1
   6    3    4 ar
   7    3    7 1
   8    4    5 ar
   9    4   21 1
  10    5    6 ar
  11    5   24 1
  12    6   20 1
  13    7    8 1
  14    7   10 1
  15    7   11 1
  16    8   22 1
  17    8   25 1
  18    8   26 1
  19    9   10 ar
  20    9   12 1
  21    9   17 ar
  22   10   14 ar
  23   11   12 am
  24   11   13 2
  25   12   27 1
  26   14   15 ar
  27   14   28 1
  28   15   16 ar
  29   15   29 1
  30   16   17 ar
  31   16   30 1
  32   17   31 1
  33   18   19 1
  34   18   32 1
  35   18   33 1
  36   19   20 1
  37   19   34 1
  38   19   35 1
  39   21   22 1
  40   22   36 1
  41   22   37 1

#	End of record

