#	Name: ASD01410362
#	Creating user name:	WinNT
#	Creation time:	15. 06. 2019 19:17

#	Modifying user name:	WinNT
#	Modification time:	15. 06. 2019 19:17

#	Program:	/corina/corina34_cracker 3.40 0067  02.08.2006

@<TRIPOS>MOLECULE
ASD01410362
  79   85    0    0    0
SMALL
NO_CHARGES


@<TRIPOS>ATOM
   1 Cl1            0.6550    -0.0273     1.3898 Cl      
   2 C2             0.4456     1.6961     1.3949 C.ar    
   3 C3             1.5527     2.5254     1.4527 C.ar    
   4 C4             1.3916     3.8958     1.4570 C.ar    
   5 C5             0.1118     4.4448     1.4024 C.ar    
   6 C6            -0.9994     3.6057     1.3438 C.ar    
   7 C7            -0.8275     2.2365     1.3352 C.ar    
   8 C8            -0.0672     5.9174     1.4072 C.ar    
   9 C9             0.5748     6.6954     2.3692 C.ar    
  10 C10            0.4070     8.0640     2.3717 C.ar    
  11 C11           -0.4017     8.6677     1.4165 C.ar    
  12 C12           -1.0429     7.8939     0.4563 C.ar    
  13 C13           -0.8731     6.5259     0.4460 C.ar    
  14 C14           -1.5686     5.6875    -0.5953 C.3     
  15 O15           -2.3394     6.5335    -1.4510 O.3     
  16 C16           -3.0335     5.9312    -2.4509 C.ar    
  17 C17           -3.8029     6.6966    -3.3184 C.ar    
  18 C18           -4.5092     6.0908    -4.3346 C.ar    
  19 C19           -4.4517     4.7049    -4.4932 C.ar    
  20 C20           -3.6762     3.9367    -3.6183 C.ar    
  21 C21           -2.9674     4.5531    -2.6065 C.ar    
  22 F22           -3.6169     2.5952    -3.7663 F       
  23 C23           -5.2077     4.0516    -5.5811 C.2     
  24 N24           -5.2251     2.7625    -5.8186 N.2     
  25 C25           -6.0190     2.5089    -6.8888 C.ar    
  26 C26           -6.5230     3.7455    -7.3353 C.ar    
  27 N27           -6.0006     4.7013    -6.4897 N.pl3   
  28 C28           -6.2417     6.1448    -6.5563 C.3     
  29 C29           -6.8748     6.6171    -5.2460 C.3     
  30 C30           -7.1266     8.1246    -5.3155 C.3     
  31 C31           -5.7993     8.8539    -5.5326 C.3     
  32 C32           -5.1662     8.3816    -6.8429 C.3     
  33 C33           -4.9144     6.8741    -6.7733 C.3     
  34 C34           -7.3764     3.7969    -8.4317 C.ar    
  35 C35           -7.7298     2.6496    -9.0805 C.ar    
  36 C36           -7.2382     1.4095    -8.6500 C.ar    
  37 C37           -6.3821     1.3381    -7.5548 C.ar    
  38 C38           -7.6290     0.1765    -9.3599 C.2     
  39 O39           -7.2039    -0.8992    -8.9882 O.2     
  40 O40           -8.4573     0.2436   -10.4205 O.3     
  41 N41           -0.5712    10.0557     1.4216 N.am    
  42 C42           -1.3044    10.8042     0.3940 C.3     
  43 C43           -0.8653    12.2756     0.5639 C.3     
  44 C44           -0.4468    12.3099     2.0520 C.3     
  45 C45           -0.0883    10.8752     2.3714 C.2     
  46 O46            0.5484    10.5174     3.3397 O.2     
  47 H47            2.5441     2.0990     1.4950 H       
  48 H48            2.2558     4.5419     1.5028 H       
  49 H49           -1.9933     4.0263     1.3018 H       
  50 H50           -1.6880     1.5854     1.2898 H       
  51 H51            1.2029     6.2265     3.1122 H       
  52 H52            0.9042     8.6672     3.1169 H       
  53 H53           -1.6713     8.3652    -0.2850 H       
  54 H54           -0.8255     5.1526    -1.1868 H       
  55 H55           -2.2268     4.9706    -0.1044 H       
  56 H56           -3.8478     7.7686    -3.1957 H       
  57 H57           -5.1070     6.6875    -5.0077 H       
  58 H58           -2.3678     3.9619    -1.9303 H       
  59 H59           -6.9157     6.3627    -7.3848 H       
  60 H60           -7.8205     6.0975    -5.0914 H       
  61 H61           -6.2008     6.3991    -4.4175 H       
  62 H62           -7.8006     8.3426    -6.1440 H       
  63 H63           -7.5777     8.4611    -4.3820 H       
  64 H64           -5.9787     9.9279    -5.5821 H       
  65 H65           -5.1253     8.6360    -4.7041 H       
  66 H66           -5.8402     8.5996    -7.6713 H       
  67 H67           -4.2205     8.9012    -6.9975 H       
  68 H68           -4.2404     6.6561    -5.9449 H       
  69 H69           -4.4633     6.5376    -7.7069 H       
  70 H70           -7.7610     4.7475    -8.7707 H       
  71 H71           -8.3931     2.6973    -9.9315 H       
  72 H72           -6.0027     0.3831    -7.2222 H       
  73 H73           -8.6849    -0.5907   -10.8532 H       
  74 H74           -1.0366    10.4430    -0.5989 H       
  75 H75           -2.3786    10.7103     0.5533 H       
  76 H76           -0.0204    12.5079    -0.0844 H       
  77 H77           -1.6970    12.9549     0.3768 H       
  78 H78            0.4159    12.9615     2.1908 H       
  79 H79           -1.2787    12.6389     2.6748 H       
@<TRIPOS>BOND
   1    1    2 1
   2    2    3 ar
   3    2    7 ar
   4    3    4 ar
   5    3   47 1
   6    4    5 ar
   7    4   48 1
   8    5    6 ar
   9    5    8 1
  10    6    7 ar
  11    6   49 1
  12    7   50 1
  13    8    9 ar
  14    8   13 ar
  15    9   10 ar
  16    9   51 1
  17   10   11 ar
  18   10   52 1
  19   11   12 ar
  20   11   41 1
  21   12   13 ar
  22   12   53 1
  23   13   14 1
  24   14   15 1
  25   14   54 1
  26   14   55 1
  27   15   16 1
  28   16   17 ar
  29   16   21 ar
  30   17   18 ar
  31   17   56 1
  32   18   19 ar
  33   18   57 1
  34   19   20 ar
  35   19   23 1
  36   20   21 ar
  37   20   22 1
  38   21   58 1
  39   23   24 2
  40   23   27 1
  41   24   25 1
  42   25   26 ar
  43   25   37 ar
  44   26   27 1
  45   26   34 ar
  46   27   28 1
  47   28   29 1
  48   28   33 1
  49   28   59 1
  50   29   30 1
  51   29   60 1
  52   29   61 1
  53   30   31 1
  54   30   62 1
  55   30   63 1
  56   31   32 1
  57   31   64 1
  58   31   65 1
  59   32   33 1
  60   32   66 1
  61   32   67 1
  62   33   68 1
  63   33   69 1
  64   34   35 ar
  65   34   70 1
  66   35   36 ar
  67   35   71 1
  68   36   37 ar
  69   36   38 1
  70   37   72 1
  71   38   39 2
  72   38   40 1
  73   40   73 1
  74   41   42 1
  75   41   45 am
  76   42   43 1
  77   42   74 1
  78   42   75 1
  79   43   44 1
  80   43   76 1
  81   43   77 1
  82   44   45 1
  83   44   78 1
  84   44   79 1
  85   45   46 2

#	End of record

