#	Name: ASD01903176
#	Creating user name:	WinNT
#	Creation time:	15. 06. 2019 19:54

#	Modifying user name:	WinNT
#	Modification time:	15. 06. 2019 19:54

#	Program:	/corina/corina34_cracker 3.40 0067  02.08.2006

@<TRIPOS>MOLECULE
ASD01903176
  39   42    0    0    0
SMALL
NO_CHARGES


@<TRIPOS>ATOM
   1 S1            -0.1188     1.5736    -0.3554 S.3     
   2 C2             0.1158    -0.1199     0.0651 C.2     
   3 N3             1.3723    -0.3415     0.2888 N.2     
   4 C4             2.2001     0.6978     0.1645 C.2     
   5 C5             1.6110     1.8607    -0.1832 C.2     
   6 N6            -0.8926    -1.0727     0.1452 N.pl3   
   7 N7             2.2612     3.0830    -0.3744 N.3     
   8 C8            -0.5724    -2.4067     0.3752 C.ar    
   9 N9             0.6808    -2.7450     0.6367 N.ar    
  10 C10            1.0267    -3.9985     0.8610 C.ar    
  11 C11            0.0865    -5.0088     0.8301 C.ar    
  12 C12           -1.2394    -4.6961     0.5594 C.ar    
  13 C13           -1.5727    -3.3729     0.3340 C.ar    
  14 C14            3.6627     0.5829     0.3926 C.2     
  15 C15            4.4730     1.5088     1.0776 C.2     
  16 N16            5.7007     1.0597     1.0700 N.2     
  17 N17            5.7235    -0.1614     0.3852 N.pl3   
  18 C18            4.4642    -0.4416    -0.0182 C.2     
  19 C19            1.4325     4.2006     0.1005 C.3     
  20 C20            2.2049     5.5111    -0.0723 C.3     
  21 O21            2.5801     5.6601    -1.4443 O.3     
  22 C22            3.3885     4.5894    -1.9397 C.3     
  23 C23            2.6281     3.2696    -1.7858 C.3     
  24 H24           -1.8198    -0.8076     0.0408 H       
  25 H25            2.0588    -4.2372     1.0711 H       
  26 H26            0.3790    -6.0320     1.0143 H       
  27 H27           -1.9937    -5.4684     0.5292 H       
  28 H28           -2.5942    -3.0945     0.1207 H       
  29 H29            4.1383     2.4304     1.5305 H       
  30 H30            6.5065    -0.7127     0.2306 H       
  31 H31            4.1508    -1.3143    -0.5719 H       
  32 H32            0.5106     4.2423    -0.4796 H       
  33 H33            1.1940     4.0549     1.1541 H       
  34 H34            1.5730     6.3480     0.2252 H       
  35 H35            3.0998     5.4908     0.5496 H       
  36 H36            3.6126     4.7596    -2.9927 H       
  37 H37            4.3178     4.5423    -1.3720 H       
  38 H38            3.2624     2.4442    -2.1091 H       
  39 H39            1.7253     3.2963    -2.3960 H       
@<TRIPOS>BOND
   1    1    2 1
   2    1    5 1
   3    2    3 2
   4    2    6 1
   5    3    4 1
   6    4    5 2
   7    4   14 1
   8    5    7 1
   9    6    8 1
  10    6   24 1
  11    7   19 1
  12    7   23 1
  13    8    9 ar
  14    8   13 ar
  15    9   10 ar
  16   10   11 ar
  17   10   25 1
  18   11   12 ar
  19   11   26 1
  20   12   13 ar
  21   12   27 1
  22   13   28 1
  23   14   15 1
  24   14   18 2
  25   15   16 2
  26   15   29 1
  27   16   17 1
  28   17   18 1
  29   17   30 1
  30   18   31 1
  31   19   20 1
  32   19   32 1
  33   19   33 1
  34   20   21 1
  35   20   34 1
  36   20   35 1
  37   21   22 1
  38   22   23 1
  39   22   36 1
  40   22   37 1
  41   23   38 1
  42   23   39 1

#	End of record

