#	Name: ASD01470034
#	Creating user name:	WinNT
#	Creation time:	15. 06. 2019 19:21

#	Modifying user name:	WinNT
#	Modification time:	15. 06. 2019 19:21

#	Program:	/corina/corina34_cracker 3.40 0067  02.08.2006

@<TRIPOS>MOLECULE
ASD01470034
  83   89    0    0    0
SMALL
NO_CHARGES


@<TRIPOS>ATOM
   1 N1            -0.7998     1.2828     0.9969 N.am    
   2 C2             0.5459     0.7366     0.8438 C.3     
   3 C3             0.8925    -0.1918     2.0163 C.3     
   4 C4             0.3962    -1.6103     1.7830 C.3     
   5 C5            -0.8720    -1.6265     0.9457 C.3     
   6 N6            -1.8943    -0.7593     1.5327 N.am    
   7 C7            -1.8514     0.5755     1.3781 C.2     
   8 O8            -2.8775     1.1889     1.6003 O.2     
   9 C9            -2.9838    -1.3564     2.3091 C.3     
  10 C10           -0.9973     2.7070     0.7159 C.3     
  11 C11           -0.8736     3.4933     1.9955 C.ar    
  12 C12           -2.6230    -1.3448     3.7722 C.ar    
  13 C13           -2.8228    -0.2134     4.5086 C.ar    
  14 C14           -2.4878    -0.2039     5.8674 C.ar    
  15 C15           -1.9483    -1.3618     6.4599 C.ar    
  16 C16           -1.7561    -2.5018     5.6831 C.ar    
  17 C17           -2.0954    -2.4881     4.3601 C.ar    
  18 C18            0.3743     3.8788     2.4497 C.ar    
  19 C19            0.4950     4.6000     3.6224 C.ar    
  20 C20           -0.6381     4.9398     4.3474 C.ar    
  21 C21           -1.8969     4.5512     3.8886 C.ar    
  22 C22           -2.0084     3.8319     2.7084 C.ar    
  23 C23           -2.5646     0.7998     6.9239 C.2     
  24 N24           -2.1096     0.2605     8.0186 N.2     
  25 N25           -1.7219    -1.0616     7.7777 N.pl3   
  26 C26            0.6235    -0.0532    -0.4643 C.3     
  27 O27            2.3114    -0.2180     2.1839 O.3     
  28 C28            1.6439     0.5810    -1.3741 C.ar    
  29 C29            2.9802     0.2487    -1.2519 C.ar    
  30 C30            3.9162     0.8304    -2.0864 C.ar    
  31 C31            3.5159     1.7441    -3.0434 C.ar    
  32 C32            2.1795     2.0757    -3.1662 C.ar    
  33 C33            1.2430     1.4907    -2.3346 C.ar    
  34 C34           -1.4079    -3.0576     0.8703 C.3     
  35 O35            0.1304    -2.2256     3.0450 O.3     
  36 C36           -0.4058    -3.9326     0.1623 C.ar    
  37 C37            0.4993    -4.6785     0.8940 C.ar    
  38 C38            1.4185    -5.4811     0.2446 C.ar    
  39 C39            1.4324    -5.5381    -1.1365 C.ar    
  40 C40            0.5267    -4.7928    -1.8682 C.ar    
  41 C41           -0.3953    -3.9936    -1.2186 C.ar    
  42 N42           -3.0467     4.8912     4.6164 N.pl3   
  43 N43           -4.1249     5.3646     4.0996 N.2     
  44 C44           -4.9985     5.5698     5.0602 C.2     
  45 C45           -4.3659     5.1784     6.2425 C.2     
  46 N46           -3.1681     4.7666     5.8905 N.2     
  47 N47           -0.5188     5.6686     5.5334 N.pl3   
  48 H48            1.2642     1.5557     0.8099 H       
  49 H49            0.4340     0.1988     2.9248 H       
  50 H50            1.1706    -2.1784     1.2675 H       
  51 H51           -0.6417    -1.2789    -0.0614 H       
  52 H52           -3.8970    -0.7814     2.1555 H       
  53 H53           -3.1422    -2.3840     1.9821 H       
  54 H54           -0.2418     3.0456     0.0069 H       
  55 H55           -1.9891     2.8592     0.2902 H       
  56 H56           -3.2368     0.6700     4.0453 H       
  57 H57           -1.3427    -3.3955     6.1266 H       
  58 H58           -1.9449    -3.3745     3.7617 H       
  59 H59            1.2573     3.6151     1.8866 H       
  60 H60            1.4713     4.8988     3.9746 H       
  61 H61           -2.9813     3.5294     2.3502 H       
  62 H62           -2.9330     1.8094     6.8171 H       
  63 H63           -1.3523    -1.6688     8.4378 H       
  64 H64            0.9159    -1.0813    -0.2512 H       
  65 H65           -0.3516    -0.0462    -0.9513 H       
  66 H66            2.6116    -0.7845     2.9078 H       
  67 H67            3.2929    -0.4652    -0.5043 H       
  68 H68            4.9602     0.5713    -1.9905 H       
  69 H69            4.2473     2.1991    -3.6949 H       
  70 H70            1.8668     2.7898    -3.9136 H       
  71 H71            0.1989     1.7498    -2.4305 H       
  72 H72           -1.5733    -3.4372     1.8786 H       
  73 H73           -2.3490    -3.0647     0.3204 H       
  74 H74            0.9017    -2.2812     3.6257 H       
  75 H75            0.4884    -4.6340     1.9730 H       
  76 H76            2.1261    -6.0633     0.8162 H       
  77 H77            2.1510    -6.1646    -1.6439 H       
  78 H78            0.5378    -4.8371    -2.9472 H       
  79 H79           -1.1029    -3.4114    -1.7903 H       
  80 H80           -5.9998     5.9611     4.9567 H       
  81 H81           -4.7778     5.2046     7.2405 H       
  82 H82            0.3495     5.9952     5.8167 H       
  83 H83           -1.3043     5.8478     6.0736 H       
@<TRIPOS>BOND
   1    1    2 1
   2    1   10 1
   3    1    7 am
   4    2    3 1
   5    2   26 1
   6    2   48 1
   7    3    4 1
   8    3   27 1
   9    3   49 1
  10    4    5 1
  11    4   35 1
  12    4   50 1
  13    5    6 1
  14    5   34 1
  15    5   51 1
  16    6    7 am
  17    6    9 1
  18    7    8 2
  19    9   12 1
  20    9   52 1
  21    9   53 1
  22   10   11 1
  23   10   54 1
  24   10   55 1
  25   11   18 ar
  26   11   22 ar
  27   12   13 ar
  28   12   17 ar
  29   13   14 ar
  30   13   56 1
  31   14   15 ar
  32   14   23 1
  33   15   16 ar
  34   15   25 1
  35   16   17 ar
  36   16   57 1
  37   17   58 1
  38   18   19 ar
  39   18   59 1
  40   19   20 ar
  41   19   60 1
  42   20   21 ar
  43   20   47 1
  44   21   22 ar
  45   21   42 1
  46   22   61 1
  47   23   24 2
  48   23   62 1
  49   24   25 1
  50   25   63 1
  51   26   28 1
  52   26   64 1
  53   26   65 1
  54   27   66 1
  55   28   29 ar
  56   28   33 ar
  57   29   30 ar
  58   29   67 1
  59   30   31 ar
  60   30   68 1
  61   31   32 ar
  62   31   69 1
  63   32   33 ar
  64   32   70 1
  65   33   71 1
  66   34   36 1
  67   34   72 1
  68   34   73 1
  69   35   74 1
  70   36   37 ar
  71   36   41 ar
  72   37   38 ar
  73   37   75 1
  74   38   39 ar
  75   38   76 1
  76   39   40 ar
  77   39   77 1
  78   40   41 ar
  79   40   78 1
  80   41   79 1
  81   42   43 1
  82   42   46 1
  83   43   44 2
  84   44   45 1
  85   44   80 1
  86   45   46 2
  87   45   81 1
  88   47   82 1
  89   47   83 1

#	End of record

