#	Name: ASD03090197
#	Creating user name:	WinNT
#	Creation time:	15. 06. 2019 20:28

#	Modifying user name:	WinNT
#	Modification time:	15. 06. 2019 20:28

#	Program:	/corina/corina34_cracker 3.40 0067  02.08.2006

@<TRIPOS>MOLECULE
ASD03090197
  46   49    0    0    0
SMALL
NO_CHARGES


@<TRIPOS>ATOM
   1 N1             0.4495     1.5169     1.4690 N.ar    
   2 C2             0.4114     0.1977     1.4361 C.ar    
   3 C3             1.5395    -0.5363     1.1247 C.ar    
   4 C4             2.7312     0.1392     0.8424 C.ar    
   5 C5             2.7249     1.5376     0.8892 C.ar    
   6 C6             1.5530     2.1916     1.2092 C.ar    
   7 C7             3.9652    -0.6048     0.5041 C.2     
   8 N8             5.7446    -3.4533    -0.5318 N.pl3   
   9 C9             4.8181    -4.4430    -0.8762 C.ar    
  10 C10            3.6015    -4.0891    -1.4447 C.ar    
  11 C11            2.6881    -5.0682    -1.7839 C.ar    
  12 C12            2.9844    -6.4014    -1.5570 C.ar    
  13 C13            4.1971    -6.7567    -0.9902 C.ar    
  14 C14            5.1159    -5.7817    -0.6552 C.ar    
  15 N15            4.0297    -1.8607     0.1103 N.2     
  16 C16            5.3012    -2.1997    -0.1062 C.2     
  17 N17            6.0694    -1.1645     0.1463 N.2     
  18 N18            5.2241    -0.1141     0.5390 N.pl3   
  19 C19            5.6276     1.2416     0.9203 C.3     
  20 C20            5.7336     2.1135    -0.3325 C.3     
  21 C21            6.1487     3.5082     0.0598 C.2     
  22 F22            2.0892    -7.3573    -1.8888 F       
  23 Cl23          -1.0756    -0.6254     1.7896 Cl      
  24 N24            7.3671     3.9494     0.1563 N.2     
  25 O25            7.3662     5.1150     0.4922 O.3     
  26 C26            6.1089     5.5409     0.6465 C.2     
  27 N27            5.3260     4.5263     0.3685 N.2     
  28 C28            5.6738     6.9244     1.0561 C.3     
  29 C29            4.5168    -8.2088    -0.7446 C.3     
  30 F30            5.7876    -8.3157    -0.1693 F       
  31 F31            3.5649    -8.7556     0.1226 F       
  32 F32            4.4947    -8.9030    -1.9589 F       
  33 H33            1.5018    -1.6153     1.0998 H       
  34 H34            3.6244     2.0969     0.6781 H       
  35 H35            1.5388     3.2708     1.2477 H       
  36 H36            6.6952    -3.6379    -0.5888 H       
  37 H37            3.3696    -3.0492    -1.6211 H       
  38 H38            1.7418    -4.7934    -2.2260 H       
  39 H39            6.0616    -6.0592    -0.2136 H       
  40 H40            4.8847     1.6653     1.5961 H       
  41 H41            6.5953     1.2055     1.4208 H       
  42 H42            6.4765     1.6899    -1.0082 H       
  43 H43            4.7660     2.1497    -0.8329 H       
  44 H44            6.5525     7.5498     1.2138 H       
  45 H45            5.0553     7.3582     0.2704 H       
  46 H46            5.0990     6.8658     1.9803 H       
@<TRIPOS>BOND
   1    1    2 ar
   2    1    6 ar
   3    2    3 ar
   4    2   23 1
   5    3    4 ar
   6    3   33 1
   7    4    5 ar
   8    4    7 1
   9    5    6 ar
  10    5   34 1
  11    6   35 1
  12    7   15 2
  13    7   18 1
  14    8    9 1
  15    8   16 1
  16    8   36 1
  17    9   10 ar
  18    9   14 ar
  19   10   11 ar
  20   10   37 1
  21   11   12 ar
  22   11   38 1
  23   12   13 ar
  24   12   22 1
  25   13   14 ar
  26   13   29 1
  27   14   39 1
  28   15   16 1
  29   16   17 2
  30   17   18 1
  31   18   19 1
  32   19   20 1
  33   19   40 1
  34   19   41 1
  35   20   21 1
  36   20   42 1
  37   20   43 1
  38   21   24 2
  39   21   27 1
  40   24   25 1
  41   25   26 1
  42   26   27 2
  43   26   28 1
  44   28   44 1
  45   28   45 1
  46   28   46 1
  47   29   30 1
  48   29   31 1
  49   29   32 1

#	End of record

