#	Name: ASD01840445
#	Creating user name:	WinNT
#	Creation time:	15. 06. 2019 19:37

#	Modifying user name:	WinNT
#	Modification time:	15. 06. 2019 19:37

#	Program:	/corina/corina34_cracker 3.40 0067  02.08.2006

@<TRIPOS>MOLECULE
ASD01840445
  49   52    0    0    0
SMALL
NO_CHARGES


@<TRIPOS>ATOM
   1 C1             0.3772     2.1237    -0.1407 C.ar    
   2 C2             0.4061     0.7609    -0.3401 C.ar    
   3 N3             1.5201     0.0810    -0.1290 N.ar    
   4 N4             2.6053     0.6375     0.2619 N.ar    
   5 C5             1.5647     2.7575     0.2909 C.ar    
   6 C6             1.8293     4.1549     0.5790 C.2     
   7 C7             2.6936     1.9506     0.4864 C.ar    
   8 S8             4.0511     2.9330     1.0180 S.3     
   9 C9             3.1014     4.4056     0.9764 C.2     
  10 C10           -0.8817     2.9163    -0.3815 C.3     
  11 C11           -0.8363     0.0427    -0.8001 C.3     
  12 N12            0.8659     5.1472     0.4580 N.pl3   
  13 C13            3.6139     5.7305     1.3230 C.2     
  14 O14            2.8813     6.7011     1.2640 O.2     
  15 N15            4.8972     5.8772     1.7077 N.am    
  16 C16            5.4107     7.2046     2.0549 C.3     
  17 C17            6.6188     7.0979     3.0227 C.3     
  18 C18            7.4077     8.3925     2.7346 C.3     
  19 N19            7.0228     8.8485     1.3909 N.am    
  20 C20            6.0571     7.8892     0.8248 C.3     
  21 C21            7.4769     9.9599     0.7785 C.2     
  22 C22            8.3571    10.8970     1.5062 C.ar    
  23 C23            8.6910    12.1285     0.9386 C.ar    
  24 C24            9.5122    13.0002     1.6212 C.ar    
  25 C25           10.0072    12.6572     2.8696 C.ar    
  26 C26            9.6792    11.4345     3.4396 C.ar    
  27 C27            8.8531    10.5567     2.7663 C.ar    
  28 F28           10.1646    11.1055     4.6567 F       
  29 F29           10.8120    13.5153     3.5338 F       
  30 O30            7.1622    10.1912    -0.3727 O.2     
  31 H31           -1.3977     3.0752     0.5654 H       
  32 H32           -0.6257     3.8799    -0.8219 H       
  33 H33           -1.5322     2.3671    -1.0621 H       
  34 H34           -0.8598     0.0186    -1.8895 H       
  35 H35           -0.8306    -0.9767    -0.4142 H       
  36 H36           -1.7172     0.5666    -0.4291 H       
  37 H37           -0.0238     4.9235     0.1428 H       
  38 H38            1.0824     6.0641     0.6887 H       
  39 H39            5.4809     5.1038     1.7546 H       
  40 H40            4.6232     7.8268     2.4802 H       
  41 H41            6.2818     7.0741     4.0590 H       
  42 H42            7.2215     6.2195     2.7918 H       
  43 H43            7.1525     9.1539     3.4717 H       
  44 H44            8.4781     8.1888     2.7645 H       
  45 H45            6.5715     7.1526     0.2075 H       
  46 H46            5.3003     8.4128     0.2408 H       
  47 H47            8.3066    12.3974    -0.0341 H       
  48 H48            9.7707    13.9525     1.1821 H       
  49 H49            8.5943     9.6075     3.2116 H       
@<TRIPOS>BOND
   1    1    2 ar
   2    1    5 ar
   3    1   10 1
   4    2   11 1
   5    2    3 ar
   6    3    4 ar
   7    4    7 ar
   8    5    7 ar
   9    5    6 1
  10    6    9 2
  11    6   12 1
  12    7    8 1
  13    8    9 1
  14    9   13 1
  15   10   31 1
  16   10   32 1
  17   10   33 1
  18   11   34 1
  19   11   35 1
  20   11   36 1
  21   12   37 1
  22   12   38 1
  23   13   14 2
  24   13   15 am
  25   15   16 1
  26   15   39 1
  27   16   17 1
  28   16   20 1
  29   16   40 1
  30   17   18 1
  31   17   41 1
  32   17   42 1
  33   18   19 1
  34   18   43 1
  35   18   44 1
  36   19   20 1
  37   19   21 am
  38   20   45 1
  39   20   46 1
  40   21   22 1
  41   21   30 2
  42   22   23 ar
  43   22   27 ar
  44   23   24 ar
  45   23   47 1
  46   24   25 ar
  47   24   48 1
  48   25   26 ar
  49   25   29 1
  50   26   27 ar
  51   26   28 1
  52   27   49 1

#	End of record

