#	Name: ASD00122094
#	Creating user name:	WinNT
#	Creation time:	15. 06. 2019 18:31

#	Modifying user name:	WinNT
#	Modification time:	15. 06. 2019 18:31

#	Program:	/corina/corina34_cracker 3.40 0067  02.08.2006

@<TRIPOS>MOLECULE
ASD00122094
  41   44    0    0    0
SMALL
NO_CHARGES


@<TRIPOS>ATOM
   1 C1            -0.0170     1.4058     0.0098 C.ar    
   2 C2             0.0021    -0.0041     0.0020 C.ar    
   3 C3            -1.2059    -0.6806     0.0104 C.ar    
   4 N4            -2.3455     0.0413     0.0264 N.ar    
   5 C5            -2.3176     1.3519     0.0339 C.ar    
   6 N6            -1.1865     2.0324     0.0299 N.ar    
   7 S7             1.3483    -1.1278    -0.0180 S.3     
   8 C8             0.2931    -2.5337    -0.0152 C.ar    
   9 C9            -1.0411    -2.1407     0.0005 C.ar    
  10 N10            0.6074    -3.8337    -0.0257 N.ar    
  11 C11           -0.3074    -4.7751    -0.0218 C.ar    
  12 C12           -1.6564    -4.4601    -0.0063 C.ar    
  13 C13           -2.0401    -3.1360     0.0050 C.ar    
  14 S14            1.4885     2.3211     0.0003 S.3     
  15 C15            0.8312     4.0075     0.0156 C.3     
  16 C16            1.9725     4.9915     0.0100 C.ar    
  17 C17            2.4845     5.4493    -1.1896 C.ar    
  18 C18            3.5315     6.3520    -1.1948 C.ar    
  19 C19            4.0661     6.7972    -0.0003 C.ar    
  20 C20            3.5534     6.3401     1.1994 C.ar    
  21 C21            2.5037     5.4408     1.2046 C.ar    
  22 C22           -3.4992    -2.7594     0.0214 C.3     
  23 C23            0.1164    -6.2213    -0.0347 C.3     
  24 C24           -3.6214     2.1074     0.0513 C.3     
  25 H25           -2.3997    -5.2436    -0.0036 H       
  26 H26            0.2120     4.1641    -0.8676 H       
  27 H27            0.2290     4.1546     0.9122 H       
  28 H28            2.0668     5.1015    -2.1229 H       
  29 H29            3.9320     6.7091    -2.1320 H       
  30 H30            4.8845     7.5019    -0.0043 H       
  31 H31            3.9714     6.6877     2.1326 H       
  32 H32            2.1031     5.0837     2.1419 H       
  33 H33           -3.8409    -2.6745     1.0530 H       
  34 H34           -3.6335    -1.8039    -0.4856 H       
  35 H35           -4.0784    -3.5274    -0.4912 H       
  36 H36            0.2293    -6.5760     0.9897 H       
  37 H37           -0.6407    -6.8172    -0.5442 H       
  38 H38            1.0673    -6.3165    -0.5590 H       
  39 H39           -3.9256     2.2835     1.0831 H       
  40 H40           -3.4946     3.0627    -0.4581 H       
  41 H41           -4.3870     1.5226    -0.4585 H       
@<TRIPOS>BOND
   1    1    2 ar
   2    1   14 1
   3    1    6 ar
   4    2    3 ar
   5    2    7 1
   6    3    4 ar
   7    3    9 1
   8    4    5 ar
   9    5    6 ar
  10    5   24 1
  11    7    8 1
  12    8    9 ar
  13    8   10 ar
  14    9   13 ar
  15   10   11 ar
  16   11   12 ar
  17   11   23 1
  18   12   13 ar
  19   12   25 1
  20   13   22 1
  21   14   15 1
  22   15   16 1
  23   15   26 1
  24   15   27 1
  25   16   17 ar
  26   16   21 ar
  27   17   18 ar
  28   17   28 1
  29   18   19 ar
  30   18   29 1
  31   19   20 ar
  32   19   30 1
  33   20   21 ar
  34   20   31 1
  35   21   32 1
  36   22   33 1
  37   22   34 1
  38   22   35 1
  39   23   36 1
  40   23   37 1
  41   23   38 1
  42   24   39 1
  43   24   40 1
  44   24   41 1

#	End of record

