#	Name: ASD01918027
#	Creating user name:	WinNT
#	Creation time:	15. 06. 2019 20:10

#	Modifying user name:	WinNT
#	Modification time:	15. 06. 2019 20:10

#	Program:	/corina/corina34_cracker 3.40 0067  02.08.2006

@<TRIPOS>MOLECULE
ASD01918027
  38   41    0    0    0
SMALL
NO_CHARGES


@<TRIPOS>ATOM
   1 C1            -0.0156     1.3793    -0.0290 C.ar    
   2 C2             0.0036    -0.0068    -0.0378 C.ar    
   3 C3             1.2074    -0.6882    -0.0491 C.ar    
   4 C4             2.3984     0.0077    -0.0512 C.ar    
   5 C5             2.3883     1.4052    -0.0424 C.ar    
   6 C6             1.1694     2.0888    -0.0316 C.ar    
   7 C7             3.6214     2.1334    -0.0441 C.1     
   8 C8             4.6322     2.7304    -0.0455 C.1     
   9 C9             5.8653     3.4585    -0.0472 C.ar    
  10 C10            7.0921     2.7798    -0.0635 C.ar    
  11 C11            5.8633     4.8600    -0.0385 C.ar    
  12 N12            6.9911     5.5311    -0.0404 N.ar    
  13 C13            8.1703     4.9188    -0.0501 C.ar    
  14 C14            8.2545     3.5258    -0.0644 C.ar    
  15 C15            9.4107     5.7247    -0.0523 C.2     
  16 N16            9.3418     7.0674    -0.1471 N.am    
  17 O17           10.4921     5.1761     0.0314 O.2     
  18 C18            8.1353     7.9036    -0.3468 C.3     
  19 C19           10.4546     8.0422    -0.0689 C.3     
  20 C20            9.8818     9.2229     0.7445 C.3     
  21 C21            8.3578     9.1318     0.5619 C.3     
  22 C22            9.1299    10.3211    -0.0103 C.3     
  23 F23           -1.1955     2.0373    -0.0237 F       
  24 H24           -0.9256    -0.5573    -0.0355 H       
  25 H25            1.2148    -1.7681    -0.0559 H       
  26 H26            3.3370    -0.5265    -0.0593 H       
  27 H27            1.1541     3.1687    -0.0251 H       
  28 H28            7.1273     1.7004    -0.0747 H       
  29 H29            4.9240     5.3931    -0.0304 H       
  30 H30            9.2174     3.0369    -0.0764 H       
  31 H31            8.0547     8.2117    -1.3892 H       
  32 H32            7.2415     7.3606    -0.0397 H       
  33 H33           11.3084     7.6037     0.4476 H       
  34 H34           10.7417     8.3723    -1.0673 H       
  35 H35           10.3301     9.4320     1.7157 H       
  36 H36            7.6721     9.2732     1.3972 H       
  37 H37            9.0110    11.2827     0.4890 H       
  38 H38            9.2598    10.3668    -1.0915 H       
@<TRIPOS>BOND
   1    1    2 ar
   2    1    6 ar
   3    1   23 1
   4    2    3 ar
   5    2   24 1
   6    3    4 ar
   7    3   25 1
   8    4    5 ar
   9    4   26 1
  10    5    6 ar
  11    5    7 1
  12    6   27 1
  13    7    8 3
  14    8    9 1
  15    9   11 ar
  16    9   10 ar
  17   10   14 ar
  18   10   28 1
  19   11   12 ar
  20   11   29 1
  21   12   13 ar
  22   13   14 ar
  23   13   15 1
  24   14   30 1
  25   15   16 am
  26   15   17 2
  27   16   19 1
  28   16   18 1
  29   18   21 1
  30   18   31 1
  31   18   32 1
  32   19   20 1
  33   19   33 1
  34   19   34 1
  35   20   21 1
  36   20   22 1
  37   20   35 1
  38   21   22 1
  39   21   36 1
  40   22   37 1
  41   22   38 1

#	End of record

