#	Name: ASD03331092
#	Creating user name:	WinNT
#	Creation time:	15. 06. 2019 20:38

#	Modifying user name:	WinNT
#	Modification time:	15. 06. 2019 20:38

#	Program:	/corina/corina34_cracker 3.40 0067  02.08.2006

@<TRIPOS>MOLECULE
ASD03331092
  61   63    0    0    0
SMALL
NO_CHARGES


@<TRIPOS>ATOM
   1 N1             0.0557     1.1531    -0.7788 N.pl3   
   2 C2             0.0607    -0.1795    -0.5073 C.2     
   3 C3             1.2822    -1.0106    -0.2130 C.3     
   4 N4             2.1149    -0.3100     0.7770 N.3     
   5 C5             3.0665     0.5925     0.1261 C.3     
   6 C6             2.4695     1.1914    -1.1441 C.3     
   7 C7             1.2338     2.0248    -0.7933 C.3     
   8 C8            -1.2376     1.5163    -1.0188 C.2     
   9 N9            -2.0019     0.4578    -0.8837 N.2     
  10 C10           -1.2311    -0.6055    -0.5652 C.2     
  11 C11           -1.7041    -1.9800    -0.3237 C.2     
  12 O12           -0.9088    -2.8562    -0.0427 O.2     
  13 N13           -3.0180    -2.2662    -0.4143 N.am    
  14 C14           -1.7007     2.8756    -1.3713 C.ar    
  15 C15           -1.2412     3.9804    -0.6530 C.ar    
  16 C16           -1.6764     5.2466    -0.9860 C.ar    
  17 C17           -2.5696     5.4236    -2.0328 C.ar    
  18 C18           -3.0295     4.3317    -2.7495 C.ar    
  19 C19           -2.5958     3.0593    -2.4285 C.ar    
  20 F20           -2.9925     6.6659    -2.3538 F       
  21 C21           -4.7928    -3.8493    -0.8969 C.2     
  22 C22           -3.4883    -3.6327    -0.1742 C.3     
  23 C23           -3.6955    -3.8445     1.3268 C.3     
  24 C24           -4.1111    -5.2942     1.5847 C.3     
  25 O25           -5.4281    -2.8979    -1.2997 O.2     
  26 C26           -2.3905    -3.5484     2.0686 C.3     
  27 C27           -4.7920    -2.9026     1.8281 C.3     
  28 N28           -5.2536    -5.1001    -1.0956 N.am    
  29 C29           -6.5596    -5.3082    -1.7259 C.3     
  30 F30           -3.0402     1.9950    -3.1320 F       
  31 Cl31          -1.1057     6.6214    -0.0926 Cl      
  32 C32           -6.8412    -6.8083    -1.8326 C.3     
  33 O33           -6.9611    -7.3648    -0.5219 O.3     
  34 H34            0.9772    -1.9778     0.1864 H       
  35 H35            1.8525    -1.1575    -1.1302 H       
  36 H36            1.5432     0.1869     1.4436 H       
  37 H37            3.3249     1.3973     0.8143 H       
  38 H38            3.9690     0.0374    -0.1296 H       
  39 H39            3.2105     1.8280    -1.6276 H       
  40 H40            2.1840     0.3886    -1.8239 H       
  41 H41            1.0986     2.8079    -1.5393 H       
  42 H42            1.3656     2.4757     0.1903 H       
  43 H43           -3.6523    -1.5673    -0.6384 H       
  44 H44           -0.5462     3.8443     0.1624 H       
  45 H45           -3.7250     4.4750    -3.5633 H       
  46 H46           -2.7469    -4.3420    -0.5423 H       
  47 H47           -3.3200    -5.9643     1.2484 H       
  48 H48           -4.2810    -5.4391     2.6516 H       
  49 H49           -5.0286    -5.5119     1.0379 H       
  50 H50           -2.0943    -2.5156     1.8848 H       
  51 H51           -2.5381    -3.6993     3.1379 H       
  52 H52           -1.6093    -4.2194     1.7114 H       
  53 H53           -5.7217    -3.1135     1.2997 H       
  54 H54           -4.9397    -3.0535     2.8975 H       
  55 H55           -4.4959    -1.8698     1.6444 H       
  56 H56           -4.7205    -5.8627    -0.8213 H       
  57 H57           -7.3340    -4.8352    -1.1221 H       
  58 H58           -6.5562    -4.8674    -2.7228 H       
  59 H59           -7.7703    -6.9655    -2.3805 H       
  60 H60           -6.0213    -7.2953    -2.3605 H       
  61 H61           -7.1403    -8.3150    -0.5130 H       
@<TRIPOS>BOND
   1    1    2 1
   2    1    7 1
   3    1    8 1
   4    2    3 1
   5    2   10 2
   6    3    4 1
   7    3   34 1
   8    3   35 1
   9    4    5 1
  10    4   36 1
  11    5    6 1
  12    5   37 1
  13    5   38 1
  14    6    7 1
  15    6   39 1
  16    6   40 1
  17    7   41 1
  18    7   42 1
  19    8    9 2
  20    8   14 1
  21    9   10 1
  22   10   11 1
  23   11   12 2
  24   11   13 am
  25   13   22 1
  26   13   43 1
  27   14   15 ar
  28   14   19 ar
  29   15   16 ar
  30   15   44 1
  31   16   17 ar
  32   16   31 1
  33   17   18 ar
  34   17   20 1
  35   18   19 ar
  36   18   45 1
  37   19   30 1
  38   21   25 2
  39   21   28 am
  40   21   22 1
  41   22   23 1
  42   22   46 1
  43   23   24 1
  44   23   26 1
  45   23   27 1
  46   24   47 1
  47   24   48 1
  48   24   49 1
  49   26   50 1
  50   26   51 1
  51   26   52 1
  52   27   53 1
  53   27   54 1
  54   27   55 1
  55   28   29 1
  56   28   56 1
  57   29   32 1
  58   29   57 1
  59   29   58 1
  60   32   33 1
  61   32   59 1
  62   32   60 1
  63   33   61 1

#	End of record

