#	Name: ASD08150326
#	Creating user name:	WinNT
#	Creation time:	15. 06. 2019 21:15

#	Modifying user name:	WinNT
#	Modification time:	15. 06. 2019 21:15

#	Program:	/corina/corina34_cracker 3.40 0067  02.08.2006

@<TRIPOS>MOLECULE
ASD08150326
  74   80    0    0    0
SMALL
NO_CHARGES


@<TRIPOS>ATOM
   1 N1             0.0261     1.4438    -0.6091 N.am    
   2 C2             0.0297     0.1339    -0.9236 C.2     
   3 C3             1.2238    -0.6144    -0.8929 C.2     
   4 C4             2.3935    -0.0204    -0.5441 C.2     
   5 C5             2.3934     1.3576    -0.2131 C.ar    
   6 C6             3.5788     2.0224     0.1550 C.ar    
   7 N7             3.5758     3.2938     0.4599 N.ar    
   8 C8             2.4568     4.0338     0.4405 C.ar    
   9 C9             1.2180     3.4478     0.0814 C.ar    
  10 C10            1.1870     2.0736    -0.2533 C.ar    
  11 C11            0.0575     4.2277     0.0647 C.ar    
  12 C12            0.1325     5.5695     0.4007 C.ar    
  13 C13            1.3618     6.1424     0.7550 C.ar    
  14 C14            2.4992     5.3970     0.7759 C.ar    
  15 O15           -1.0142    -0.4118    -1.2387 O.2     
  16 C16           -1.0939     6.4041     0.3851 C.ar    
  17 C17           -1.1732     2.1669    -0.6524 C.ar    
  18 C18           -1.4867     2.9255    -1.7731 C.ar    
  19 C19           -2.6682     3.6374    -1.8161 C.ar    
  20 C20           -3.5441     3.5955    -0.7384 C.ar    
  21 C21           -3.2304     2.8369     0.3821 C.ar    
  22 C22           -2.0510     2.1207     0.4227 C.ar    
  23 N23           -4.7407     4.3170    -0.7816 N.3     
  24 C24           -2.3412     5.8076     0.1642 C.ar    
  25 C25           -5.8579     3.4592    -1.1990 C.3     
  26 C26           -7.1724     4.2343    -1.0597 C.3     
  27 N27           -7.0494     5.4994    -1.7998 N.am    
  28 C28           -5.8795     6.3502    -1.5341 C.3     
  29 C29           -4.6159     5.4918    -1.6546 C.3     
  30 C30           -7.9838     5.8690    -2.6980 C.2     
  31 O31           -8.9421     5.1549    -2.9049 O.2     
  32 C32           -7.8380     7.1696    -3.4452 C.3     
  33 C33           -9.0240     7.3477    -4.3952 C.3     
  34 C34           -3.4789     6.5591     0.1469 C.ar    
  35 C35           -3.4116     7.9362     0.3496 C.ar    
  36 C36           -2.1628     8.5491     0.5731 C.ar    
  37 C37           -1.0019     7.7714     0.5951 C.ar    
  38 N38           -4.3518     8.9328     0.3890 N.pl3   
  39 N39           -3.7149    10.1538     0.6324 N.2     
  40 C40           -2.4302     9.9738     0.7469 C.2     
  41 C41           -1.4034    11.0445     1.0118 C.3     
  42 C42           -4.1803     2.7913     1.5512 C.3     
  43 F43           -3.5879     2.0890     2.6063 F       
  44 F44           -4.4732     4.0952     1.9652 F       
  45 F45           -5.3615     2.1474     1.1675 F       
  46 H46            1.2080    -1.6639    -1.1475 H       
  47 H47            3.3108    -0.5898    -0.5188 H       
  48 H48            4.5074     1.4719     0.1864 H       
  49 H49           -0.8900     3.7873    -0.2084 H       
  50 H50            1.4063     7.1897     1.0148 H       
  51 H51            3.4378     5.8547     1.0513 H       
  52 H52           -0.8057     2.9584    -2.6107 H       
  53 H53           -2.9117     4.2274    -2.6873 H       
  54 H54           -1.8092     1.5273     1.2921 H       
  55 H55           -2.4028     4.7411     0.0054 H       
  56 H56           -5.7194     3.1617    -2.2384 H       
  57 H57           -5.8904     2.5714    -0.5674 H       
  58 H58           -7.9904     3.6454    -1.4746 H       
  59 H59           -7.3647     4.4430    -0.0073 H       
  60 H60           -5.8428     7.1602    -2.2625 H       
  61 H61           -5.9476     6.7623    -0.5272 H       
  62 H62           -3.7478     6.0781    -1.3535 H       
  63 H63           -4.4947     5.1660    -2.6877 H       
  64 H64           -7.8141     7.9960    -2.7349 H       
  65 H65           -6.9115     7.1569    -4.0192 H       
  66 H66           -9.0479     6.5213    -5.1055 H       
  67 H67           -9.9506     7.3604    -3.8212 H       
  68 H68           -8.9186     8.2884    -4.9356 H       
  69 H69           -4.4344     6.0859    -0.0247 H       
  70 H70           -0.0404     8.2327     0.7660 H       
  71 H71           -5.3064     8.8108     0.2671 H       
  72 H72           -1.2665    11.1586     2.0871 H       
  73 H73           -0.4562    10.7610     0.5530 H       
  74 H74           -1.7448    11.9885     0.5868 H       
@<TRIPOS>BOND
   1    1    2 am
   2    1   10 1
   3    1   17 1
   4    2    3 1
   5    2   15 2
   6    3    4 2
   7    3   46 1
   8    4    5 1
   9    4   47 1
  10    5    6 ar
  11    5   10 ar
  12    6    7 ar
  13    6   48 1
  14    7    8 ar
  15    8    9 ar
  16    8   14 ar
  17    9   10 ar
  18    9   11 ar
  19   11   12 ar
  20   11   49 1
  21   12   13 ar
  22   12   16 1
  23   13   14 ar
  24   13   50 1
  25   14   51 1
  26   16   24 ar
  27   16   37 ar
  28   17   18 ar
  29   17   22 ar
  30   18   19 ar
  31   18   52 1
  32   19   20 ar
  33   19   53 1
  34   20   21 ar
  35   20   23 1
  36   21   22 ar
  37   21   42 1
  38   22   54 1
  39   23   25 1
  40   23   29 1
  41   24   34 ar
  42   24   55 1
  43   25   26 1
  44   25   56 1
  45   25   57 1
  46   26   27 1
  47   26   58 1
  48   26   59 1
  49   27   28 1
  50   27   30 am
  51   28   29 1
  52   28   60 1
  53   28   61 1
  54   29   62 1
  55   29   63 1
  56   30   31 2
  57   30   32 1
  58   32   33 1
  59   32   64 1
  60   32   65 1
  61   33   66 1
  62   33   67 1
  63   33   68 1
  64   34   35 ar
  65   34   69 1
  66   35   36 ar
  67   35   38 1
  68   36   37 ar
  69   36   40 1
  70   37   70 1
  71   38   39 1
  72   38   71 1
  73   39   40 2
  74   40   41 1
  75   41   72 1
  76   41   73 1
  77   41   74 1
  78   42   43 1
  79   42   44 1
  80   42   45 1

#	End of record

