#	Name: ASD01880476
#	Creating user name:	WinNT
#	Creation time:	15. 06. 2019 19:40

#	Modifying user name:	WinNT
#	Modification time:	15. 06. 2019 19:40

#	Program:	/corina/corina34_cracker 3.40 0067  02.08.2006

@<TRIPOS>MOLECULE
ASD01880476
  51   53    0    0    0
SMALL
NO_CHARGES


@<TRIPOS>ATOM
   1 N1            -0.0158     1.3135     0.0093 N.ar    
   2 C2             0.0021    -0.0041     0.0020 C.ar    
   3 N3             1.1312    -0.6835    -0.0120 N.ar    
   4 C4             2.3010    -0.0614    -0.0198 C.ar    
   5 C5             2.3294     1.3206    -0.0131 C.ar    
   6 C6             1.1167     2.0074     0.0022 C.ar    
   7 C7             3.6391     2.0661    -0.0211 C.3     
   8 O8             4.7194     1.1309    -0.0355 O.3     
   9 C9             5.9766     1.6419    -0.0442 C.ar    
  10 C10            7.0744     0.7870    -0.0584 C.ar    
  11 C11            8.3456     1.3052    -0.0676 C.ar    
  12 C12            8.5455     2.6897    -0.0629 C.ar    
  13 C13            7.4395     3.5439    -0.0491 C.ar    
  14 C14            6.1664     3.0187    -0.0448 C.ar    
  15 C15            9.7169     0.6771    -0.0833 C.3     
  16 N16           10.6761     1.7875    -0.0868 N.am    
  17 C17            9.9961     2.9467    -0.0751 C.2     
  18 O18           10.5056     4.0506    -0.0749 O.2     
  19 C19           -0.0164     5.5091     0.0309 C.3     
  20 C20           -1.3913     6.1801     0.0476 C.3     
  21 C21           -1.2169     7.7001     0.0536 C.3     
  22 C22           14.1536     1.4756    -1.5619 C.3     
  23 C23           12.6300     1.6145    -1.5477 C.3     
  24 C24           12.1350     1.6544    -0.1005 C.3     
  25 O25            1.0934     3.3624     0.0092 O.3     
  26 C26           -0.1907     3.9891     0.0249 C.3     
  27 H27           -0.9344    -0.5420     0.0081 H       
  28 H28            3.2210    -0.6271    -0.0309 H       
  29 H29            3.6927     2.6969    -0.9084 H       
  30 H30            3.7086     2.6879     0.8714 H       
  31 H31            6.9266    -0.2828    -0.0617 H       
  32 H32            7.5829     4.6144    -0.0450 H       
  33 H33            5.3121     3.6793    -0.0345 H       
  34 H34            9.8579     0.0630     0.8062 H       
  35 H35            9.8414     0.0715    -0.9809 H       
  36 H36            0.5269     5.8160    -0.8629 H       
  37 H37            0.5442     5.8070     0.9170 H       
  38 H38           -1.9518     5.8822    -0.8384 H       
  39 H39           -1.9345     5.8732     0.9414 H       
  40 H40           -2.1964     8.1782     0.0656 H       
  41 H41           -0.6564     7.9980     0.9397 H       
  42 H42           -0.6737     8.0070    -0.8401 H       
  43 H43           14.6008     2.3265    -1.0482 H       
  44 H44           14.4391     0.5540    -1.0547 H       
  45 H45           14.5062     1.4472    -2.5929 H       
  46 H46           12.3444     2.5361    -2.0548 H       
  47 H47           12.1827     0.7636    -2.0613 H       
  48 H48           12.5823     2.5054     0.4132 H       
  49 H49           12.4205     0.7328     0.4067 H       
  50 H50           -0.7339     3.6821     0.9187 H       
  51 H51           -0.7513     3.6911    -0.8612 H       
@<TRIPOS>BOND
   1    1    2 ar
   2    1    6 ar
   3    2    3 ar
   4    2   27 1
   5    3    4 ar
   6    4    5 ar
   7    4   28 1
   8    5    6 ar
   9    5    7 1
  10    6   25 1
  11    7    8 1
  12    7   29 1
  13    7   30 1
  14    8    9 1
  15    9   10 ar
  16    9   14 ar
  17   10   11 ar
  18   10   31 1
  19   11   12 ar
  20   11   15 1
  21   12   13 ar
  22   12   17 1
  23   13   14 ar
  24   13   32 1
  25   14   33 1
  26   15   16 1
  27   15   34 1
  28   15   35 1
  29   16   17 am
  30   16   24 1
  31   17   18 2
  32   19   20 1
  33   19   26 1
  34   19   36 1
  35   19   37 1
  36   20   21 1
  37   20   38 1
  38   20   39 1
  39   21   40 1
  40   21   41 1
  41   21   42 1
  42   22   23 1
  43   22   43 1
  44   22   44 1
  45   22   45 1
  46   23   24 1
  47   23   46 1
  48   23   47 1
  49   24   48 1
  50   24   49 1
  51   25   26 1
  52   26   50 1
  53   26   51 1

#	End of record

