#	Name: ASD01208555
#	Creating user name:	WinNT
#	Creation time:	15. 06. 2019 19:10

#	Modifying user name:	WinNT
#	Modification time:	15. 06. 2019 19:10

#	Program:	/corina/corina34_cracker 3.40 0067  02.08.2006

@<TRIPOS>MOLECULE
ASD01208555
  64   67    0    0    0
SMALL
NO_CHARGES


@<TRIPOS>ATOM
   1 O1             0.8154     1.6469     1.4409 O.3     
   2 C2             0.8575     0.3076     1.6090 C.2     
   3 N3             2.0643    -0.1702     1.7010 N.2     
   4 C4             3.0181     0.9517     1.6026 C.3     
   5 C5             2.0998     2.1776     1.8270 C.3     
   6 C6             4.0678     0.8615     2.6802 C.2     
   7 O7             3.8740     0.1765     3.6565 O.2     
   8 O8             5.2180     1.5421     2.5554 O.3     
   9 N9            -1.6458    -0.0900     1.5905 N.pl3   
  10 C10           -0.3470    -0.5318     1.6811 C.2     
  11 C11           -0.3719    -1.8990     1.8513 C.2     
  12 C12           -1.7101    -2.2953     1.8644 C.2     
  13 C13           -2.4805    -1.1661     1.7023 C.2     
  14 C14           -3.9574    -1.1247     1.6569 C.ar    
  15 C15           -4.6947    -2.3028     1.7841 C.ar    
  16 C16           -6.0781    -2.2596     1.7410 C.ar    
  17 C17           -6.7315    -1.0473     1.5712 C.ar    
  18 C18           -6.0025     0.1264     1.4444 C.ar    
  19 C19           -4.6183     0.0929     1.4926 C.ar    
  20 O20           -6.6472     1.3110     1.2778 O.3     
  21 C21           -7.3109     3.0648    -0.1950 C.ar    
  22 C22           -6.6866     1.8458     0.0291 C.ar    
  23 C23           -6.1014     1.1794    -1.0427 C.ar    
  24 C24           -6.1669     1.7647    -2.2971 C.ar    
  25 C25           -6.8063     2.9815    -2.4414 C.ar    
  26 N26           -7.3511     3.5874    -1.4044 N.ar    
  27 S27           -6.8941     3.7338    -4.0323 S.o2    
  28 O28           -7.0124     5.1229    -3.7570 O.2     
  29 O29           -5.7667     3.2180    -4.7266 O.2     
  30 C30           -8.4319     3.0941    -4.7512 C.3     
  31 O31           -6.7969    -3.4064     1.8648 O.3     
  32 C32           -8.2197    -3.2793     1.9028 C.3     
  33 C33           -8.8208    -4.4885     2.6221 C.3     
  34 C34           -8.7642    -3.2131     0.4744 C.3     
  35 O35           -8.5670    -5.6705     1.8603 O.3     
  36 C36           -9.0897    -6.8639     2.4475 C.3     
  37 C37            6.1833     1.4082     3.6317 C.3     
  38 H38            3.4782     0.9858     0.6151 H       
  39 H39            2.3901     3.0071     1.1824 H       
  40 H40            2.0994     2.4796     2.8743 H       
  41 H41           -1.9233     0.8318     1.4714 H       
  42 H42            0.4869    -2.5456     1.9552 H       
  43 H43           -2.0752    -3.3051     1.9804 H       
  44 H44           -4.1869    -3.2469     1.9156 H       
  45 H45           -7.8106    -1.0173     1.5373 H       
  46 H46           -4.0516     1.0075     1.3986 H       
  47 H47           -7.7723     3.5884     0.6291 H       
  48 H48           -5.6078     0.2294    -0.9006 H       
  49 H49           -5.7232     1.2759    -3.1518 H       
  50 H50           -9.2738     3.3780    -4.1197 H       
  51 H51           -8.5683     3.5125    -5.7484 H       
  52 H52           -8.3775     2.0075    -4.8173 H       
  53 H53           -8.4890    -2.3680     2.4368 H       
  54 H54           -8.3668    -4.5873     3.6081 H       
  55 H55           -9.8965    -4.3495     2.7297 H       
  56 H56           -8.4949    -4.1243    -0.0596 H       
  57 H57           -9.8495    -3.1161     0.5034 H       
  58 H58           -8.3360    -2.3516    -0.0381 H       
  59 H59           -8.8555    -7.7157     1.8090 H       
  60 H60           -8.6413    -7.0119     3.4299 H       
  61 H61          -10.1710    -6.7742     2.5514 H       
  62 H62            7.0651     2.0078     3.4056 H       
  63 H63            5.7379     1.7543     4.5644 H       
  64 H64            6.4716     0.3619     3.7331 H       
@<TRIPOS>BOND
   1    1    2 1
   2    1    5 1
   3    2    3 2
   4    2   10 1
   5    3    4 1
   6    4    5 1
   7    4    6 1
   8    4   38 1
   9    5   39 1
  10    5   40 1
  11    6    7 2
  12    6    8 1
  13    8   37 1
  14    9   10 1
  15    9   13 1
  16    9   41 1
  17   10   11 2
  18   11   12 1
  19   11   42 1
  20   12   13 2
  21   12   43 1
  22   13   14 1
  23   14   15 ar
  24   14   19 ar
  25   15   16 ar
  26   15   44 1
  27   16   17 ar
  28   16   31 1
  29   17   18 ar
  30   17   45 1
  31   18   19 ar
  32   18   20 1
  33   19   46 1
  34   20   22 1
  35   21   22 ar
  36   21   26 ar
  37   21   47 1
  38   22   23 ar
  39   23   24 ar
  40   23   48 1
  41   24   25 ar
  42   24   49 1
  43   25   26 ar
  44   25   27 1
  45   27   28 2
  46   27   29 2
  47   27   30 1
  48   30   50 1
  49   30   51 1
  50   30   52 1
  51   31   32 1
  52   32   33 1
  53   32   34 1
  54   32   53 1
  55   33   35 1
  56   33   54 1
  57   33   55 1
  58   34   56 1
  59   34   57 1
  60   34   58 1
  61   35   36 1
  62   36   59 1
  63   36   60 1
  64   36   61 1
  65   37   62 1
  66   37   63 1
  67   37   64 1

#	End of record

