#	Name: ASD01882608
#	Creating user name:	WinNT
#	Creation time:	15. 06. 2019 19:44

#	Modifying user name:	WinNT
#	Modification time:	15. 06. 2019 19:44

#	Program:	/corina/corina34_cracker 3.40 0067  02.08.2006

@<TRIPOS>MOLECULE
ASD01882608
  30   32    0    0    0
SMALL
NO_CHARGES


@<TRIPOS>ATOM
   1 C1            -0.0183     1.4985     0.0103 C.3     
   2 C2             0.0021    -0.0041     0.0020 C.2     
   3 C3            -0.9912    -0.8930    -0.1931 C.2     
   4 C4            -0.6102    -2.3126    -0.2727 C.2     
   5 C5             0.5960    -2.7554     0.0594 C.2     
   6 C6             1.6971    -1.8840     0.5997 C.3     
   7 C7             1.3897    -0.4371     0.2713 C.2     
   8 C8             2.2232     0.5706     0.1855 C.2     
   9 C9             3.7385     0.5833     0.2291 C.3     
  10 C10            4.1834     1.2933    -1.0625 C.3     
  11 C11            3.4736     2.6338    -1.2203 C.3     
  12 C12            1.9509     2.4687    -1.3196 C.3     
  13 C13            1.4616     1.8764    -0.0018 C.3     
  14 O14           -1.5350    -3.2098    -0.7050 O.3     
  15 H15           -0.5190     1.8803    -0.8794 H       
  16 H16           -0.5019     1.8707     0.9134 H       
  17 H17           -2.0202    -0.5785    -0.2865 H       
  18 H18            0.8001    -3.8085    -0.0660 H       
  19 H19            1.7616    -2.0067     1.6809 H       
  20 H20            2.6447    -2.1683     0.1422 H       
  21 H21            4.0856     1.1365     1.1018 H       
  22 H22            4.1233    -0.4363     0.2501 H       
  23 H23            5.2600     1.4601    -1.0268 H       
  24 H24            3.9481     0.6605    -1.9182 H       
  25 H25            3.7069     3.2620    -0.3606 H       
  26 H26            3.8369     3.1232    -2.1240 H       
  27 H27            1.4840     3.4398    -1.4842 H       
  28 H28            1.7051     1.7957    -2.1410 H       
  29 H29            1.6784     2.5549     0.8233 H       
  30 H30           -1.2154    -4.1221    -0.7317 H       
@<TRIPOS>BOND
   1    1    2 1
   2    1   13 1
   3    1   15 1
   4    1   16 1
   5    2    3 2
   6    2    7 1
   7    3    4 1
   8    3   17 1
   9    4    5 2
  10    4   14 1
  11    5    6 1
  12    5   18 1
  13    6    7 1
  14    6   19 1
  15    6   20 1
  16    7    8 2
  17    8    9 1
  18    8   13 1
  19    9   10 1
  20    9   21 1
  21    9   22 1
  22   10   11 1
  23   10   23 1
  24   10   24 1
  25   11   12 1
  26   11   25 1
  27   11   26 1
  28   12   13 1
  29   12   27 1
  30   12   28 1
  31   13   29 1
  32   14   30 1

#	End of record

