#	Name: ASD08070142
#	Creating user name:	WinNT
#	Creation time:	15. 06. 2019 21:14

#	Modifying user name:	WinNT
#	Modification time:	15. 06. 2019 21:14

#	Program:	/corina/corina34_cracker 3.40 0067  02.08.2006

@<TRIPOS>MOLECULE
ASD08070142
  50   51    0    0    0
SMALL
NO_CHARGES


@<TRIPOS>ATOM
   1 C1            -0.0162     1.3456     0.0094 C.2     
   2 C2             0.0021    -0.0041     0.0020 C.2     
   3 C3            -1.2544    -0.7525     0.0100 C.2     
   4 O4            -2.3167    -0.1583     0.0233 O.2     
   5 N5            -1.2362    -2.1001     0.0026 N.am    
   6 C6            -2.4948    -2.8498     0.0106 C.3     
   7 C7            -2.2698    -4.2307    -0.6087 C.3     
   8 C8            -1.9016    -4.0736    -2.0854 C.3     
   9 C9            -1.6801    -5.4337    -2.6953 C.ar    
  10 C10           -2.9836    -3.0105     1.4515 C.3     
  11 C11            1.2467     2.0979     0.0014 C.ar    
  12 C12            2.4688     1.4169    -0.0139 C.ar    
  13 C13           -2.7373    -6.1141    -3.2700 C.ar    
  14 C14           -2.5341    -7.3617    -3.8294 C.ar    
  15 C15           -1.2735    -7.9288    -3.8145 C.ar    
  16 C16           -0.2161    -7.2481    -3.2407 C.ar    
  17 C17           -0.4184    -5.9986    -2.6851 C.ar    
  18 C18            3.6511     2.1245    -0.0219 C.ar    
  19 C19            3.6336     3.5125    -0.0143 C.ar    
  20 C20            2.4194     4.1987     0.0010 C.ar    
  21 C21            1.2300     3.4978     0.0032 C.ar    
  22 O22            4.8024     4.2045    -0.0213 O.3     
  23 C23            6.0092     3.4395    -0.0365 C.3     
  24 O24            2.4070     5.5585     0.0089 O.3     
  25 C25            1.1280     6.1956     0.0245 C.3     
  26 H26           -0.9588     1.8728     0.0168 H       
  27 H27            0.9446    -0.5313    -0.0098 H       
  28 H28           -0.3897    -2.5736    -0.0080 H       
  29 H29           -3.2433    -2.3094    -0.5689 H       
  30 H30           -1.4593    -4.7365    -0.0839 H       
  31 H31           -3.1824    -4.8206    -0.5225 H       
  32 H32           -2.7122    -3.5678    -2.6101 H       
  33 H33           -0.9891    -3.4837    -2.1715 H       
  34 H34           -3.1438    -2.0267     1.8926 H       
  35 H35           -3.9200    -3.5683     1.4574 H       
  36 H36           -2.2350    -3.5510     2.0309 H       
  37 H37            2.4855     0.3370    -0.0191 H       
  38 H38           -3.7222    -5.6710    -3.2816 H       
  39 H39           -3.3602    -7.8936    -4.2777 H       
  40 H40           -1.1148    -8.9039    -4.2510 H       
  41 H41            0.7687    -7.6913    -3.2288 H       
  42 H42            0.4077    -5.4667    -2.2367 H       
  43 H43            4.5939     1.5978    -0.0337 H       
  44 H44            0.2891     4.0279     0.0151 H       
  45 H45            6.0491     2.8062     0.8498 H       
  46 H46            6.0328     2.8157    -0.9300 H       
  47 H47            6.8663     4.1129    -0.0407 H       
  48 H48            1.2610     7.2775     0.0294 H       
  49 H49            0.5654     5.9028    -0.8620 H       
  50 H50            0.5821     5.8926     0.9179 H       
@<TRIPOS>BOND
   1    1    2 2
   2    1   11 1
   3    1   26 1
   4    2    3 1
   5    2   27 1
   6    3    4 2
   7    3    5 am
   8    5    6 1
   9    5   28 1
  10    6    7 1
  11    6   10 1
  12    6   29 1
  13    7    8 1
  14    7   30 1
  15    7   31 1
  16    8    9 1
  17    8   32 1
  18    8   33 1
  19    9   13 ar
  20    9   17 ar
  21   10   34 1
  22   10   35 1
  23   10   36 1
  24   11   12 ar
  25   11   21 ar
  26   12   18 ar
  27   12   37 1
  28   13   14 ar
  29   13   38 1
  30   14   15 ar
  31   14   39 1
  32   15   16 ar
  33   15   40 1
  34   16   17 ar
  35   16   41 1
  36   17   42 1
  37   18   19 ar
  38   18   43 1
  39   19   20 ar
  40   19   22 1
  41   20   21 ar
  42   20   24 1
  43   21   44 1
  44   22   23 1
  45   23   45 1
  46   23   46 1
  47   23   47 1
  48   24   25 1
  49   25   48 1
  50   25   49 1
  51   25   50 1

#	End of record

