#	Name: ASD02030148
#	Creating user name:	WinNT
#	Creation time:	15. 06. 2019 20:14

#	Modifying user name:	WinNT
#	Modification time:	15. 06. 2019 20:14

#	Program:	/corina/corina34_cracker 3.40 0067  02.08.2006

@<TRIPOS>MOLECULE
ASD02030148
  52   55    0    0    0
SMALL
NO_CHARGES


@<TRIPOS>ATOM
   1 N1            -0.3616     1.4604    -0.3781 N.am    
   2 C2            -0.3779    -0.0086    -0.3371 C.3     
   3 C3            -1.1636    -0.4555     0.9019 C.3     
   4 N4            -2.4423     0.2681     0.9334 N.am    
   5 C5            -2.4260     1.7371     0.8923 C.3     
   6 C6            -1.6401     2.1842    -0.3410 C.3     
   7 C7             0.8052     2.1319    -0.4430 C.2     
   8 C8             2.0859     1.3989    -0.3534 C.2     
   9 N9             3.2837     1.9391    -0.2879 N.2     
  10 N10            2.2315     0.0615    -0.3188 N.2     
  11 C11            3.5137    -0.1881    -0.2378 C.2     
  12 N12            4.1591     0.9962    -0.2194 N.pl3   
  13 O13            0.8045     3.3403    -0.5751 O.2     
  14 C14           -3.6091    -0.4033     0.9982 C.2     
  15 C15           -3.6158    -1.8808     0.9436 C.ar    
  16 O16           -4.6559     0.2057     1.1016 O.2     
  17 C17           -1.3776     3.6896    -0.2647 C.3     
  18 C18           -2.4407     1.8625    -1.6045 C.3     
  19 C19            5.5473     1.1713    -0.1397 C.ar    
  20 C20            6.0873     2.4500    -0.1291 C.ar    
  21 C21            7.4571     2.6195    -0.0499 C.ar    
  22 C22            8.2889     1.5157     0.0183 C.ar    
  23 C23            7.7528     0.2411     0.0079 C.ar    
  24 C24            6.3848     0.0660    -0.0653 C.ar    
  25 C25           -2.7227    -2.6152     1.7260 C.ar    
  26 Cl26           8.1341     4.2180    -0.0366 Cl      
  27 C27           -4.5186    -2.5472     0.1142 C.ar    
  28 C28           -4.5194    -3.9272     0.0679 C.ar    
  29 C29           -3.6272    -4.6488     0.8421 C.ar    
  30 C30           -2.7337    -3.9934     1.6707 C.ar    
  31 Br31          -5.7421    -4.8330    -1.0547 Br      
  32 H32           -0.8605    -0.3943    -1.2351 H       
  33 H33            0.6436    -0.3842    -0.2776 H       
  34 H34           -1.3514    -1.5279     0.8489 H       
  35 H35           -0.5911    -0.2259     1.8006 H       
  36 H36           -3.4475     2.1128     0.8329 H       
  37 H37           -1.9434     2.1228     1.7903 H       
  38 H38            3.9716    -1.1651    -0.1911 H       
  39 H39           -0.7133     3.9006     0.5733 H       
  40 H40           -0.9112     4.0245    -1.1913 H       
  41 H41           -2.3212     4.2162    -0.1219 H       
  42 H42           -3.3952     2.3877    -1.5734 H       
  43 H43           -1.8785     2.1820    -2.4820 H       
  44 H44           -2.6185     0.7884    -1.6583 H       
  45 H45            5.4382     3.3115    -0.1831 H       
  46 H46            9.3588     1.6500     0.0794 H       
  47 H47            8.4044    -0.6186     0.0609 H       
  48 H48            5.9672    -0.9299    -0.0730 H       
  49 H49           -2.0244    -2.1052     2.3730 H       
  50 H50           -5.2153    -1.9849    -0.4899 H       
  51 H51           -3.6319    -5.7280     0.8029 H       
  52 H52           -2.0401    -4.5622     2.2722 H       
@<TRIPOS>BOND
   1    1    2 1
   2    1    7 am
   3    1    6 1
   4    2    3 1
   5    2   32 1
   6    2   33 1
   7    3    4 1
   8    3   34 1
   9    3   35 1
  10    4    5 1
  11    4   14 am
  12    5    6 1
  13    5   36 1
  14    5   37 1
  15    6   17 1
  16    6   18 1
  17    7    8 1
  18    7   13 2
  19    8    9 2
  20    8   10 1
  21    9   12 1
  22   10   11 2
  23   11   12 1
  24   11   38 1
  25   12   19 1
  26   14   15 1
  27   14   16 2
  28   15   27 ar
  29   15   25 ar
  30   17   39 1
  31   17   40 1
  32   17   41 1
  33   18   42 1
  34   18   43 1
  35   18   44 1
  36   19   20 ar
  37   19   24 ar
  38   20   21 ar
  39   20   45 1
  40   21   22 ar
  41   21   26 1
  42   22   23 ar
  43   22   46 1
  44   23   24 ar
  45   23   47 1
  46   24   48 1
  47   25   30 ar
  48   25   49 1
  49   27   28 ar
  50   27   50 1
  51   28   29 ar
  52   28   31 1
  53   29   30 ar
  54   29   51 1
  55   30   52 1

#	End of record

