#	Name: ASD02039057
#	Creating user name:	WinNT
#	Creation time:	15. 06. 2019 20:17

#	Modifying user name:	WinNT
#	Modification time:	15. 06. 2019 20:17

#	Program:	/corina/corina34_cracker 3.40 0067  02.08.2006

@<TRIPOS>MOLECULE
ASD02039057
  51   54    0    0    0
SMALL
NO_CHARGES


@<TRIPOS>ATOM
   1 N1             0.0026     1.2785    -0.2070 N.2     
   2 N2             0.0318    -0.0041    -0.3030 N.2     
   3 C3             1.2281     1.7343    -0.1151 C.2     
   4 O4             2.0535     0.6719    -0.1572 O.3     
   5 C5             1.2659    -0.4146    -0.2765 C.2     
   6 N6             1.6033     3.0608     0.0032 N.pl3   
   7 C7             0.6407     4.0702    -0.0872 C.ar    
   8 C8             1.7303    -1.8456    -0.3635 C.3     
   9 O9             1.9398    -2.1960    -1.7330 O.3     
  10 C10            2.3634    -3.4625    -1.9882 C.ar    
  11 C11            2.5844    -3.8635    -3.2907 C.ar    
  12 C12            2.5779    -4.3470    -0.9342 C.ar    
  13 C13            3.0079    -5.6336    -1.1738 C.ar    
  14 C14            3.2315    -6.0597    -2.4786 C.ar    
  15 C15            3.0206    -5.1673    -3.5468 C.ar    
  16 C16            0.8207     5.2669     0.5949 C.ar    
  17 C17           -0.4954     3.8811    -0.8638 C.ar    
  18 C18           -1.4446     4.8804    -0.9509 C.ar    
  19 C19           -1.2650     6.0683    -0.2660 C.ar    
  20 C20           -0.1324     6.2621     0.5035 C.ar    
  21 N21            3.6620    -7.3448    -2.7395 N.am    
  22 C22            3.8784    -7.7592    -4.0000 C.2     
  23 C23            3.6772    -6.9052    -5.1054 C.2     
  24 C24            3.2594    -5.6293    -4.9155 C.2     
  25 O25            4.2583    -8.9012    -4.1930 O.2     
  26 C26           -2.3026     7.1568    -0.3638 C.3     
  27 C27           -3.6437     6.6308     0.1517 C.3     
  28 C28           -1.8659     8.3552     0.4812 C.3     
  29 C29           -2.4518     7.5895    -1.8238 C.3     
  30 H30            2.5345     3.2902     0.1488 H       
  31 H31            2.6640    -1.9587     0.1874 H       
  32 H32            0.9727    -2.5003     0.0672 H       
  33 H33            2.4211    -3.1749    -4.1065 H       
  34 H34            2.4057    -4.0211     0.0810 H       
  35 H35            3.1717    -6.3110    -0.3488 H       
  36 H36            1.7049     5.4186     1.1963 H       
  37 H37           -0.6361     2.9537    -1.3992 H       
  38 H38           -2.3279     4.7342    -1.5548 H       
  39 H39            0.0046     7.1908     1.0373 H       
  40 H40            3.8108    -7.9579    -2.0027 H       
  41 H41            3.8603    -7.2680    -6.1060 H       
  42 H42            3.1027    -4.9692    -5.7558 H       
  43 H43           -3.5374     6.3225     1.1918 H       
  44 H44           -4.3942     7.4181     0.0810 H       
  45 H45           -3.9548     5.7770    -0.4503 H       
  46 H46           -0.9106     8.7299     0.1139 H       
  47 H47           -2.6165     9.1424     0.4105 H       
  48 H48           -1.7597     8.0469     1.5213 H       
  49 H49           -2.7629     6.7358    -2.4258 H       
  50 H50           -3.2023     8.3768    -1.8945 H       
  51 H51           -1.4964     7.9643    -2.1911 H       
@<TRIPOS>BOND
   1    1    2 1
   2    1    3 2
   3    2    5 2
   4    3    4 1
   5    3    6 1
   6    4    5 1
   7    5    8 1
   8    6    7 1
   9    6   30 1
  10    7   16 ar
  11    7   17 ar
  12    8    9 1
  13    8   31 1
  14    8   32 1
  15    9   10 1
  16   10   11 ar
  17   10   12 ar
  18   11   15 ar
  19   11   33 1
  20   12   13 ar
  21   12   34 1
  22   13   14 ar
  23   13   35 1
  24   14   15 ar
  25   14   21 1
  26   15   24 1
  27   16   20 ar
  28   16   36 1
  29   17   18 ar
  30   17   37 1
  31   18   19 ar
  32   18   38 1
  33   19   20 ar
  34   19   26 1
  35   20   39 1
  36   21   22 am
  37   21   40 1
  38   22   23 1
  39   22   25 2
  40   23   24 2
  41   23   41 1
  42   24   42 1
  43   26   27 1
  44   26   28 1
  45   26   29 1
  46   27   43 1
  47   27   44 1
  48   27   45 1
  49   28   46 1
  50   28   47 1
  51   28   48 1
  52   29   49 1
  53   29   50 1
  54   29   51 1

#	End of record

