#	Name: ASD00070105
#	Creating user name:	WinNT
#	Creation time:	15. 06. 2019 18:30

#	Modifying user name:	WinNT
#	Modification time:	15. 06. 2019 18:30

#	Program:	/corina/corina34_cracker 3.40 0067  02.08.2006

@<TRIPOS>MOLECULE
ASD00070105
  66   69    0    0    0
SMALL
NO_CHARGES


@<TRIPOS>ATOM
   1 N1            -0.0519     1.2871     0.0043 N.am    
   2 C2            -0.0899    -0.0601     0.0099 C.2     
   3 O3             0.9408    -0.6977    -0.0870 O.2     
   4 N4            -1.2704    -0.7004     0.1230 N.am    
   5 C5             1.2370     1.9835     0.0008 C.3     
   6 C6            -1.2994     2.0551    -0.0043 C.3     
   7 C7            -1.3251    -2.1604     0.0145 C.3     
   8 C8            -2.5546    -2.6815     0.7612 C.3     
   9 C9            -2.6118    -4.2063     0.6480 C.3     
  10 C10           -2.7034    -4.6051    -0.8263 C.3     
  11 C11           -1.4739    -4.0839    -1.5730 C.3     
  12 C12           -1.4168    -2.5592    -1.4597 C.3     
  13 C13           -2.7606    -6.1298    -0.9396 C.3     
  14 C14           -2.9774    -6.5248    -2.4017 C.3     
  15 N15           -3.0323    -7.9888    -2.5104 N.3     
  16 C16           -3.4727    -8.4009    -3.8493 C.3     
  17 C17           -3.6579    -9.9197    -3.8819 C.3     
  18 C18           -2.3314   -10.5983    -3.5291 C.3     
  19 C19           -1.8705   -10.1152    -2.1512 C.3     
  20 C20           -1.7372    -8.5908    -2.1688 C.3     
  21 O21           -1.1580   -14.8754    -5.2621 O.3     
  22 C22           -0.1025   -13.9720    -5.6315 C.3     
  23 C23           -0.7418   -12.5830    -5.3956 C.3     
  24 C24           -1.7935   -12.8964    -4.3490 C.ar    
  25 C25           -1.9618   -14.2754    -4.3417 C.ar    
  26 C26           -2.5223   -12.0929    -3.5009 C.ar    
  27 C27           -3.4297   -12.6584    -2.6222 C.ar    
  28 C28           -3.6004   -14.0301    -2.6002 C.ar    
  29 C29           -2.8734   -14.8368    -3.4514 C.ar    
  30 H30           -2.0838    -0.1947     0.2761 H       
  31 H31            1.5561     2.1520    -1.0278 H       
  32 H32            1.1339     2.9414     0.5107 H       
  33 H33            1.9800     1.3754     0.5167 H       
  34 H34           -2.1449     1.3737    -0.0987 H       
  35 H35           -1.3871     2.6162     0.9261 H       
  36 H36           -1.2945     2.7468    -0.8467 H       
  37 H37           -0.4246    -2.5912     0.4522 H       
  38 H38           -2.4893    -2.3974     1.8115 H       
  39 H39           -3.4552    -2.2507     0.3236 H       
  40 H40           -1.7113    -4.6371     1.0856 H       
  41 H41           -3.4877    -4.5776     1.1799 H       
  42 H42           -3.6040    -4.1742    -1.2639 H       
  43 H43           -0.5734    -4.5148    -1.1354 H       
  44 H44           -1.5392    -4.3681    -2.6233 H       
  45 H45           -2.3173    -2.1284    -1.8974 H       
  46 H46           -0.5408    -2.1879    -1.9917 H       
  47 H47           -1.8227    -6.5560    -0.5833 H       
  48 H48           -3.5846    -6.5084    -0.3348 H       
  49 H49           -3.9153    -6.0987    -2.7579 H       
  50 H50           -2.1534    -6.1462    -3.0064 H       
  51 H51           -4.4190    -7.9145    -4.0860 H       
  52 H52           -2.7217    -8.1108    -4.5840 H       
  53 H53           -4.4188   -10.2091    -3.1570 H       
  54 H54           -3.9697   -10.2270    -4.8801 H       
  55 H55           -1.5803   -10.3401    -4.2756 H       
  56 H56           -2.6033   -10.4078    -1.3991 H       
  57 H57           -0.9054   -10.5622    -1.9129 H       
  58 H58           -0.9943    -8.2998    -2.9114 H       
  59 H59           -1.4230    -8.2423    -1.1850 H       
  60 H60            0.7671   -14.1109    -4.9892 H       
  61 H61            0.1662   -14.1002    -6.6801 H       
  62 H62           -0.0070   -11.8763    -5.0100 H       
  63 H63           -1.2015   -12.2055    -6.3090 H       
  64 H64           -4.0022   -12.0304    -1.9557 H       
  65 H65           -4.3062   -14.4726    -1.9129 H       
  66 H66           -3.0131   -15.9075    -3.4280 H       
@<TRIPOS>BOND
   1    1    2 am
   2    1    5 1
   3    1    6 1
   4    2    3 2
   5    2    4 am
   6    4    7 1
   7    4   30 1
   8    5   31 1
   9    5   32 1
  10    5   33 1
  11    6   34 1
  12    6   35 1
  13    6   36 1
  14    7    8 1
  15    7   12 1
  16    7   37 1
  17    8    9 1
  18    8   38 1
  19    8   39 1
  20    9   10 1
  21    9   40 1
  22    9   41 1
  23   10   11 1
  24   10   13 1
  25   10   42 1
  26   11   12 1
  27   11   43 1
  28   11   44 1
  29   12   45 1
  30   12   46 1
  31   13   14 1
  32   13   47 1
  33   13   48 1
  34   14   15 1
  35   14   49 1
  36   14   50 1
  37   15   16 1
  38   15   20 1
  39   16   17 1
  40   16   51 1
  41   16   52 1
  42   17   18 1
  43   17   53 1
  44   17   54 1
  45   18   19 1
  46   18   26 1
  47   18   55 1
  48   19   20 1
  49   19   56 1
  50   19   57 1
  51   20   58 1
  52   20   59 1
  53   21   22 1
  54   21   25 1
  55   22   23 1
  56   22   60 1
  57   22   61 1
  58   23   24 1
  59   23   62 1
  60   23   63 1
  61   24   25 ar
  62   24   26 ar
  63   25   29 ar
  64   26   27 ar
  65   27   28 ar
  66   27   64 1
  67   28   29 ar
  68   28   65 1
  69   29   66 1

#	End of record

