#	Name: ASD01890386
#	Creating user name:	WinNT
#	Creation time:	15. 06. 2019 19:50

#	Modifying user name:	WinNT
#	Modification time:	15. 06. 2019 19:50

#	Program:	/corina/corina34_cracker 3.40 0067  02.08.2006

@<TRIPOS>MOLECULE
ASD01890386
  49   53    0    0    0
SMALL
NO_CHARGES


@<TRIPOS>ATOM
   1 C1            -0.0168     1.3892     0.0097 C.ar    
   2 C2             0.0021    -0.0041     0.0020 C.ar    
   3 C3             1.1686    -0.7029    -0.0124 C.ar    
   4 C4             2.3917    -0.0079    -0.0203 C.ar    
   5 C5             2.3723     1.4567    -0.0127 C.ar    
   6 C6             1.1301     2.1191     0.0026 C.ar    
   7 C7             3.6207    -0.6787    -0.0346 C.ar    
   8 C8             4.7915     0.0469    -0.0414 C.ar    
   9 C9             4.7789     1.4599    -0.0343 C.ar    
  10 C10            3.5806     2.1597    -0.0200 C.ar    
  11 N11            6.1284    -0.3188    -0.0551 N.pl3   
  12 C12            6.8620     0.8275    -0.0560 C.2     
  13 N13            6.0792     1.8648    -0.0439 N.2     
  14 C14            8.3678     0.8858    -0.0692 C.3     
  15 C15            8.8349     1.7381    -1.2508 C.3     
  16 C16            8.3756     3.1837    -1.0500 C.3     
  17 C17           10.3388     1.6962    -1.3370 C.ar    
  18 C18           11.1007     2.1520    -0.2631 C.ar    
  19 C19           12.4610     2.1284    -0.3087 C.ar    
  20 C20           13.1097     1.6373    -1.4542 C.ar    
  21 C21           12.3346     1.1731    -2.5465 C.ar    
  22 C22           10.9327     1.2085    -2.4606 C.ar    
  23 C23           14.5121     1.5976    -1.5384 C.ar    
  24 C24           15.1056     1.1155    -2.6641 C.ar    
  25 C25           14.3435     0.6591    -3.7381 C.ar    
  26 C26           12.9836     0.6822    -3.6924 C.ar    
  27 C27            8.7279     3.9966    -2.2691 C.2     
  28 O28            9.2888     3.4734    -3.2027 O.2     
  29 O29            8.4187     5.3019    -2.3177 O.3     
  30 H30           -0.9671     1.9024     0.0169 H       
  31 H31           -0.9339    -0.5429     0.0080 H       
  32 H32            1.1561    -1.7828    -0.0174 H       
  33 H33            1.0886     3.1983     0.0081 H       
  34 H34            3.6505    -1.7583    -0.0399 H       
  35 H35            3.5815     3.2397    -0.0147 H       
  36 H36            6.4767    -1.2241    -0.0627 H       
  37 H37            8.7224     1.3292     0.8613 H       
  38 H38            8.7696    -0.1227    -0.1673 H       
  39 H39            8.4070     1.3458    -2.1734 H       
  40 H40            7.2963     3.2044    -0.8990 H       
  41 H41            8.8729     3.6048    -0.1763 H       
  42 H42           10.6045     2.5300     0.6186 H       
  43 H43           13.0385     2.4856     0.5310 H       
  44 H44           10.3293     0.8581    -3.2850 H       
  45 H45           15.1155     1.9483    -0.7142 H       
  46 H46           16.1834     1.0865    -2.7264 H       
  47 H47           14.8397     0.2813    -4.6199 H       
  48 H48           12.4061     0.3249    -4.5322 H       
  49 H49            8.6647     5.7817    -3.1204 H       
@<TRIPOS>BOND
   1    1    2 ar
   2    1    6 ar
   3    1   30 1
   4    2    3 ar
   5    2   31 1
   6    3    4 ar
   7    3   32 1
   8    4    5 ar
   9    4    7 ar
  10    5    6 ar
  11    5   10 ar
  12    6   33 1
  13    7    8 ar
  14    7   34 1
  15    8    9 ar
  16    8   11 1
  17    9   10 ar
  18    9   13 1
  19   10   35 1
  20   11   12 1
  21   11   36 1
  22   12   13 2
  23   12   14 1
  24   14   15 1
  25   14   37 1
  26   14   38 1
  27   15   16 1
  28   15   17 1
  29   15   39 1
  30   16   27 1
  31   16   40 1
  32   16   41 1
  33   17   18 ar
  34   17   22 ar
  35   18   19 ar
  36   18   42 1
  37   19   20 ar
  38   19   43 1
  39   20   21 ar
  40   20   23 ar
  41   21   22 ar
  42   21   26 ar
  43   22   44 1
  44   23   24 ar
  45   23   45 1
  46   24   25 ar
  47   24   46 1
  48   25   26 ar
  49   25   47 1
  50   26   48 1
  51   27   28 2
  52   27   29 1
  53   29   49 1

#	End of record

