#	Name: ASD03451024
#	Creating user name:	WinNT
#	Creation time:	15. 06. 2019 20:42

#	Modifying user name:	WinNT
#	Modification time:	15. 06. 2019 20:42

#	Program:	/corina/corina34_cracker 3.40 0067  02.08.2006

@<TRIPOS>MOLECULE
ASD03451024
  36   39    0    0    0
SMALL
NO_CHARGES


@<TRIPOS>ATOM
   1 C1            -0.0022     1.6056     0.0496 C.ar    
   2 C2            -0.0328     0.2236    -0.0129 C.ar    
   3 C3             1.1582    -0.4770    -0.0563 C.ar    
   4 C4             2.3656     0.2370    -0.0357 C.ar    
   5 C5             2.3213     1.6358     0.0218 C.ar    
   6 N6             1.1378     2.2588     0.0652 N.ar    
   7 C7             3.6200    -0.5300    -0.0704 C.2     
   8 N8             4.6711    -0.2346     0.6250 N.2     
   9 C9             4.6937     0.9305     1.5098 C.3     
  10 C10            4.5132     2.1723     0.6821 C.2     
  11 N11            3.4316     2.4148     0.0304 N.2     
  12 C12            3.6841    -1.7080    -0.9510 C.2     
  13 C13            3.5737     0.8248     2.5125 C.2     
  14 C14            4.7588    -2.5317    -1.1092 C.2     
  15 C15            4.3800    -3.5169    -2.0377 C.2     
  16 C16            3.1066    -3.2523    -2.3992 C.2     
  17 O17            2.6884    -2.1639    -1.7371 O.3     
  18 S18            2.6632     2.1145     3.1964 S.3     
  19 N19            1.6767     1.1302     4.1632 N.2     
  20 C20            2.0425    -0.1008     3.9561 C.2     
  21 C21            3.0692    -0.3033     3.0594 C.2     
  22 N22            5.5337     3.0748     0.6205 N.pl3   
  23 C23            5.3860     4.2940    -0.1783 C.3     
  24 H24           -0.9306     2.1566     0.0816 H       
  25 H25           -0.9763    -0.3017    -0.0273 H       
  26 H26            1.1591    -1.5559    -0.1049 H       
  27 H27            5.6500     0.9747     2.0309 H       
  28 H28            5.7161    -2.4440    -0.6170 H       
  29 H29            4.9925    -4.3316    -2.3947 H       
  30 H30            2.5200    -3.8254    -3.1020 H       
  31 H31            1.5615    -0.9259     4.4604 H       
  32 H32            3.4462    -1.2862     2.8182 H       
  33 H33            6.3573     2.9095     1.1055 H       
  34 H34            4.5434     4.8745     0.1972 H       
  35 H35            6.2972     4.8879    -0.1065 H       
  36 H36            5.2077     4.0266    -1.2198 H       
@<TRIPOS>BOND
   1    1    2 ar
   2    1    6 ar
   3    1   24 1
   4    2    3 ar
   5    2   25 1
   6    3    4 ar
   7    3   26 1
   8    4    5 ar
   9    4    7 1
  10    5    6 ar
  11    5   11 1
  12    7    8 2
  13    7   12 1
  14    8    9 1
  15    9   10 1
  16    9   13 1
  17    9   27 1
  18   10   11 2
  19   10   22 1
  20   12   14 2
  21   12   17 1
  22   13   18 1
  23   13   21 2
  24   14   15 1
  25   14   28 1
  26   15   16 2
  27   15   29 1
  28   16   17 1
  29   16   30 1
  30   18   19 1
  31   19   20 2
  32   20   21 1
  33   20   31 1
  34   21   32 1
  35   22   23 1
  36   22   33 1
  37   23   34 1
  38   23   35 1
  39   23   36 1

#	End of record

