#	Name: ASD04880091
#	Creating user name:	WinNT
#	Creation time:	15. 06. 2019 20:52

#	Modifying user name:	WinNT
#	Modification time:	15. 06. 2019 20:52

#	Program:	/corina/corina34_cracker 3.40 0067  02.08.2006

@<TRIPOS>MOLECULE
ASD04880091
  42   44    0    0    0
SMALL
NO_CHARGES


@<TRIPOS>ATOM
   1 C1            -0.0144     1.2118     0.0087 C.2     
   2 O2             0.0577    -0.0018    -0.0141 O.2     
   3 C3             1.2187     2.0260    -0.0194 C.ar    
   4 C4             2.4673     1.4095     0.0723 C.ar    
   5 C5             3.6180     2.1788     0.0453 C.ar    
   6 C6             3.5283     3.5595    -0.0722 C.ar    
   7 C7             2.2922     4.1718    -0.1627 C.ar    
   8 C8             1.1389     3.4141    -0.1436 C.ar    
   9 O9             4.8360     1.5824     0.1344 O.3     
  10 N10           -1.2190     1.8145     0.0540 N.am    
  11 N11           -1.4354     3.1836     0.1958 N.2     
  12 C12           -2.6790     3.5211     0.2124 C.2     
  13 C13           -3.5393     2.2861     0.0682 C.3     
  14 C14           -2.5205     1.1348    -0.0446 C.3     
  15 C15           -3.1848     4.8987     0.3510 C.ar    
  16 C16           -2.2893     5.9644     0.4778 C.ar    
  17 C17           -2.7690     7.2539     0.6070 C.ar    
  18 C18           -4.1425     7.4896     0.6108 C.ar    
  19 C19           -5.0314     6.4323     0.4855 C.ar    
  20 C20           -4.5602     5.1431     0.3503 C.ar    
  21 O21           -4.6122     8.7588     0.7380 O.3     
  22 C22           -6.0311     8.9289     0.7341 C.3     
  23 O23           -1.9005     8.2931     0.7309 O.3     
  24 C24           -0.5066     7.9786     0.7196 C.3     
  25 H25            2.5357     0.3356     0.1644 H       
  26 H26            4.4276     4.1573    -0.0927 H       
  27 H27            2.2289     5.2462    -0.2532 H       
  28 H28            0.1750     3.8953    -0.2193 H       
  29 H29            5.2169     1.3365    -0.7198 H       
  30 H30           -4.1726     2.1567     0.9459 H       
  31 H31           -4.1451     2.3455    -0.8361 H       
  32 H32           -2.6166     0.6276    -1.0046 H       
  33 H33           -2.6484     0.4301     0.7771 H       
  34 H34           -1.2251     5.7805     0.4751 H       
  35 H35           -6.0951     6.6195     0.4896 H       
  36 H36           -5.2545     4.3222     0.2481 H       
  37 H37           -6.2705     9.9868     0.8425 H       
  38 H38           -6.4388     8.5586    -0.2065 H       
  39 H39           -6.4661     8.3711     1.5634 H       
  40 H40            0.0736     8.8952     0.8260 H       
  41 H41           -0.2791     7.3064     1.5470 H       
  42 H42           -0.2511     7.4942    -0.2228 H       
@<TRIPOS>BOND
   1    1    2 2
   2    1    3 1
   3    1   10 am
   4    3    4 ar
   5    3    8 ar
   6    4    5 ar
   7    4   25 1
   8    5    6 ar
   9    5    9 1
  10    6    7 ar
  11    6   26 1
  12    7    8 ar
  13    7   27 1
  14    8   28 1
  15    9   29 1
  16   10   11 1
  17   10   14 1
  18   11   12 2
  19   12   13 1
  20   12   15 1
  21   13   14 1
  22   13   30 1
  23   13   31 1
  24   14   32 1
  25   14   33 1
  26   15   16 ar
  27   15   20 ar
  28   16   17 ar
  29   16   34 1
  30   17   18 ar
  31   17   23 1
  32   18   19 ar
  33   18   21 1
  34   19   20 ar
  35   19   35 1
  36   20   36 1
  37   21   22 1
  38   22   37 1
  39   22   38 1
  40   22   39 1
  41   23   24 1
  42   24   40 1
  43   24   41 1
  44   24   42 1

#	End of record

