#	Name: ASD04882060
#	Creating user name:	WinNT
#	Creation time:	15. 06. 2019 20:54

#	Modifying user name:	WinNT
#	Modification time:	15. 06. 2019 20:54

#	Program:	/corina/corina34_cracker 3.40 0067  02.08.2006

@<TRIPOS>MOLECULE
ASD04882060
  75   79    0    0    0
SMALL
NO_CHARGES


@<TRIPOS>ATOM
   1 N1            -0.1362     1.5550    -0.0364 N.am    
   2 C2            -0.0763     0.1554    -0.0458 C.ar    
   3 C3            -1.2526    -0.5955     0.0296 C.ar    
   4 C4            -1.1946    -1.9845     0.0209 C.ar    
   5 C5             0.0215    -2.6255    -0.0625 C.ar    
   6 C6             1.2017    -1.8806    -0.1381 C.ar    
   7 C7             1.1458    -0.4840    -0.1353 C.ar    
   8 N8            -2.4844     0.0484     0.1140 N.3     
   9 C9            -2.6118     0.7772     1.3837 C.3     
  10 C10           -3.5898    -0.9050    -0.0559 C.3     
  11 C11           -4.9200    -0.1483    -0.0362 C.3     
  12 N12           -5.0474     0.5805     1.2335 N.3     
  13 C13           -3.9420     1.5339     1.4033 C.3     
  14 C14            0.8455     2.2676     0.5510 C.2     
  15 O15            1.7295     1.6967     1.1625 O.2     
  16 C16            0.8484     3.7307     0.4533 C.2     
  17 O17           -0.0671     4.4841    -0.1904 O.3     
  18 C18            1.7751     4.5697     1.0030 C.2     
  19 C19            1.3897     5.8756     0.6618 C.2     
  20 C20            0.2571     5.7780    -0.0687 C.2     
  21 C21            2.5043    -2.5675    -0.2269 C.2     
  22 N22            2.5568    -3.9142    -0.2350 N.am    
  23 O23            3.5306    -1.9186    -0.2926 O.2     
  24 C24           -6.2829     1.2264     1.3181 C.ar    
  25 C25           -6.6349     2.1820     0.3737 C.ar    
  26 C26           -7.8577     2.8185     0.4601 C.ar    
  27 C27           -8.7308     2.5056     1.4856 C.ar    
  28 C28           -8.3834     1.5545     2.4277 C.ar    
  29 C29           -7.1649     0.9103     2.3440 C.ar    
  30 C30           -6.7875    -0.1262     3.3708 C.3     
  31 C31            3.8504    -4.5963    -0.3231 C.3     
  32 C32            3.7351    -5.9719     0.2815 C.ar    
  33 C33            4.7634    -6.4741     1.0571 C.ar    
  34 C34            4.6582    -7.7356     1.6120 C.ar    
  35 C35            3.5236    -8.4958     1.3910 C.ar    
  36 C36            2.4948    -7.9927     0.6147 C.ar    
  37 C37            2.5987    -6.7288     0.0651 C.ar    
  38 Cl38           3.3911   -10.0806     2.0871 Cl      
  39 C39            4.2640    -4.7176    -1.7911 C.3     
  40 N40            4.2603    -3.3864    -2.4125 N.3     
  41 C41            4.6535    -3.4640    -3.8257 C.3     
  42 H42           -0.8822     2.0114    -0.4562 H       
  43 H43           -2.1052    -2.5622     0.0800 H       
  44 H44            0.0633    -3.7047    -0.0690 H       
  45 H45            2.0561     0.0942    -0.1940 H       
  46 H46           -2.5831     0.0706     2.2131 H       
  47 H47           -1.7890     1.4856     1.4805 H       
  48 H48           -3.4801    -1.4230    -1.0086 H       
  49 H49           -3.5722    -1.6307     0.7572 H       
  50 H50           -4.9487     0.5583    -0.8656 H       
  51 H51           -5.7428    -0.8567    -0.1330 H       
  52 H52           -4.0517     2.0519     2.3561 H       
  53 H53           -3.9596     2.2596     0.5903 H       
  54 H54            2.6372     4.2839     1.5873 H       
  55 H55            1.9007     6.7872     0.9343 H       
  56 H56           -0.2955     6.6067    -0.4862 H       
  57 H57            1.7382    -4.4318    -0.1825 H       
  58 H58           -5.9532     2.4273    -0.4272 H       
  59 H59           -8.1321     3.5616    -0.2740 H       
  60 H60           -9.6860     3.0053     1.5512 H       
  61 H61           -9.0675     1.3128     3.2277 H       
  62 H62           -7.1234    -1.1078     3.0365 H       
  63 H63           -5.7048    -0.1359     3.4962 H       
  64 H64           -7.2614     0.1154     4.3222 H       
  65 H65            4.6014    -4.0225     0.2198 H       
  66 H66            5.6492    -5.8807     1.2292 H       
  67 H67            5.4618    -8.1279     2.2176 H       
  68 H68            1.6089    -8.5856     0.4419 H       
  69 H69            1.7957    -6.3359    -0.5409 H       
  70 H70            5.2651    -5.1443    -1.8524 H       
  71 H71            3.5604    -5.3649    -2.3146 H       
  72 H72            3.3597    -2.9428    -2.3115 H       
  73 H73            5.6573    -3.8821    -3.9012 H       
  74 H74            3.9526    -4.1026    -4.3633 H       
  75 H75            4.6423    -2.4649    -4.2614 H       
@<TRIPOS>BOND
   1    1    2 1
   2    1   14 am
   3    1   42 1
   4    2    3 ar
   5    2    7 ar
   6    3    4 ar
   7    3    8 1
   8    4    5 ar
   9    4   43 1
  10    5    6 ar
  11    5   44 1
  12    6    7 ar
  13    6   21 1
  14    7   45 1
  15    8    9 1
  16    8   10 1
  17    9   13 1
  18    9   46 1
  19    9   47 1
  20   10   11 1
  21   10   48 1
  22   10   49 1
  23   11   12 1
  24   11   50 1
  25   11   51 1
  26   12   13 1
  27   12   24 1
  28   13   52 1
  29   13   53 1
  30   14   15 2
  31   14   16 1
  32   16   17 1
  33   16   18 2
  34   17   20 1
  35   18   19 1
  36   18   54 1
  37   19   20 2
  38   19   55 1
  39   20   56 1
  40   21   22 am
  41   21   23 2
  42   22   31 1
  43   22   57 1
  44   24   25 ar
  45   24   29 ar
  46   25   26 ar
  47   25   58 1
  48   26   27 ar
  49   26   59 1
  50   27   28 ar
  51   27   60 1
  52   28   29 ar
  53   28   61 1
  54   29   30 1
  55   30   62 1
  56   30   63 1
  57   30   64 1
  58   31   32 1
  59   31   39 1
  60   31   65 1
  61   32   33 ar
  62   32   37 ar
  63   33   34 ar
  64   33   66 1
  65   34   35 ar
  66   34   67 1
  67   35   36 ar
  68   35   38 1
  69   36   37 ar
  70   36   68 1
  71   37   69 1
  72   39   40 1
  73   39   70 1
  74   39   71 1
  75   40   41 1
  76   40   72 1
  77   41   73 1
  78   41   74 1
  79   41   75 1

#	End of record

