#	Name: ASD01230185
#	Creating user name:	WinNT
#	Creation time:	15. 06. 2019 19:11

#	Modifying user name:	WinNT
#	Modification time:	15. 06. 2019 19:11

#	Program:	/corina/corina34_cracker 3.40 0067  02.08.2006

@<TRIPOS>MOLECULE
ASD01230185
  26   27    0    0    0
SMALL
NO_CHARGES


@<TRIPOS>ATOM
   1 S1            -0.0204     1.6504     0.0111 S.o2    
   2 N2             0.0021    -0.0041     0.0020 N.am    
   3 C3             1.0202    -0.6863    -0.4549 C.2     
   4 N4             2.1683    -0.1514    -0.9714 N.pl3   
   5 C5             2.3937     1.2859    -1.1471 C.3     
   6 C6             1.7501     2.0751    -0.0035 C.3     
   7 C7             0.8920    -2.1605    -0.3940 C.2     
   8 C8             1.9513    -2.9458    -0.8264 C.2     
   9 C9             3.1022    -2.3204    -1.3070 C.2     
  10 C10            3.1860    -0.9756    -1.3644 C.2     
  11 C11           -0.3355    -2.7809     0.1158 C.2     
  12 O12           -0.4307    -3.9924     0.1616 O.2     
  13 O13           -1.3585    -2.0078     0.5338 O.3     
  14 C14            4.2671    -3.1585    -1.7671 C.3     
  15 O15           -0.6346     2.0064    -1.2198 O.2     
  16 O16           -0.6110     1.9931     1.2573 O.2     
  17 H17            3.4657     1.4826    -1.1608 H       
  18 H18            1.9581     1.6050    -2.0939 H       
  19 H19            1.8741     3.1445    -0.1743 H       
  20 H20            2.2073     1.7940     0.9452 H       
  21 H21            1.8860    -4.0233    -0.7912 H       
  22 H22            4.0964    -0.5303    -1.7377 H       
  23 H23           -2.1467    -2.4621     0.8615 H       
  24 H24            4.0241    -4.2145    -1.6490 H       
  25 H25            4.4739    -2.9484    -2.8165 H       
  26 H26            5.1460    -2.9189    -1.1685 H       
@<TRIPOS>BOND
   1    1    2 am
   2    1    6 1
   3    1   15 2
   4    1   16 2
   5    2    3 2
   6    3    4 1
   7    3    7 1
   8    4    5 1
   9    4   10 1
  10    5    6 1
  11    5   17 1
  12    5   18 1
  13    6   19 1
  14    6   20 1
  15    7    8 2
  16    7   11 1
  17    8    9 1
  18    8   21 1
  19    9   10 2
  20    9   14 1
  21   10   22 1
  22   11   12 2
  23   11   13 1
  24   13   23 1
  25   14   24 1
  26   14   25 1
  27   14   26 1

#	End of record

