#	Name: ASD01901249
#	Creating user name:	WinNT
#	Creation time:	15. 06. 2019 19:53

#	Modifying user name:	WinNT
#	Modification time:	15. 06. 2019 19:53

#	Program:	/corina/corina34_cracker 3.40 0067  02.08.2006

@<TRIPOS>MOLECULE
ASD01901249
  32   34    0    0    0
SMALL
NO_CHARGES


@<TRIPOS>ATOM
   1 C1            -0.0167     1.3818     0.0096 C.ar    
   2 C2             0.0021    -0.0041     0.0020 C.ar    
   3 N3             1.1654    -0.6336    -0.0125 N.ar    
   4 C4             2.3030     0.0457    -0.0197 C.ar    
   5 N5             2.3198     1.3709    -0.0127 N.ar    
   6 C6             1.1918     2.0611     0.0017 C.ar    
   7 C7            -1.2872    -0.7843     0.0106 C.3     
   8 N8             3.5029    -0.6455    -0.0344 N.pl3   
   9 C9             4.7118     0.0541    -0.0422 C.2     
  10 C10            5.9264    -0.5083    -0.0564 C.2     
  11 C11            6.9871     0.3957    -0.0622 C.2     
  12 C12            6.6204     1.6874    -0.0527 C.2     
  13 S13            4.8662     1.8055    -0.0424 S.3     
  14 C14            7.5689     2.8585    -0.0562 C.3     
  15 C15            8.4095    -0.0353    -0.0773 C.2     
  16 C16            8.9827    -0.9496     0.7559 C.2     
  17 C17            9.4075     0.4222    -0.9584 C.2     
  18 N18           10.5246    -0.1874    -0.6597 N.2     
  19 N19           10.2846    -1.0541     0.4135 N.pl3   
  20 H20           -0.9526     1.9208     0.0170 H       
  21 H21            1.2119     3.1409     0.0074 H       
  22 H22           -1.6082    -0.9669    -1.0149 H       
  23 H23           -1.1322    -1.7366     0.5178 H       
  24 H24           -2.0537    -0.2137     0.5352 H       
  25 H25            3.5038    -1.6155    -0.0393 H       
  26 H26            6.0729    -1.5783    -0.0624 H       
  27 H27            7.7878     3.1457    -1.0846 H       
  28 H28            7.1108     3.6985     0.4660 H       
  29 H29            8.4940     2.5783     0.4476 H       
  30 H30            8.4856    -1.4918     1.5466 H       
  31 H31            9.2734     1.1501    -1.7449 H       
  32 H32           10.9402    -1.6295     0.8379 H       
@<TRIPOS>BOND
   1    1    2 ar
   2    1    6 ar
   3    1   20 1
   4    2    3 ar
   5    2    7 1
   6    3    4 ar
   7    4    5 ar
   8    4    8 1
   9    5    6 ar
  10    6   21 1
  11    7   22 1
  12    7   23 1
  13    7   24 1
  14    8    9 1
  15    8   25 1
  16    9   10 2
  17    9   13 1
  18   10   11 1
  19   10   26 1
  20   11   12 2
  21   11   15 1
  22   12   13 1
  23   12   14 1
  24   14   27 1
  25   14   28 1
  26   14   29 1
  27   15   16 2
  28   15   17 1
  29   16   19 1
  30   16   30 1
  31   17   18 2
  32   17   31 1
  33   18   19 1
  34   19   32 1

#	End of record

