#	Name: ASD00100007
#	Creating user name:	WinNT
#	Creation time:	15. 06. 2019 18:30

#	Modifying user name:	WinNT
#	Modification time:	15. 06. 2019 18:30

#	Program:	/corina/corina34_cracker 3.40 0067  02.08.2006

@<TRIPOS>MOLECULE
ASD00100007
  62   65    0    0    0
SMALL
NO_CHARGES


@<TRIPOS>ATOM
   1 C1            -0.0184     1.5028     0.0103 C.2     
   2 C2             0.0021    -0.0041     0.0020 C.3     
   3 C3             1.4513    -0.4944    -0.0145 C.3     
   4 O4             1.0236     2.1234     0.0037 O.2     
   5 N5            -1.1946     2.1607     0.0195 N.am    
   6 F6             2.1153    -0.0253     1.1241 F       
   7 F7             1.4703    -1.8932    -0.0221 F       
   8 F8             2.0935    -0.0130    -1.1603 F       
   9 C9            -1.2145     3.6256     0.0275 C.3     
  10 C10           -2.5315     4.1210    -0.5732 C.3     
  11 C11           -2.5522     5.6509    -0.5648 C.3     
  12 C12           -2.4266     6.1547     0.8744 C.3     
  13 C13           -1.1096     5.6592     1.4751 C.3     
  14 C14           -1.0888     4.1294     1.4667 C.3     
  15 C15           -2.4474     7.6846     0.8828 C.3     
  16 C16           -2.4475     8.1867     2.3281 C.3     
  17 N17           -2.4674     9.6555     2.3362 N.3     
  18 C18           -2.7062    10.1711     3.6902 C.3     
  19 C19           -2.8652    11.6923     3.6376 C.3     
  20 C20           -1.5944    12.3135     3.0515 C.3     
  21 C21           -1.3419    11.7238     1.6611 C.3     
  22 C22           -1.2270    10.2018     1.7711 C.3     
  23 O23           -2.5446    15.7860     2.3730 O.3     
  24 C24           -2.6989    14.4580     2.2312 C.2     
  25 C25           -1.7681    13.8064     2.9414 C.2     
  26 C26           -0.9519    14.8391     3.5910 C.ar    
  27 C27           -1.5041    16.0654     3.1838 C.ar    
  28 C28            0.1497    14.8163     4.4446 C.ar    
  29 C29            0.6932    16.0028     4.8860 C.ar    
  30 C30            0.1485    17.2137     4.4844 C.ar    
  31 C31           -0.9410    17.2499     3.6405 C.ar    
  32 H32           -0.4983    -0.3791     0.8948 H       
  33 H33           -0.5153    -0.3696    -0.8850 H       
  34 H34           -2.0280     1.6644     0.0207 H       
  35 H35           -0.3805     4.0035    -0.5638 H       
  36 H36           -2.6210     3.7621    -1.5985 H       
  37 H37           -3.3655     3.7431     0.0182 H       
  38 H38           -1.7182     6.0288    -1.1561 H       
  39 H39           -3.4905     6.0039    -0.9927 H       
  40 H40           -3.2606     5.7768     1.4658 H       
  41 H41           -0.2756     6.0372     0.8838 H       
  42 H42           -1.0201     6.0182     2.5004 H       
  43 H43           -1.9228     3.7515     2.0581 H       
  44 H44           -0.1506     3.7764     1.8947 H       
  45 H45           -1.5649     8.0627     0.3669 H       
  46 H46           -3.3446     8.0386     0.3752 H       
  47 H47           -3.3300     7.8085     2.8441 H       
  48 H48           -1.5502     7.8327     2.8358 H       
  49 H49           -3.6149     9.7247     4.0939 H       
  50 H50           -1.8614     9.9163     4.3301 H       
  51 H51           -3.7183    11.9474     3.0089 H       
  52 H52           -3.0269    12.0764     4.6448 H       
  53 H53           -0.7475    12.0913     3.7007 H       
  54 H54           -2.1710    11.9795     1.0013 H       
  55 H55           -0.4152    12.1304     1.2562 H       
  56 H56           -0.3891     9.9467     2.4199 H       
  57 H57           -1.0614     9.7776     0.7807 H       
  58 H58           -3.4626    13.9849     1.6316 H       
  59 H59            0.5745    13.8743     4.7583 H       
  60 H60            1.5466    15.9900     5.5478 H       
  61 H61            0.5824    18.1378     4.8369 H       
  62 H62           -1.3562    18.1988     3.3346 H       
@<TRIPOS>BOND
   1    1    2 1
   2    1    4 2
   3    1    5 am
   4    2    3 1
   5    2   32 1
   6    2   33 1
   7    3    6 1
   8    3    7 1
   9    3    8 1
  10    5    9 1
  11    5   34 1
  12    9   10 1
  13    9   14 1
  14    9   35 1
  15   10   11 1
  16   10   36 1
  17   10   37 1
  18   11   12 1
  19   11   38 1
  20   11   39 1
  21   12   13 1
  22   12   15 1
  23   12   40 1
  24   13   14 1
  25   13   41 1
  26   13   42 1
  27   14   43 1
  28   14   44 1
  29   15   16 1
  30   15   45 1
  31   15   46 1
  32   16   17 1
  33   16   47 1
  34   16   48 1
  35   17   18 1
  36   17   22 1
  37   18   19 1
  38   18   49 1
  39   18   50 1
  40   19   20 1
  41   19   51 1
  42   19   52 1
  43   20   21 1
  44   20   25 1
  45   20   53 1
  46   21   22 1
  47   21   54 1
  48   21   55 1
  49   22   56 1
  50   22   57 1
  51   23   24 1
  52   23   27 1
  53   24   25 2
  54   24   58 1
  55   25   26 1
  56   26   27 ar
  57   26   28 ar
  58   27   31 ar
  59   28   29 ar
  60   28   59 1
  61   29   30 ar
  62   29   60 1
  63   30   31 ar
  64   30   61 1
  65   31   62 1

#	End of record

