#	Name: ASD00070056
#	Creating user name:	WinNT
#	Creation time:	15. 06. 2019 18:30

#	Modifying user name:	WinNT
#	Modification time:	15. 06. 2019 18:30

#	Program:	/corina/corina34_cracker 3.40 0067  02.08.2006

@<TRIPOS>MOLECULE
ASD00070056
  69   73    0    0    0
SMALL
NO_CHARGES


@<TRIPOS>ATOM
   1 C1            -0.0188     1.5336     0.0105 C.3     
   2 C2             0.0021    -0.0041     0.0020 C.3     
   3 C3             1.3941     0.0896     0.6488 C.3     
   4 C4             1.5179     1.4762    -0.0045 C.3     
   5 C5            -0.6126     2.1361    -1.2367 C.2     
   6 O6            -0.5994     1.5127    -2.2769 O.2     
   7 N7            -1.1582     3.3678    -1.1961 N.am    
   8 C8            -1.7354     3.9536    -2.4085 C.3     
   9 C9            -2.7910     4.9911    -2.0210 C.3     
  10 C10           -3.3938     5.6029    -3.2872 C.3     
  11 C11           -2.2896     6.2787    -4.1026 C.3     
  12 C12           -1.2341     5.2412    -4.4901 C.3     
  13 C13           -0.6312     4.6295    -3.2239 C.3     
  14 C14           -2.8925     6.8905    -5.3688 C.3     
  15 C15           -1.8136     7.6722    -6.1210 C.3     
  16 N16           -2.3924     8.2596    -7.3367 N.3     
  17 C17           -1.4591     9.2070    -7.9592 C.3     
  18 C18           -2.1470     9.9051    -9.1346 C.3     
  19 C19           -2.5937     8.8547   -10.1552 C.3     
  20 C20           -3.5264     7.8525    -9.4695 C.3     
  21 C21           -2.7985     7.2139    -8.2844 C.3     
  22 O22           -2.8645     9.8280   -14.8084 O.3     
  23 C23           -1.9896     8.6957   -14.6696 C.3     
  24 C24           -1.6476     8.7098   -13.1608 C.3     
  25 C25           -2.8492     9.4252   -12.5743 C.ar    
  26 C26           -3.5063    10.0477   -13.6282 C.ar    
  27 C27           -3.3248     9.5306   -11.2864 C.ar    
  28 C28           -4.4747    10.2572   -11.0312 C.ar    
  29 C29           -5.1416    10.8748   -12.0728 C.ar    
  30 C30           -4.6651    10.7730   -13.3636 C.ar    
  31 O31           -0.5591     2.0921     1.2097 O.3     
  32 H32           -0.7506    -0.4545     0.6490 H       
  33 H33            0.0139    -0.4351    -0.9991 H       
  34 H34            1.3682     0.1209     1.7381 H       
  35 H35            2.1053    -0.6404     0.2621 H       
  36 H36            1.9441     1.4499    -1.0074 H       
  37 H37            1.9889     2.2208     0.6373 H       
  38 H38           -1.1687     3.8665    -0.3642 H       
  39 H39           -2.1995     3.1687    -3.0058 H       
  40 H40           -3.5776     4.5096    -1.4400 H       
  41 H41           -2.3269     5.7760    -1.4237 H       
  42 H42           -3.8579     4.8180    -3.8844 H       
  43 H43           -4.1458     6.3420    -3.0110 H       
  44 H44           -1.8255     7.0636    -3.5053 H       
  45 H45           -1.6982     4.4563    -5.0874 H       
  46 H46           -0.4474     5.7227    -5.0711 H       
  47 H47           -0.1671     5.4143    -2.6267 H       
  48 H48            0.1208     3.8903    -3.5000 H       
  49 H49           -3.2779     6.0962    -6.0080 H       
  50 H50           -3.7051     7.5637    -5.0957 H       
  51 H51           -1.4281     8.4665    -5.4817 H       
  52 H52           -1.0010     6.9990    -6.3941 H       
  53 H53           -1.1525     9.9510    -7.2239 H       
  54 H54           -0.5819     8.6693    -8.3191 H       
  55 H55           -3.0164    10.4543    -8.7734 H       
  56 H56           -1.4489    10.5969    -9.6061 H       
  57 H57           -1.7206     8.3317   -10.5455 H       
  58 H58           -4.4175     8.3694    -9.1136 H       
  59 H59           -3.8139     7.0778   -10.1803 H       
  60 H60           -1.9150     6.6856    -8.6428 H       
  61 H61           -3.4648     6.5103    -7.7854 H       
  62 H62           -2.5049     7.7741   -14.9401 H       
  63 H63           -1.0898     8.8270   -15.2707 H       
  64 H64           -1.5689     7.6954   -12.7697 H       
  65 H65           -0.7313     9.2700   -12.9742 H       
  66 H66           -4.8499    10.3411   -10.0220 H       
  67 H67           -6.0407    11.4396   -11.8751 H       
  68 H68           -5.1921    11.2588   -14.1715 H       
  69 H69           -0.5748     3.0589     1.2210 H       
@<TRIPOS>BOND
   1    1    2 1
   2    1    4 1
   3    1    5 1
   4    1   31 1
   5    2    3 1
   6    2   32 1
   7    2   33 1
   8    3    4 1
   9    3   34 1
  10    3   35 1
  11    4   36 1
  12    4   37 1
  13    5    6 2
  14    5    7 am
  15    7    8 1
  16    7   38 1
  17    8    9 1
  18    8   13 1
  19    8   39 1
  20    9   10 1
  21    9   40 1
  22    9   41 1
  23   10   11 1
  24   10   42 1
  25   10   43 1
  26   11   12 1
  27   11   14 1
  28   11   44 1
  29   12   13 1
  30   12   45 1
  31   12   46 1
  32   13   47 1
  33   13   48 1
  34   14   15 1
  35   14   49 1
  36   14   50 1
  37   15   16 1
  38   15   51 1
  39   15   52 1
  40   16   17 1
  41   16   21 1
  42   17   18 1
  43   17   53 1
  44   17   54 1
  45   18   19 1
  46   18   55 1
  47   18   56 1
  48   19   20 1
  49   19   27 1
  50   19   57 1
  51   20   21 1
  52   20   58 1
  53   20   59 1
  54   21   60 1
  55   21   61 1
  56   22   23 1
  57   22   26 1
  58   23   24 1
  59   23   62 1
  60   23   63 1
  61   24   25 1
  62   24   64 1
  63   24   65 1
  64   25   26 ar
  65   25   27 ar
  66   26   30 ar
  67   27   28 ar
  68   28   29 ar
  69   28   66 1
  70   29   30 ar
  71   29   67 1
  72   30   68 1
  73   31   69 1

#	End of record

