#	Name: ASD08151173
#	Creating user name:	WinNT
#	Creation time:	15. 06. 2019 21:17

#	Modifying user name:	WinNT
#	Modification time:	15. 06. 2019 21:17

#	Program:	/corina/corina34_cracker 3.40 0067  02.08.2006

@<TRIPOS>MOLECULE
ASD08151173
  52   56    0    0    0
SMALL
NO_CHARGES


@<TRIPOS>ATOM
   1 C1             0.0182     1.2763     0.6101 C.ar    
   2 C2             0.0730    -0.1385     0.6366 C.ar    
   3 C3             1.1700     2.0126     0.2840 C.ar    
   4 C4             2.3323     1.3626    -0.0047 C.ar    
   5 C5             2.3998    -0.0276     0.0177 C.ar    
   6 C6             1.2920    -0.7835     0.3322 C.ar    
   7 Cl7            1.1119     3.7472     0.2485 Cl      
   8 N8             1.3739    -2.1763     0.3514 N.3     
   9 C9             0.4500    -2.7712    -0.6227 C.3     
  10 N10           -1.0195    -0.8413     0.9470 N.ar    
  11 C11           -2.1538    -0.2485     1.2309 C.ar    
  12 C12           -2.2768     1.1393     1.2232 C.ar    
  13 C13           -1.1964     1.9174     0.9189 C.ar    
  14 C14            3.7013    -0.7145    -0.3068 C.3     
  15 C15            3.7395    -1.0568    -1.7975 C.3     
  16 N16            4.8180     0.1763     0.0185 N.pl3   
  17 C17            6.0535    -0.3542     0.3461 C.ar    
  18 C18            7.1356     0.4851     0.6608 C.ar    
  19 C19            8.3654    -0.1119     0.9860 C.ar    
  20 N20            8.4603    -1.4374     0.9847 N.ar    
  21 C21            7.4190    -2.1843     0.6835 C.ar    
  22 N22            6.2426    -1.6694     0.3759 N.ar    
  23 N23            7.3104     1.8263     0.7369 N.2     
  24 C24            8.5391     2.0842     1.0797 C.2     
  25 N25            9.2304     0.9211     1.2452 N.pl3   
  26 C26            1.1308    -2.6992     1.7018 C.3     
  27 C27            1.3712    -4.2105     1.7160 C.3     
  28 C28            0.4301    -4.8815     0.7115 C.3     
  29 C29            0.6700    -4.2847    -0.6780 C.3     
  30 O30            0.6894    -6.2864     0.6791 O.3     
  31 H31            3.2138     1.9342    -0.2549 H       
  32 H32           -0.5771    -2.5642    -0.3224 H       
  33 H33            0.6340    -2.3413    -1.6073 H       
  34 H34           -3.0154    -0.8515     1.4767 H       
  35 H35           -3.2246     1.5993     1.4610 H       
  36 H36           -1.2737     2.9946     0.9082 H       
  37 H37            3.7846    -1.6303     0.2785 H       
  38 H38            2.9605    -1.7850    -2.0232 H       
  39 H39            3.5719    -0.1524    -2.3824 H       
  40 H40            4.7134    -1.4769    -2.0490 H       
  41 H41            4.6913     1.1379     0.0042 H       
  42 H42            7.5300    -3.2586     0.6919 H       
  43 H43            8.9504     3.0739     1.2134 H       
  44 H44           10.1628     0.8388     1.4995 H       
  45 H45            1.8093    -2.2170     2.4056 H       
  46 H46            0.1005    -2.4926     1.9913 H       
  47 H47            2.4052    -4.4172     1.4400 H       
  48 H48            1.1755    -4.6008     2.7147 H       
  49 H49           -0.6040    -4.7077     1.0090 H       
  50 H50           -0.0265    -4.7279    -1.3896 H       
  51 H51            1.6930    -4.4925    -0.9916 H       
  52 H52            0.1279    -6.7758     0.0625 H       
@<TRIPOS>BOND
   1    1    2 ar
   2    1    3 ar
   3    1   13 ar
   4    2   10 ar
   5    2    6 ar
   6    3    4 ar
   7    3    7 1
   8    4    5 ar
   9    4   31 1
  10    5    6 ar
  11    5   14 1
  12    6    8 1
  13    8   26 1
  14    8    9 1
  15    9   29 1
  16    9   32 1
  17    9   33 1
  18   10   11 ar
  19   11   12 ar
  20   11   34 1
  21   12   13 ar
  22   12   35 1
  23   13   36 1
  24   14   15 1
  25   14   16 1
  26   14   37 1
  27   15   38 1
  28   15   39 1
  29   15   40 1
  30   16   17 1
  31   16   41 1
  32   17   18 ar
  33   17   22 ar
  34   18   19 ar
  35   18   23 1
  36   19   20 ar
  37   19   25 1
  38   20   21 ar
  39   21   22 ar
  40   21   42 1
  41   23   24 2
  42   24   25 1
  43   24   43 1
  44   25   44 1
  45   26   27 1
  46   26   45 1
  47   26   46 1
  48   27   28 1
  49   27   47 1
  50   27   48 1
  51   28   29 1
  52   28   30 1
  53   28   49 1
  54   29   50 1
  55   29   51 1
  56   30   52 1

#	End of record

