#	Name: ASD01813318
#	Creating user name:	WinNT
#	Creation time:	15. 06. 2019 19:30

#	Modifying user name:	WinNT
#	Modification time:	15. 06. 2019 19:30

#	Program:	/corina/corina34_cracker 3.40 0067  02.08.2006

@<TRIPOS>MOLECULE
ASD01813318
  52   55    0    0    0
SMALL
NO_CHARGES


@<TRIPOS>ATOM
   1 C1             0.5611     1.3736     1.5358 C.2     
   2 C2             0.5153    -0.0156     1.3568 C.2     
   3 C3             1.6563    -0.6886     1.0308 C.2     
   4 C4             2.8583     0.0226     0.8800 C.2     
   5 N5             2.8743     1.3789     1.0611 N.am    
   6 C6             1.7276     2.0409     1.3864 C.2     
   7 C7             4.0323    -0.6668     0.5451 C.2     
   8 C8             5.2054     0.0145     0.3966 C.2     
   9 C9             5.2180     1.4093     0.5831 C.2     
  10 C10            4.0210     2.0738     0.9198 C.2     
  11 O11            4.0227     3.2823     1.0829 O.2     
  12 C12            6.4639     2.1638     0.4301 C.2     
  13 O13            6.4693     3.5007     0.6103 O.3     
  14 O14            7.4938     1.5849     0.1407 O.2     
  15 C15            3.9989    -2.1606     0.3494 C.3     
  16 C16            3.8237    -2.4765    -1.1373 C.3     
  17 N17            3.7911    -3.9327    -1.3281 N.3     
  18 C18            2.5808    -4.5130    -0.7377 C.3     
  19 C19            2.6065    -6.0147    -0.8512 C.ar    
  20 C20            3.7717    -6.7050    -1.1071 C.ar    
  21 C21            5.0873    -5.9942    -1.2953 C.3     
  22 C22            4.9905    -4.5663    -0.7574 C.3     
  23 C23            1.4165    -6.7096    -0.6904 C.ar    
  24 C24            1.3942    -8.0864    -0.7834 C.ar    
  25 C25            2.5638    -8.7784    -1.0379 C.ar    
  26 C26            3.7485    -8.0886    -1.1986 C.ar    
  27 C27            6.2157    -3.7882    -1.1630 C.2     
  28 O28            6.2515    -3.2338    -2.2359 O.2     
  29 O29            7.2672    -3.7111    -0.3323 O.3     
  30 C30            8.4130    -2.9448    -0.7886 C.3     
  31 H31           -0.3391     1.9135     1.7896 H       
  32 H32           -0.4160    -0.5493     1.4763 H       
  33 H33            1.6357    -1.7592     0.8901 H       
  34 H34            1.7514     3.1115     1.5271 H       
  35 H35            6.1134    -0.5105     0.1394 H       
  36 H36            7.3154     3.9553     0.4985 H       
  37 H37            4.9332    -2.5947     0.7055 H       
  38 H38            3.1651    -2.5820     0.9111 H       
  39 H39            2.8894    -2.0424    -1.4934 H       
  40 H40            4.6574    -2.0550    -1.6990 H       
  41 H41            2.5236    -4.2326     0.3141 H       
  42 H42            1.7053    -4.1276    -1.2603 H       
  43 H43            5.8689    -6.5311    -0.7577 H       
  44 H44            5.3345    -5.9652    -2.3565 H       
  45 H45            4.9107    -4.5890     0.3295 H       
  46 H46            0.5024    -6.1700    -0.4910 H       
  47 H47            0.4650    -8.6222    -0.6574 H       
  48 H48            2.5506    -9.8559    -1.1099 H       
  49 H49            4.6622    -8.6292    -1.3971 H       
  50 H50            9.1901    -2.9632    -0.0245 H       
  51 H51            8.7988    -3.3818    -1.7097 H       
  52 H52            8.1103    -1.9143    -0.9744 H       
@<TRIPOS>BOND
   1    1    2 1
   2    1    6 2
   3    1   31 1
   4    2    3 2
   5    2   32 1
   6    3    4 1
   7    3   33 1
   8    4    5 1
   9    4    7 2
  10    5    6 1
  11    5   10 am
  12    6   34 1
  13    7    8 1
  14    7   15 1
  15    8    9 2
  16    8   35 1
  17    9   10 1
  18    9   12 1
  19   10   11 2
  20   12   13 1
  21   12   14 2
  22   13   36 1
  23   15   16 1
  24   15   37 1
  25   15   38 1
  26   16   17 1
  27   16   39 1
  28   16   40 1
  29   17   18 1
  30   17   22 1
  31   18   19 1
  32   18   41 1
  33   18   42 1
  34   19   20 ar
  35   19   23 ar
  36   20   21 1
  37   20   26 ar
  38   21   22 1
  39   21   43 1
  40   21   44 1
  41   22   27 1
  42   22   45 1
  43   23   24 ar
  44   23   46 1
  45   24   25 ar
  46   24   47 1
  47   25   26 ar
  48   25   48 1
  49   26   49 1
  50   27   28 2
  51   27   29 1
  52   29   30 1
  53   30   50 1
  54   30   51 1
  55   30   52 1

#	End of record

