#	Name: ASD00069286
#	Creating user name:	WinNT
#	Creation time:	15. 06. 2019 18:29

#	Modifying user name:	WinNT
#	Modification time:	15. 06. 2019 18:29

#	Program:	/corina/corina34_cracker 3.40 0067  02.08.2006

@<TRIPOS>MOLECULE
ASD00069286
  64   66    0    0    0
SMALL
NO_CHARGES


@<TRIPOS>ATOM
   1 C1            -0.6644     1.6730    -0.2421 C.2     
   2 N2            -0.6137     0.4588    -0.8249 N.am    
   3 O3             0.3111     2.1111     0.3351 O.2     
   4 O4            -1.7942     2.4030    -0.3041 O.3     
   5 C5             0.5920    -0.2559    -0.8521 C.ar    
   6 C6             0.5781    -1.6421    -0.7802 C.ar    
   7 C7             1.7707    -2.3480    -0.8072 C.ar    
   8 C8             2.9818    -1.6626    -0.9065 C.ar    
   9 C9             2.9894    -0.2781    -0.9779 C.ar    
  10 C10            1.7982     0.4230    -0.9565 C.ar    
  11 C11            0.8111    -4.3764    -0.0139 C.2     
  12 O12           -0.0875    -3.7372     0.4991 O.2     
  13 N13            1.7600    -3.7464    -0.7345 N.am    
  14 C14            0.8623    -5.8398     0.1522 C.2     
  15 N15            1.7781    -6.6409    -0.3496 N.2     
  16 C16            1.5049    -7.8945     0.0045 C.2     
  17 C17            0.3773    -7.8902     0.7569 C.2     
  18 N18           -0.0297    -6.5969     0.8588 N.pl3   
  19 N19            4.1894    -2.3729    -0.9335 N.3     
  20 C20            4.9263    -2.1109    -2.1764 C.3     
  21 C21            6.1632    -3.0101    -2.2369 C.3     
  22 C22            7.0539    -2.7269    -1.0241 C.3     
  23 C23            6.2482    -2.9606     0.2567 C.3     
  24 C24            5.0088    -2.0628     0.2450 C.3     
  25 N25            8.2138    -3.6281    -1.0458 N.3     
  26 C26            9.0323    -3.4617     0.1626 C.3     
  27 C27            7.5252    -1.2962    -1.0686 C.2     
  28 N28            8.5771    -0.9568    -1.8398 N.am    
  29 O29            6.9580    -0.4501    -0.4104 O.2     
  30 C30           -1.7767     3.7013     0.3458 C.3     
  31 C31           -0.6890     4.5729    -0.2850 C.3     
  32 C32           -3.1378     4.3778     0.1705 C.3     
  33 C33           -1.4850     3.5212     1.8369 C.3     
  34 H34           -1.4115     0.0795    -1.2255 H       
  35 H35           -0.3609    -2.1700    -0.7031 H       
  36 H36            3.9267     0.2530    -1.0544 H       
  37 H37            1.8063     1.5013    -1.0170 H       
  38 H38            2.4355    -4.2616    -1.2026 H       
  39 H39            2.0829    -8.7668    -0.2628 H       
  40 H40           -0.1046    -8.7513     1.1959 H       
  41 H41           -0.8072    -6.2731     1.3399 H       
  42 H42            4.2830    -2.3202    -3.0311 H       
  43 H43            5.2354    -1.0659    -2.2020 H       
  44 H44            5.8541    -4.0553    -2.2253 H       
  45 H45            6.7183    -2.8043    -3.1521 H       
  46 H46            5.9404    -4.0050     0.3076 H       
  47 H47            6.8640    -2.7195     1.1232 H       
  48 H48            5.3175    -1.0181     0.2080 H       
  49 H49            4.4254    -2.2372     1.1490 H       
  50 H50            7.9238    -4.5881    -1.1568 H       
  51 H51            9.9356    -4.0656     0.0756 H       
  52 H52            9.3061    -2.4126     0.2745 H       
  53 H53            8.4627    -3.7835     1.0345 H       
  54 H54            8.9854    -1.6173    -2.4212 H       
  55 H55            8.9260    -0.0521    -1.8135 H       
  56 H56           -0.8968     4.7012    -1.3473 H       
  57 H57           -0.6758     5.5475     0.2029 H       
  58 H58            0.2807     4.0909    -0.1601 H       
  59 H59           -3.9128     3.7568     0.6199 H       
  60 H60           -3.1247     5.3524     0.6585 H       
  61 H61           -3.3456     4.5061    -0.8918 H       
  62 H62           -0.5154     3.0393     1.9619 H       
  63 H63           -1.4719     4.4958     2.3249 H       
  64 H64           -2.2600     2.9003     2.2864 H       
@<TRIPOS>BOND
   1    1    2 am
   2    1    3 2
   3    1    4 1
   4    2    5 1
   5    2   34 1
   6    4   30 1
   7    5    6 ar
   8    5   10 ar
   9    6    7 ar
  10    6   35 1
  11    7    8 ar
  12    7   13 1
  13    8    9 ar
  14    8   19 1
  15    9   10 ar
  16    9   36 1
  17   10   37 1
  18   11   12 2
  19   11   13 am
  20   11   14 1
  21   13   38 1
  22   14   15 2
  23   14   18 1
  24   15   16 1
  25   16   17 2
  26   16   39 1
  27   17   18 1
  28   17   40 1
  29   18   41 1
  30   19   20 1
  31   19   24 1
  32   20   21 1
  33   20   42 1
  34   20   43 1
  35   21   22 1
  36   21   44 1
  37   21   45 1
  38   22   23 1
  39   22   25 1
  40   22   27 1
  41   23   24 1
  42   23   46 1
  43   23   47 1
  44   24   48 1
  45   24   49 1
  46   25   26 1
  47   25   50 1
  48   26   51 1
  49   26   52 1
  50   26   53 1
  51   27   28 am
  52   27   29 2
  53   28   54 1
  54   28   55 1
  55   30   31 1
  56   30   33 1
  57   30   32 1
  58   31   56 1
  59   31   57 1
  60   31   58 1
  61   32   59 1
  62   32   60 1
  63   32   61 1
  64   33   62 1
  65   33   63 1
  66   33   64 1

#	End of record

