#	Name: ASD04910113
#	Creating user name:	WinNT
#	Creation time:	15. 06. 2019 20:55

#	Modifying user name:	WinNT
#	Modification time:	15. 06. 2019 20:55

#	Program:	/corina/corina34_cracker 3.40 0067  02.08.2006

@<TRIPOS>MOLECULE
ASD04910113
  24   25    0    0    0
SMALL
NO_CHARGES


@<TRIPOS>ATOM
   1 N1            -0.0169     1.3939     0.0097 N.pl3   
   2 C2             0.0021    -0.0041     0.0020 C.ar    
   3 C3             1.2142    -0.6824    -0.0132 C.ar    
   4 C4             1.2324    -2.0627    -0.0203 C.ar    
   5 C5             0.0396    -2.7729    -0.0127 C.ar    
   6 C6            -1.1720    -2.0954     0.0020 C.ar    
   7 C7            -1.1911    -0.7151     0.0154 C.ar    
   8 C8             1.1615    -4.9687    -0.0347 C.2     
   9 N9             0.7773    -6.2163    -0.0383 N.2     
  10 C10           -0.5628    -6.2684    -0.0267 C.2     
  11 C11           -1.0324    -5.0062    -0.0154 C.2     
  12 N12            0.0587    -4.1766    -0.0204 N.pl3   
  13 C13           -1.3986    -7.5224    -0.0268 C.3     
  14 F14           -0.5630    -8.6398     0.0746 F       
  15 F15           -2.2775    -7.4971     1.0614 F       
  16 F16           -2.1313    -7.5944    -1.2164 F       
  17 H17            0.8165     1.8903     0.0044 H       
  18 H18           -0.8634     1.8675     0.0163 H       
  19 H19            2.1422    -0.1299    -0.0198 H       
  20 H20            2.1748    -2.5902    -0.0321 H       
  21 H21           -2.0997    -2.6483     0.0072 H       
  22 H22           -2.1337    -0.1882     0.0317 H       
  23 H23            2.1851    -4.6243    -0.0379 H       
  24 H24           -2.0696    -4.7054    -0.0050 H       
@<TRIPOS>BOND
   1    1    2 1
   2    1   17 1
   3    1   18 1
   4    2    3 ar
   5    2    7 ar
   6    3    4 ar
   7    3   19 1
   8    4    5 ar
   9    4   20 1
  10    5    6 ar
  11    5   12 1
  12    6    7 ar
  13    6   21 1
  14    7   22 1
  15    8    9 2
  16    8   12 1
  17    8   23 1
  18    9   10 1
  19   10   11 2
  20   10   13 1
  21   11   12 1
  22   11   24 1
  23   13   14 1
  24   13   15 1
  25   13   16 1

#	End of record

