#	Name: ASD01812214
#	Creating user name:	WinNT
#	Creation time:	15. 06. 2019 19:28

#	Modifying user name:	WinNT
#	Modification time:	15. 06. 2019 19:28

#	Program:	/corina/corina34_cracker 3.40 0067  02.08.2006

@<TRIPOS>MOLECULE
ASD01812214
  69   74    0    0    0
SMALL
NO_CHARGES


@<TRIPOS>ATOM
   1 C1             0.2189     1.0815    -0.2036 C.2     
   2 C2             0.5682    -0.2230    -0.1929 C.2     
   3 C3             1.9155    -0.5557     0.0313 C.2     
   4 C4             2.8300     0.5026     0.2334 C.2     
   5 C5             2.3653     1.8332     0.2033 C.2     
   6 N6             1.1672     2.0805     0.0021 N.3     
   7 C7             4.1915     0.2343     0.4631 C.2     
   8 C8             5.0644     1.2622     0.6571 C.2     
   9 C9             4.6050     2.5875     0.6277 C.2     
  10 C10            3.2466     2.8509     0.3979 C.2     
  11 C11            4.6843    -1.1895     0.4950 C.3     
  12 C12            5.2991     3.8734     0.8007 C.2     
  13 N13            4.4320     4.8936     0.6878 N.am    
  14 C14            3.0932     4.3515     0.4300 C.3     
  15 O15            6.4900     3.9956     1.0162 O.2     
  16 C16            4.7683     6.3147     0.8038 C.3     
  17 C17            5.7930     6.6856    -0.2702 C.3     
  18 C18            6.1442     8.1698    -0.1491 C.3     
  19 C19            6.7350     8.4428     1.2356 C.3     
  20 C20            5.7103     8.0719     2.3095 C.3     
  21 C21            5.3591     6.5877     2.1884 C.3     
  22 N22            4.4930    -1.7438     1.8419 N.3     
  23 C23            4.7382    -3.1916     1.8549 C.3     
  24 C24            4.3898    -3.7570     3.2336 C.3     
  25 C25            5.2492    -3.0654     4.2955 C.3     
  26 C26            5.0113    -1.5542     4.2285 C.3     
  27 C27            5.3417    -1.0527     2.8209 C.3     
  28 O28            5.2411     6.4306    -1.5634 O.3     
  29 C29            4.8628    -3.5828     5.6826 C.3     
  30 C30            5.0226    -5.0812     5.9474 C.3     
  31 C31            5.9892    -4.0836     6.5888 C.3     
  32 C32            1.1082     2.9686    -1.1666 C.3     
  33 H33           -0.8112     1.3545    -0.3789 H       
  34 H34           -0.1713    -0.9937    -0.3527 H       
  35 H35            2.2407    -1.5854     0.0488 H       
  36 H36            0.8472     2.6281     0.7868 H       
  37 H37            6.1098     1.0568     0.8338 H       
  38 H38            4.1234    -1.7844    -0.2258 H       
  39 H39            5.7437    -1.2131     0.2396 H       
  40 H40            2.7216     4.7109    -0.5296 H       
  41 H41            2.4110     4.6415     1.2292 H       
  42 H42            3.8675     6.9134     0.6686 H       
  43 H43            6.6938     6.0869    -0.1350 H       
  44 H44            6.8742     8.4340    -0.9142 H       
  45 H45            5.2434     8.7685    -0.2842 H       
  46 H46            7.6358     7.8441     1.3707 H       
  47 H47            6.9852     9.5002     1.3218 H       
  48 H48            6.1313     8.2664     3.2959 H       
  49 H49            4.8095     8.6706     2.1744 H       
  50 H50            4.6291     6.3235     2.9535 H       
  51 H51            6.2599     5.9890     2.3235 H       
  52 H52            4.1179    -3.6718     1.0981 H       
  53 H53            5.7891    -3.3839     1.6384 H       
  54 H54            3.3357    -3.5773     3.4449 H       
  55 H55            4.5868    -4.8290     3.2477 H       
  56 H56            6.3017    -3.2771     4.1069 H       
  57 H57            3.9670    -1.3398     4.4554 H       
  58 H58            5.6523    -1.0524     4.9534 H       
  59 H59            6.3897    -1.2550     2.5999 H       
  60 H60            5.1597     0.0206     2.7657 H       
  61 H61            5.8374     6.6433    -2.2944 H       
  62 H62            4.0231    -3.0746     6.1567 H       
  63 H63            4.2883    -5.5587     6.5961 H       
  64 H64            5.4030    -5.6983     5.1335 H       
  65 H65            7.0055    -4.0444     6.1969 H       
  66 H66            5.8908    -3.9048     7.6596 H       
  67 H67            1.8010     2.6123    -1.9290 H       
  68 H68            0.0954     2.9725    -1.5693 H       
  69 H69            1.3846     3.9800    -0.8687 H       
@<TRIPOS>BOND
   1    1    2 2
   2    1    6 1
   3    1   33 1
   4    2    3 1
   5    2   34 1
   6    3    4 2
   7    3   35 1
   8    4    5 1
   9    4    7 1
  10    5    6 2
  11    5   10 1
  12    6   32 1
  13    6   36 1
  14    7    8 2
  15    7   11 1
  16    8    9 1
  17    8   37 1
  18    9   10 2
  19    9   12 1
  20   10   14 1
  21   11   22 1
  22   11   38 1
  23   11   39 1
  24   12   13 am
  25   12   15 2
  26   13   14 1
  27   13   16 1
  28   14   40 1
  29   14   41 1
  30   16   17 1
  31   16   21 1
  32   16   42 1
  33   17   18 1
  34   17   28 1
  35   17   43 1
  36   18   19 1
  37   18   44 1
  38   18   45 1
  39   19   20 1
  40   19   46 1
  41   19   47 1
  42   20   21 1
  43   20   48 1
  44   20   49 1
  45   21   50 1
  46   21   51 1
  47   22   23 1
  48   22   27 1
  49   23   24 1
  50   23   52 1
  51   23   53 1
  52   24   25 1
  53   24   54 1
  54   24   55 1
  55   25   26 1
  56   25   29 1
  57   25   56 1
  58   26   27 1
  59   26   57 1
  60   26   58 1
  61   27   59 1
  62   27   60 1
  63   28   61 1
  64   29   30 1
  65   29   31 1
  66   29   62 1
  67   30   31 1
  68   30   63 1
  69   30   64 1
  70   31   65 1
  71   31   66 1
  72   32   67 1
  73   32   68 1
  74   32   69 1

#	End of record

