#	Name: ASD08070231
#	Creating user name:	WinNT
#	Creation time:	15. 06. 2019 21:14

#	Modifying user name:	WinNT
#	Modification time:	15. 06. 2019 21:14

#	Program:	/corina/corina34_cracker 3.40 0067  02.08.2006

@<TRIPOS>MOLECULE
ASD08070231
  27   28    0    0    0
SMALL
NO_CHARGES


@<TRIPOS>ATOM
   1 C1            -0.0175     1.3934     0.0529 C.ar    
   2 C2             0.0021    -0.0028     0.0135 C.ar    
   3 C3            -1.2625    -0.7622    -0.0009 C.2     
   4 N4            -2.4411    -0.1090     0.0238 N.am    
   5 C5            -3.6925    -2.1531     0.3244 C.ar    
   6 O6            -1.2415    -1.9776    -0.0352 O.2     
   7 C7            -3.6410    -0.8251    -0.0747 C.ar    
   8 C8             1.2301    -0.6781    -0.0126 C.ar    
   9 C9             2.4129     0.0452     0.0009 C.ar    
  10 C10            2.3804     1.4252     0.0398 C.ar    
  11 C11            1.1686     2.0974     0.0658 C.ar    
  12 C12           -4.7828    -0.2061    -0.5724 C.ar    
  13 C13           -5.9656    -0.9155    -0.6680 C.ar    
  14 C14           -6.0131    -2.2407    -0.2682 C.ar    
  15 C15           -4.8772    -2.8578     0.2273 C.ar    
  16 F16           -4.7362     1.0868    -0.9615 F       
  17 F17           -7.1700    -2.9323    -0.3615 F       
  18 O18            1.2612    -2.0340    -0.0505 O.3     
  19 Cl19           1.1434     3.8325     0.1147 Cl      
  20 H20           -0.9598     1.9208     0.0687 H       
  21 H21           -2.4585     0.8571     0.1100 H       
  22 H22           -2.8060    -2.6370     0.7069 H       
  23 H23            3.3611    -0.4715    -0.0188 H       
  24 H24            3.3046     1.9840     0.0502 H       
  25 H25           -6.8530    -0.4361    -1.0543 H       
  26 H26           -4.9169    -3.8913     0.5380 H       
  27 H27            1.2649    -2.4025    -0.9445 H       
@<TRIPOS>BOND
   1    1    2 ar
   2    1   11 ar
   3    1   20 1
   4    2    3 1
   5    2    8 ar
   6    3    4 am
   7    3    6 2
   8    4    7 1
   9    4   21 1
  10    5    7 ar
  11    5   15 ar
  12    5   22 1
  13    7   12 ar
  14    8    9 ar
  15    8   18 1
  16    9   10 ar
  17    9   23 1
  18   10   11 ar
  19   10   24 1
  20   11   19 1
  21   12   13 ar
  22   12   16 1
  23   13   14 ar
  24   13   25 1
  25   14   15 ar
  26   14   17 1
  27   15   26 1
  28   18   27 1

#	End of record

