#	Name: ASD00350007
#	Creating user name:	WinNT
#	Creation time:	15. 06. 2019 18:35

#	Modifying user name:	WinNT
#	Modification time:	15. 06. 2019 18:35

#	Program:	/corina/corina34_cracker 3.40 0067  02.08.2006

@<TRIPOS>MOLECULE
ASD00350007
  51   53    0    0    0
SMALL
NO_CHARGES


@<TRIPOS>ATOM
   1 N1            -0.0178     1.4648     0.0101 N.3     
   2 C2             0.0021    -0.0041     0.0020 C.3     
   3 C3             0.7074    -0.4901    -1.2379 C.2     
   4 O4             1.4504     0.2491    -1.8392 O.2     
   5 C5             0.7421    -0.5109     1.2415 C.3     
   6 C6            -0.0416    -0.1236     2.4973 C.3     
   7 S7             0.8338    -0.7232     3.9636 Du      
   8 C8            -0.4590    -0.0253     5.0208 C.3     
   9 C9             1.7092    -1.3228     5.4300 C.3     
  10 C10            2.9862    -2.0480     5.0006 C.3     
  11 O11            3.8994    -1.1156     4.4102 O.3     
  12 C12            3.6800    -2.6623     6.2354 C.3     
  13 O13            3.4084    -4.0622     6.3274 O.3     
  14 C14            5.1815    -2.4096     5.9295 C.3     
  15 O15            5.7136    -3.4305     5.0830 O.3     
  16 C16            5.1060    -1.0517     5.1870 C.3     
  17 O17            0.5104    -1.7441    -1.6742 O.3     
  18 N18           10.0164     0.5810     4.7392 N.ar    
  19 C19            9.2323     0.6050     5.8014 C.ar    
  20 N20            7.9954     0.1550     5.7769 N.ar    
  21 C21            7.4805    -0.3503     4.6608 C.ar    
  22 C22            8.2750    -0.3981     3.5027 C.ar    
  23 C23            9.5887     0.0945     3.5787 C.ar    
  24 N24           10.4178     0.0741     2.4708 N.pl3   
  25 N25            7.5198    -0.9507     2.5231 N.2     
  26 C26            6.3414    -1.2381     2.9946 C.2     
  27 N27            6.2675    -0.8866     4.3096 N.pl3   
  28 H28            0.9191     1.8392     0.0032 H       
  29 H29           -0.5563     1.8234    -0.7642 H       
  30 H30           -1.0205    -0.3814     0.0098 H       
  31 H31            0.8346    -1.5958     1.1912 H       
  32 H32            1.7350    -0.0630     1.2804 H       
  33 H33           -0.1341     0.9613     2.5476 H       
  34 H34           -1.0345    -0.5716     2.4584 H       
  35 H35            0.7197    -2.0466     3.4906 H       
  36 H36           -0.1986     0.9998     5.2845 H       
  37 H37           -1.4089    -0.0329     4.4862 H       
  38 H38           -0.5480    -0.6225     5.9283 H       
  39 H39            1.9682    -0.4786     6.0691 H       
  40 H40            1.0677    -2.0115     5.9799 H       
  41 H41            2.7428    -2.8318     4.2834 H       
  42 H42            3.3750    -2.1489     7.1472 H       
  43 H43            3.8224    -4.4941     7.0871 H       
  44 H44            5.7607    -2.3236     6.8489 H       
  45 H45            5.6805    -4.3172     5.4675 H       
  46 H46            5.0520    -0.2315     5.9029 H       
  47 H47            0.9846    -2.0103    -2.4737 H       
  48 H48            9.6203     1.0087     6.7249 H       
  49 H49           11.3226     0.4173     2.5358 H       
  50 H50           10.0940    -0.2836     1.6293 H       
  51 H51            5.5400    -1.6882     2.4275 H       
@<TRIPOS>BOND
   1    1    2 1
   2    1   28 1
   3    1   29 1
   4    2    3 1
   5    2    5 1
   6    2   30 1
   7    3    4 2
   8    3   17 1
   9    5    6 1
  10    5   31 1
  11    5   32 1
  12    6    7 1
  13    6   33 1
  14    6   34 1
  15    7    8 1
  16    7    9 1
  17    7   35 1
  18    8   36 1
  19    8   37 1
  20    8   38 1
  21    9   10 1
  22    9   39 1
  23    9   40 1
  24   10   11 1
  25   10   12 1
  26   10   41 1
  27   11   16 1
  28   12   13 1
  29   12   14 1
  30   12   42 1
  31   13   43 1
  32   14   15 1
  33   14   16 1
  34   14   44 1
  35   15   45 1
  36   16   27 1
  37   16   46 1
  38   17   47 1
  39   18   19 ar
  40   18   23 ar
  41   19   20 ar
  42   19   48 1
  43   20   21 ar
  44   21   22 ar
  45   21   27 1
  46   22   23 ar
  47   22   25 1
  48   23   24 1
  49   24   49 1
  50   24   50 1
  51   25   26 2
  52   26   27 1
  53   26   51 1

#	End of record

