#	Name: ASD01881398
#	Creating user name:	WinNT
#	Creation time:	15. 06. 2019 19:42

#	Modifying user name:	WinNT
#	Modification time:	15. 06. 2019 19:42

#	Program:	/corina/corina34_cracker 3.40 0067  02.08.2006

@<TRIPOS>MOLECULE
ASD01881398
  50   54    0    0    0
SMALL
NO_CHARGES


@<TRIPOS>ATOM
   1 C1             0.1859     1.6017    -1.1397 C.ar    
   2 C2             0.2902     0.3183    -1.6342 C.ar    
   3 C3             1.2583     2.1812    -0.4763 C.ar    
   4 C4             2.4420     1.4702    -0.3077 C.ar    
   5 C5             2.5523     0.1857    -0.8003 C.ar    
   6 C6             1.4749    -0.3983    -1.4674 C.ar    
   7 C7             1.5892    -1.7771    -1.9972 C.2     
   8 C8             0.8016    -2.7899    -1.4828 C.2     
   9 C9             2.5022    -2.0692    -3.0397 C.2     
  10 C10            2.6041    -3.3226    -3.5200 C.2     
  11 N11            1.8339    -4.3301    -3.0144 N.pl3   
  12 C12            0.9324    -4.0874    -2.0062 C.2     
  13 C13            1.7267    -5.6579    -3.2969 C.2     
  14 N14            0.8207    -6.1589    -2.4976 N.2     
  15 N15            0.3440    -5.2416    -1.7315 N.2     
  16 C16            2.5088    -6.4125    -4.3409 C.3     
  17 C17            3.7957    -6.9580    -3.7187 C.3     
  18 F18            3.4842     2.0374     0.3382 F       
  19 O19            1.1521     3.4460     0.0091 O.3     
  20 C20           -0.0530     4.0639    -0.0810 C.ar    
  21 C21           -1.0008     3.9322     0.9315 C.ar    
  22 C22           -0.3714     4.8506    -1.1853 C.ar    
  23 C23           -1.6072     5.4621    -1.2393 C.ar    
  24 N24           -2.4806     5.3091    -0.2623 N.ar    
  25 C25           -2.2139     4.5760     0.8024 C.ar    
  26 C26           -3.2497     4.4363     1.8880 C.3     
  27 C27            4.6756    -7.8570    -4.5897 C.3     
  28 C28            5.1236    -6.4304    -4.2657 C.3     
  29 C29           -0.1822    -2.5070    -0.3769 C.3     
  30 F30           -1.4450    -2.2627    -0.9273 F       
  31 F31           -0.2522    -3.6115     0.4789 F       
  32 F32            0.2372    -1.3840     0.3444 F       
  33 H33           -0.7301     2.1580    -1.2728 H       
  34 H34           -0.5453    -0.1315    -2.1499 H       
  35 H35            3.4712    -0.3665    -0.6698 H       
  36 H36            3.1186    -1.2835    -3.4511 H       
  37 H37            3.3035    -3.5337    -4.3154 H       
  38 H38            1.9078    -7.2403    -4.7172 H       
  39 H39            2.7585    -5.7417    -5.1630 H       
  40 H40            3.7440    -7.1839    -2.6537 H       
  41 H41           -0.7889     3.3338     1.8052 H       
  42 H42            0.3393     4.9805    -1.9881 H       
  43 H43           -1.8625     6.0740    -2.0919 H       
  44 H44           -3.8839     3.5754     1.6765 H       
  45 H45           -2.7531     4.2947     2.8479 H       
  46 H46           -3.8613     5.3378     1.9249 H       
  47 H47            5.2029    -8.6742    -4.0975 H       
  48 H48            4.3375    -8.0598    -5.6059 H       
  49 H49            5.0804    -5.6947    -5.0689 H       
  50 H50            5.9458    -6.3090    -3.5605 H       
@<TRIPOS>BOND
   1    1    2 ar
   2    1    3 ar
   3    1   33 1
   4    2    6 ar
   5    2   34 1
   6    3    4 ar
   7    3   19 1
   8    4    5 ar
   9    4   18 1
  10    5    6 ar
  11    5   35 1
  12    6    7 1
  13    7    8 2
  14    7    9 1
  15    8   29 1
  16    8   12 1
  17    9   10 2
  18    9   36 1
  19   10   11 1
  20   10   37 1
  21   11   12 1
  22   11   13 1
  23   12   15 2
  24   13   14 2
  25   13   16 1
  26   14   15 1
  27   16   17 1
  28   16   38 1
  29   16   39 1
  30   17   27 1
  31   17   28 1
  32   17   40 1
  33   19   20 1
  34   20   21 ar
  35   20   22 ar
  36   21   25 ar
  37   21   41 1
  38   22   23 ar
  39   22   42 1
  40   23   24 ar
  41   23   43 1
  42   24   25 ar
  43   25   26 1
  44   26   44 1
  45   26   45 1
  46   26   46 1
  47   27   28 1
  48   27   47 1
  49   27   48 1
  50   28   49 1
  51   28   50 1
  52   29   30 1
  53   29   31 1
  54   29   32 1

#	End of record

