#	Name: ASD07130009
#	Creating user name:	WinNT
#	Creation time:	15. 06. 2019 21:09

#	Modifying user name:	WinNT
#	Modification time:	15. 06. 2019 21:09

#	Program:	/corina/corina34_cracker 3.40 0067  02.08.2006

@<TRIPOS>MOLECULE
ASD07130009
  29   28    0    0    0
SMALL
NO_CHARGES


@<TRIPOS>ATOM
   1 C1            -0.0187     1.5258     0.0104 C.3     
   2 C2             1.4167     2.0553    -0.0004 C.3     
   3 C3             1.3960     3.5852     0.0080 C.3     
   4 S4             3.0940     4.2117    -0.0049 S.3     
   5 C5             2.7806     5.9455     0.0074 C.2     
   6 N6             3.8305     6.8344     0.0022 N.pl3   
   7 N7             1.5531     6.3862     0.0215 N.2     
   8 C8             0.0021    -0.0041     0.0020 C.3     
   9 C9            -1.4333    -0.5336     0.0129 C.3     
  10 S10           -1.4088    -2.3435     0.0029 S.3     
  11 C11           -3.1396    -2.6730     0.0177 C.2     
  12 N12           -3.5925    -3.9720     0.0150 N.pl3   
  13 N13           -3.9914    -1.6854     0.0311 N.2     
  14 H14           -0.5289     1.8773     0.9072 H       
  15 H15           -0.5459     1.8868    -0.8726 H       
  16 H16            1.9439     1.6943     0.8826 H       
  17 H17            1.9269     1.7038    -0.8972 H       
  18 H18            0.8688     3.9463    -0.8751 H       
  19 H19            0.8858     3.9367     0.9048 H       
  20 H20            4.7434     6.5067    -0.0083 H       
  21 H21            3.6579     7.7889     0.0090 H       
  22 H22            1.3805     7.3407     0.0283 H       
  23 H23            0.5123    -0.3556    -0.8948 H       
  24 H24            0.5293    -0.3651     0.8851 H       
  25 H25           -1.9435    -0.1821     0.9097 H       
  26 H26           -1.9605    -0.1726    -0.8702 H       
  27 H27           -2.9590    -4.7065     0.0050 H       
  28 H28           -4.5454    -4.1534     0.0232 H       
  29 H29           -4.9443    -1.8668     0.0392 H       
@<TRIPOS>BOND
   1    1    8 1
   2    1    2 1
   3    1   14 1
   4    1   15 1
   5    2    3 1
   6    2   16 1
   7    2   17 1
   8    3    4 1
   9    3   18 1
  10    3   19 1
  11    4    5 1
  12    5    6 1
  13    5    7 2
  14    6   20 1
  15    6   21 1
  16    7   22 1
  17    8    9 1
  18    8   23 1
  19    8   24 1
  20    9   10 1
  21    9   25 1
  22    9   26 1
  23   10   11 1
  24   11   12 1
  25   11   13 2
  26   12   27 1
  27   12   28 1
  28   13   29 1

#	End of record

