#	Name: ASD04590643
#	Creating user name:	WinNT
#	Creation time:	15. 06. 2019 20:51

#	Modifying user name:	WinNT
#	Modification time:	15. 06. 2019 20:51

#	Program:	/corina/corina34_cracker 3.40 0067  02.08.2006

@<TRIPOS>MOLECULE
ASD04590643
  65   70    0    0    0
SMALL
NO_CHARGES


@<TRIPOS>ATOM
   1 N1            -0.0170     1.3232    -0.0110 N.ar    
   2 C2             0.0017    -0.0035    -0.0048 C.ar    
   3 N3             1.1298    -0.6949    -0.0122 N.ar    
   4 C4             2.3050    -0.0728    -0.0263 C.ar    
   5 C5             2.3189     1.3366    -0.0332 C.ar    
   6 C6             1.1072     2.0202    -0.0250 C.ar    
   7 N7             3.6030    -0.5192    -0.0364 N.pl3   
   8 C8             4.4821     0.5504    -0.0499 C.ar    
   9 C9             3.7312     1.7386    -0.0485 C.ar    
  10 C10            5.8694     0.6431    -0.0634 C.ar    
  11 N11            6.4621     1.8205    -0.0743 N.ar    
  12 C12            5.7844     2.9553    -0.0733 C.ar    
  13 C13            4.4063     2.9593    -0.0611 C.ar    
  14 N14           -1.2019    -0.6887     0.0103 N.pl3   
  15 C15           -2.4022     0.0122     0.1313 C.ar    
  16 C16            4.0020    -1.9289    -0.0334 C.3     
  17 C17            3.4009    -2.6456     1.1933 C.3     
  18 C18            3.4388    -2.6388    -1.2770 C.3     
  19 C19            2.5150    -3.7621    -0.7626 C.3     
  20 C20            2.1016    -3.2947     0.6550 C.3     
  21 N21           -2.3889     1.3195     0.3318 N.ar    
  22 N22           -3.4682     2.0043     0.4486 N.ar    
  23 C23           -4.6666     1.4484     0.3762 C.ar    
  24 C24           -4.7831     0.0734     0.1663 C.ar    
  25 C25           -3.6194    -0.6637     0.0353 C.ar    
  26 N26           -5.8097     2.2336     0.5095 N.3     
  27 C27           -6.6698     1.7320     1.5888 C.3     
  28 C28           -7.9780     2.5258     1.6110 C.3     
  29 C29           -5.4579     3.6433     0.7225 C.3     
  30 C30           -6.7300     4.4941     0.7188 C.3     
  31 C31           -7.6659     4.0088     1.8292 C.3     
  32 Cl32           6.8288    -0.8036    -0.0655 Cl      
  33 N33           -8.9135     4.7835     1.7932 N.3     
  34 C34           -9.8371     4.3436     2.8474 C.3     
  35 C35           -8.6423     6.2235     1.8981 C.3     
  36 H36            1.0849     3.1000    -0.0300 H       
  37 H37            6.3188     3.8938    -0.0821 H       
  38 H38            3.8591     3.8904    -0.0604 H       
  39 H39           -1.2103    -1.6559    -0.0632 H       
  40 H40            5.0890    -2.0089    -0.0179 H       
  41 H41            4.0850    -3.4100     1.5617 H       
  42 H42            3.1708    -1.9271     1.9801 H       
  43 H43            2.8686    -1.9345    -1.8827 H       
  44 H44            4.2523    -3.0641    -1.8646 H       
  45 H45            1.6384    -3.8585    -1.4032 H       
  46 H46            3.0561    -4.7069    -0.7101 H       
  47 H47            1.8100    -4.1445     1.2722 H       
  48 H48            1.2972    -2.5612     0.6007 H       
  49 H49           -5.7518    -0.4000     0.1041 H       
  50 H50           -3.6521    -1.7307    -0.1284 H       
  51 H51           -6.8876     0.6775     1.4193 H       
  52 H52           -6.1583     1.8481     2.5444 H       
  53 H53           -8.4967     2.3990     0.6607 H       
  54 H54           -8.6097     2.1636     2.4222 H       
  55 H55           -4.9521     3.7504     1.6821 H       
  56 H56           -4.7955     3.9770    -0.0762 H       
  57 H57           -6.4699     5.5383     0.8925 H       
  58 H58           -7.2290     4.3983    -0.2455 H       
  59 H59           -7.1820     4.1407     2.7970 H       
  60 H60           -9.3683     4.4812     3.8218 H       
  61 H61          -10.7524     4.9334     2.7980 H       
  62 H62          -10.0759     3.2897     2.7047 H       
  63 H63           -8.0125     6.5362     1.0653 H       
  64 H64           -9.5829     6.7734     1.8689 H       
  65 H65           -8.1302     6.4291     2.8381 H       
@<TRIPOS>BOND
   1    1    2 ar
   2    1    6 ar
   3    2    3 ar
   4    2   14 1
   5    3    4 ar
   6    4    5 ar
   7    4    7 1
   8    5    6 ar
   9    5    9 1
  10    6   36 1
  11    7    8 1
  12    7   16 1
  13    8    9 ar
  14    8   10 ar
  15    9   13 ar
  16   10   11 ar
  17   10   32 1
  18   11   12 ar
  19   12   13 ar
  20   12   37 1
  21   13   38 1
  22   14   15 1
  23   14   39 1
  24   15   21 ar
  25   15   25 ar
  26   16   18 1
  27   16   17 1
  28   16   40 1
  29   17   20 1
  30   17   41 1
  31   17   42 1
  32   18   19 1
  33   18   43 1
  34   18   44 1
  35   19   20 1
  36   19   45 1
  37   19   46 1
  38   20   47 1
  39   20   48 1
  40   21   22 ar
  41   22   23 ar
  42   23   24 ar
  43   23   26 1
  44   24   25 ar
  45   24   49 1
  46   25   50 1
  47   26   29 1
  48   26   27 1
  49   27   28 1
  50   27   51 1
  51   27   52 1
  52   28   31 1
  53   28   53 1
  54   28   54 1
  55   29   30 1
  56   29   55 1
  57   29   56 1
  58   30   31 1
  59   30   57 1
  60   30   58 1
  61   31   33 1
  62   31   59 1
  63   33   34 1
  64   33   35 1
  65   34   60 1
  66   34   61 1
  67   34   62 1
  68   35   63 1
  69   35   64 1
  70   35   65 1

#	End of record

