#	Name: ASD01140087
#	Creating user name:	WinNT
#	Creation time:	15. 06. 2019 18:59

#	Modifying user name:	WinNT
#	Modification time:	15. 06. 2019 18:59

#	Program:	/corina/corina34_cracker 3.40 0067  02.08.2006

@<TRIPOS>MOLECULE
ASD01140087
  25   25    0    0    0
SMALL
NO_CHARGES


@<TRIPOS>ATOM
   1 C1            -0.0183     1.4956     0.0103 C.2     
   2 C2             0.0021    -0.0041     0.0020 C.3     
   3 C3             1.3362    -0.5405     0.5188 C.3     
   4 C4             2.4788     0.1181    -0.2675 C.3     
   5 C5             2.4072     1.6079    -0.0028 C.2     
   6 C6             1.0825     2.2374     0.0037 C.2     
   7 C7             0.9701     3.7402     0.0030 C.3     
   8 O8             3.4117     2.2584     0.1973 O.2     
   9 C9             1.3874    -2.0343     0.3267 C.2     
  10 C10            1.2722    -2.6204    -1.0569 C.3     
  11 C11            1.5322    -2.8233     1.3623 C.2     
  12 H12           -0.9751     1.9964     0.0174 H       
  13 H13           -0.8025    -0.3759     0.6364 H       
  14 H14           -0.1549    -0.3580    -1.0169 H       
  15 H15            1.4387    -0.3040     1.5779 H       
  16 H16            3.4373    -0.2735     0.0732 H       
  17 H17            2.3555    -0.0757    -1.3330 H       
  18 H18            0.9374     4.1016    -1.0248 H       
  19 H19            0.0582     4.0365     0.5215 H       
  20 H20            1.8332     4.1694     0.5118 H       
  21 H21            2.2654    -2.7131    -1.4961 H       
  22 H22            0.8081    -3.6049    -0.9969 H       
  23 H23            0.6596    -1.9672    -1.6783 H       
  24 H24            1.5689    -3.8939     1.2246 H       
  25 H25            1.6148    -2.4033     2.3539 H       
@<TRIPOS>BOND
   1    1    2 1
   2    1    6 2
   3    1   12 1
   4    2    3 1
   5    2   13 1
   6    2   14 1
   7    3    4 1
   8    3    9 1
   9    3   15 1
  10    4    5 1
  11    4   16 1
  12    4   17 1
  13    5    6 1
  14    5    8 2
  15    6    7 1
  16    7   18 1
  17    7   19 1
  18    7   20 1
  19    9   10 1
  20    9   11 2
  21   10   21 1
  22   10   22 1
  23   10   23 1
  24   11   24 1
  25   11   25 1

#	End of record

