#	Name: ASD00069393
#	Creating user name:	WinNT
#	Creation time:	15. 06. 2019 18:29

#	Modifying user name:	WinNT
#	Modification time:	15. 06. 2019 18:29

#	Program:	/corina/corina34_cracker 3.40 0067  02.08.2006

@<TRIPOS>MOLECULE
ASD00069393
  50   51    0    0    0
SMALL
NO_CHARGES


@<TRIPOS>ATOM
   1 C1            -0.0168     1.3912     0.0097 C.ar    
   2 C2             0.0021    -0.0041     0.0020 C.ar    
   3 N3             1.1731    -0.6338    -0.0125 N.ar    
   4 C4             2.3073     0.0500    -0.0197 C.ar    
   5 N5             2.3207     1.3748    -0.0127 N.ar    
   6 C6             1.1900     2.0673     0.0018 C.ar    
   7 Cl7            1.2237     3.8029     0.0102 Cl      
   8 N8            -1.1823    -0.7230     0.0099 N.3     
   9 C9            -0.9209    -2.1679    -0.0004 C.3     
  10 C10           -2.0433    -0.3310    -1.1132 C.3     
  11 C11           -3.3962    -1.0357    -0.9907 C.3     
  12 C12           -3.1789    -2.5514    -0.9945 C.3     
  13 C13           -2.2403    -2.9275     0.1554 C.3     
  14 C14           -4.5220    -3.2610    -0.8111 C.3     
  15 N15            3.5088    -0.6366    -0.0344 N.pl3   
  16 C16            4.7742     0.1015    -0.0425 C.3     
  17 N17           -4.3305    -4.7082    -0.9341 N.am    
  18 O18           -5.2072    -6.8704    -0.9206 O.3     
  19 C19           -6.3853    -7.7061    -0.7731 C.3     
  20 C20           -7.4116    -7.3346    -1.8453 C.3     
  21 C21           -5.9912    -9.1759    -0.9318 C.3     
  22 C22           -6.9947    -7.4884     0.6134 C.3     
  23 C23           -5.3831    -5.5404    -0.8076 C.2     
  24 O24           -6.4909    -5.0903    -0.5916 O.2     
  25 H25           -0.9523     1.9309     0.0171 H       
  26 H26           -0.4514    -2.4453    -0.9442 H       
  27 H27           -0.2557    -2.4226     0.8246 H       
  28 H28           -2.1932     0.7485    -1.0964 H       
  29 H29           -1.5685    -0.6170    -2.0518 H       
  30 H30           -3.8777    -0.7395    -0.0588 H       
  31 H31           -4.0295    -0.7568    -1.8329 H       
  32 H32           -2.7330    -2.8531    -1.9422 H       
  33 H33           -2.0477    -4.0001     0.1320 H       
  34 H34           -2.7037    -2.6610     1.1053 H       
  35 H35           -4.9231    -3.0301     0.1758 H       
  36 H36           -5.2202    -2.9206    -1.5758 H       
  37 H37            3.5130    -1.6066    -0.0393 H       
  38 H38            4.8375     0.7239     0.8501 H       
  39 H39            5.6058    -0.6031    -0.0538 H       
  40 H40            4.8209     0.7329    -0.9298 H       
  41 H41           -3.4462    -5.0675    -1.1065 H       
  42 H42           -6.9775    -7.4897    -2.8330 H       
  43 H43           -8.2961    -7.9620    -1.7345 H       
  44 H44           -7.6924    -6.2875    -1.7322 H       
  45 H45           -5.2600    -9.4406    -0.1680 H       
  46 H46           -6.8756    -9.8033    -0.8211 H       
  47 H47           -5.5571    -9.3310    -1.9196 H       
  48 H48           -7.2755    -6.4412     0.7265 H       
  49 H49           -7.8791    -8.1157     0.7241 H       
  50 H50           -6.2635    -7.7530     1.3772 H       
@<TRIPOS>BOND
   1    1    2 ar
   2    1    6 ar
   3    1   25 1
   4    2    3 ar
   5    2    8 1
   6    3    4 ar
   7    4    5 ar
   8    4   15 1
   9    5    6 ar
  10    6    7 1
  11    8    9 1
  12    8   10 1
  13    9   13 1
  14    9   26 1
  15    9   27 1
  16   10   11 1
  17   10   28 1
  18   10   29 1
  19   11   12 1
  20   11   30 1
  21   11   31 1
  22   12   13 1
  23   12   14 1
  24   12   32 1
  25   13   33 1
  26   13   34 1
  27   14   17 1
  28   14   35 1
  29   14   36 1
  30   15   16 1
  31   15   37 1
  32   16   38 1
  33   16   39 1
  34   16   40 1
  35   17   23 am
  36   17   41 1
  37   18   19 1
  38   18   23 1
  39   19   20 1
  40   19   21 1
  41   19   22 1
  42   20   42 1
  43   20   43 1
  44   20   44 1
  45   21   45 1
  46   21   46 1
  47   21   47 1
  48   22   48 1
  49   22   49 1
  50   22   50 1
  51   23   24 2

#	End of record

