#	Name: ASD01914287
#	Creating user name:	WinNT
#	Creation time:	15. 06. 2019 20:03

#	Modifying user name:	WinNT
#	Modification time:	15. 06. 2019 20:03

#	Program:	/corina/corina34_cracker 3.40 0067  02.08.2006

@<TRIPOS>MOLECULE
ASD01914287
  33   35    0    0    0
SMALL
NO_CHARGES


@<TRIPOS>ATOM
   1 N1            -0.0169     1.3963     0.0097 N.2     
   2 N2             0.0021    -0.0041     0.0020 N.pl3   
   3 C3             1.2264     1.8293     0.0002 C.2     
   4 C4             2.0818     0.7147    -0.0140 C.2     
   5 C5             1.3049    -0.4065    -0.0126 C.2     
   6 C6             1.7881    -1.8053    -0.0243 C.ar    
   7 C7             1.6517     3.2515     0.0033 C.ar    
   8 C8             3.0064     3.5761    -0.0142 C.ar    
   9 C9             3.1570    -2.0722    -0.0325 C.ar    
  10 C10            0.8757    -2.8604    -0.0213 C.ar    
  11 C11            1.3333    -4.1662    -0.0318 C.ar    
  12 C12            2.6996    -4.4242    -0.0448 C.ar    
  13 C13            3.6054    -3.3777    -0.0429 C.ar    
  14 C14            0.6975     4.2664     0.0179 C.ar    
  15 C15            1.0984     5.5872     0.0203 C.ar    
  16 C16            2.4448     5.9038     0.0077 C.ar    
  17 C17            3.3963     4.9001    -0.0117 C.ar    
  18 O18            0.4469    -5.1971    -0.0289 O.3     
  19 C19           -0.9414    -4.8589    -0.0148 C.3     
  20 F20            3.1442    -5.6999    -0.0541 F       
  21 H21           -0.7746    -0.5852     0.0066 H       
  22 H22            3.1615     0.7410    -0.0245 H       
  23 H23            3.7501     2.7931    -0.0293 H       
  24 H24            3.8661    -1.2576    -0.0310 H       
  25 H25           -0.1853    -2.6587    -0.0104 H       
  26 H26            4.6656    -3.5830    -0.0534 H       
  27 H27           -0.3541     4.0203     0.0270 H       
  28 H28            0.3595     6.3748     0.0316 H       
  29 H29            2.7542     6.9386     0.0093 H       
  30 H30            4.4463     5.1528    -0.0214 H       
  31 H31           -1.1808    -4.2694    -0.8998 H       
  32 H32           -1.5376    -5.7714    -0.0140 H       
  33 H33           -1.1649    -4.2781     0.8800 H       
@<TRIPOS>BOND
   1    1    2 1
   2    1    3 2
   3    2    5 1
   4    2   21 1
   5    3    4 1
   6    3    7 1
   7    4    5 2
   8    4   22 1
   9    5    6 1
  10    6   10 ar
  11    6    9 ar
  12    7   14 ar
  13    7    8 ar
  14    8   17 ar
  15    8   23 1
  16    9   13 ar
  17    9   24 1
  18   10   11 ar
  19   10   25 1
  20   11   12 ar
  21   11   18 1
  22   12   13 ar
  23   12   20 1
  24   13   26 1
  25   14   15 ar
  26   14   27 1
  27   15   16 ar
  28   15   28 1
  29   16   17 ar
  30   16   29 1
  31   17   30 1
  32   18   19 1
  33   19   31 1
  34   19   32 1
  35   19   33 1

#	End of record

