#	Name: ASD03092951
#	Creating user name:	WinNT
#	Creation time:	15. 06. 2019 20:33

#	Modifying user name:	WinNT
#	Modification time:	15. 06. 2019 20:33

#	Program:	/corina/corina34_cracker 3.40 0067  02.08.2006

@<TRIPOS>MOLECULE
ASD03092951
  54   57    0    0    0
SMALL
NO_CHARGES


@<TRIPOS>ATOM
   1 F1             0.0021    -0.0041     0.0020 F       
   2 C2            -0.0169     1.3948     0.0097 C.3     
   3 F3             1.2956     1.8790    -0.0002 F       
   4 F4            -0.6935     1.8582    -1.1237 F       
   5 C5            -0.7223     1.8808     1.2496 C.ar    
   6 C6            -2.0900     2.0866     1.2283 C.ar    
   7 C7            -2.7412     2.5316     2.3607 C.ar    
   8 C8            -2.0182     2.7732     3.5276 C.ar    
   9 C9            -0.6404     2.5636     3.5434 C.ar    
  10 C10           -0.0004     2.1139     2.4063 C.ar    
  11 C11           -2.7124     3.2520     4.7478 C.2     
  12 N12           -3.7737     4.0839     4.7836 N.2     
  13 C13           -4.1183     4.2869     6.0240 C.2     
  14 N14           -3.2829     3.5864     6.8333 N.pl3   
  15 C15           -3.3281     3.5411     8.2969 C.3     
  16 H16           -2.5283     2.9074     8.6803 H       
  17 C17           -4.7027     3.0200     8.7760 C.3     
  18 C18           -4.9955     3.9073    10.0120 C.3     
  19 N19           -4.4649     5.2313     9.6130 N.am    
  20 C20           -3.2111     4.9617     8.8799 C.3     
  21 C21           -5.0137     6.4358     9.8669 C.2     
  22 O22           -4.4655     7.4482     9.4760 O.2     
  23 N23           -6.1703     6.5180    10.5540 N.am    
  24 C24           -6.7668     7.8273    10.8299 C.3     
  25 C25           -7.6165     8.2628     9.6343 C.3     
  26 C26           -8.2395     9.6302     9.9225 C.3     
  27 C27           -9.1226     9.5359    11.1684 C.3     
  28 F28           -9.6923    10.7861    11.4319 F       
  29 F29          -10.1372     8.5976    10.9509 F       
  30 C30           -8.2730     9.1004    12.3640 C.3     
  31 C31           -7.6499     7.7330    12.0758 C.3     
  32 C32           -2.3961     2.9260     6.0296 C.2     
  33 Cl33          -1.1125     1.8772     6.5455 Cl      
  34 H34           -2.6492     1.8991     0.3236 H       
  35 H35           -3.8090     2.6926     2.3428 H       
  36 H36           -0.0752     2.7492     4.4448 H       
  37 H37            1.0666     1.9476     2.4185 H       
  38 H38           -4.9352     4.9114     6.3545 H       
  39 H39           -5.4608     3.1674     8.0068 H       
  40 H40           -4.6395     1.9698     9.0609 H       
  41 H41           -6.0677     3.9633    10.1999 H       
  42 H42           -4.4694     3.5305    10.8892 H       
  43 H43           -2.3621     5.0145     9.5615 H       
  44 H44           -3.0889     5.6850     8.0737 H       
  45 H45           -6.6076     5.7103    10.8658 H       
  46 H46           -5.9763     8.5584    10.9994 H       
  47 H47           -6.9873     8.3300     8.7468 H       
  48 H48           -8.4070     7.5318     9.4649 H       
  49 H49           -7.4490    10.3612    10.0920 H       
  50 H50           -8.8448     9.9404     9.0708 H       
  51 H51           -7.4825     9.8314    12.5334 H       
  52 H52           -8.9021     9.0332    13.2515 H       
  53 H53           -8.4405     7.0020    11.9063 H       
  54 H54           -7.0447     7.4227    12.9275 H       
@<TRIPOS>BOND
   1    1    2 1
   2    2    3 1
   3    2    4 1
   4    2    5 1
   5    5   10 ar
   6    5    6 ar
   7    6    7 ar
   8    6   34 1
   9    7    8 ar
  10    7   35 1
  11    8    9 ar
  12    8   11 1
  13    9   10 ar
  14    9   36 1
  15   10   37 1
  16   11   32 2
  17   11   12 1
  18   12   13 2
  19   13   14 1
  20   13   38 1
  21   14   15 1
  22   14   32 1
  23   15   16 1
  24   15   20 1
  25   15   17 1
  26   17   18 1
  27   17   39 1
  28   17   40 1
  29   18   19 1
  30   18   41 1
  31   18   42 1
  32   19   20 1
  33   19   21 am
  34   20   43 1
  35   20   44 1
  36   21   22 2
  37   21   23 am
  38   23   24 1
  39   23   45 1
  40   24   31 1
  41   24   25 1
  42   24   46 1
  43   25   26 1
  44   25   47 1
  45   25   48 1
  46   26   27 1
  47   26   49 1
  48   26   50 1
  49   27   28 1
  50   27   29 1
  51   27   30 1
  52   30   31 1
  53   30   51 1
  54   30   52 1
  55   31   53 1
  56   31   54 1
  57   32   33 1

#	End of record

