#	Name: ASD01230756
#	Creating user name:	WinNT
#	Creation time:	15. 06. 2019 19:15

#	Modifying user name:	WinNT
#	Modification time:	15. 06. 2019 19:15

#	Program:	/corina/corina34_cracker 3.40 0067  02.08.2006

@<TRIPOS>MOLECULE
ASD01230756
  30   32    0    0    0
SMALL
NO_CHARGES


@<TRIPOS>ATOM
   1 C1            -0.0166     1.3739     0.0096 C.2     
   2 C2             0.0021    -0.0041     0.0020 C.2     
   3 C3            -1.2143    -0.6999     0.0078 C.2     
   4 C4            -2.3848    -0.0389     0.0099 C.2     
   5 N5            -2.4623     1.3310     0.0007 N.pl3   
   6 C6            -1.3175     2.0759     0.0320 C.2     
   7 C7            -3.8100     1.9042    -0.0494 C.3     
   8 C8            -3.8784     3.1897     0.7801 C.3     
   9 S9            -2.6223     4.3260     0.1122 S.o2    
  10 N10           -1.2622     3.3846     0.0819 N.am    
  11 C11            1.2496     2.1412     0.0016 C.ar    
  12 C12            2.1024     2.0738    -1.1008 C.ar    
  13 O13           -2.8872     4.6254    -1.2514 O.2     
  14 O14           -2.3217     5.3519     1.0484 O.2     
  15 C15            1.5918     2.9385     1.0935 C.ar    
  16 C16            2.7753     3.6523     1.0797 C.ar    
  17 C17            3.6196     3.5762    -0.0163 C.ar    
  18 C18            3.2812     2.7906    -1.1035 C.ar    
  19 F19            3.1092     4.4254     2.1361 F       
  20 H20            0.9399    -0.5395    -0.0086 H       
  21 H21           -1.2112    -1.7799     0.0101 H       
  22 H22           -3.3018    -0.6095     0.0189 H       
  23 H23           -4.0664     2.1300    -1.0844 H       
  24 H24           -4.5230     1.1816     0.3477 H       
  25 H25           -4.8685     3.6368     0.6913 H       
  26 H26           -3.6617     2.9694     1.8254 H       
  27 H27            1.8402     1.4611    -1.9506 H       
  28 H28            0.9334     2.9984     1.9475 H       
  29 H29            4.5432     4.1359    -0.0237 H       
  30 H30            3.9435     2.7349    -1.9548 H       
@<TRIPOS>BOND
   1    1    2 2
   2    1   11 1
   3    1    6 1
   4    2    3 1
   5    2   20 1
   6    3    4 2
   7    3   21 1
   8    4    5 1
   9    4   22 1
  10    5    6 1
  11    5    7 1
  12    6   10 2
  13    7    8 1
  14    7   23 1
  15    7   24 1
  16    8    9 1
  17    8   25 1
  18    8   26 1
  19    9   10 am
  20    9   13 2
  21    9   14 2
  22   11   12 ar
  23   11   15 ar
  24   12   18 ar
  25   12   27 1
  26   15   16 ar
  27   15   28 1
  28   16   17 ar
  29   16   19 1
  30   17   18 ar
  31   17   29 1
  32   18   30 1

#	End of record

