#	Name: ASD01418023
#	Creating user name:	WinNT
#	Creation time:	15. 06. 2019 19:20

#	Modifying user name:	WinNT
#	Modification time:	15. 06. 2019 19:20

#	Program:	/corina/corina34_cracker 3.40 0067  02.08.2006

@<TRIPOS>MOLECULE
ASD01418023
  77   82    0    0    0
SMALL
NO_CHARGES


@<TRIPOS>ATOM
   1 C1             0.4280     1.0515    -0.1807 C.3     
   2 C2             0.1324    -0.4246    -0.2420 C.2     
   3 N3             1.8744     1.2743    -0.3189 N.pl3   
   4 C4             2.8068     0.7572     0.5524 C.2     
   5 C5             2.6041    -0.2118     1.6455 C.ar    
   6 C6             1.5681    -1.1527     1.6760 C.ar    
   7 C7             0.5789    -1.3049     0.6200 C.2     
   8 C8             2.5213     1.9902    -1.2928 C.ar    
   9 C9             3.8975     2.0423    -0.9308 C.ar    
  10 C10            4.0397     1.2621     0.2224 C.2     
  11 C11            2.1031     2.5867    -2.4704 C.ar    
  12 C12            3.0762     3.1764    -3.3082 C.ar    
  13 C13            4.4034     3.3152    -2.8770 C.ar    
  14 C14            4.8285     2.7631    -1.6976 C.ar    
  15 C15            5.3241     1.0186     0.9720 C.3     
  16 C16            5.6376    -0.4789     0.9736 C.3     
  17 C17            6.4643     1.7777     0.2902 C.3     
  18 C18            7.7683     1.5304     1.0513 C.3     
  19 C19            8.0819     0.0329     1.0529 C.3     
  20 C20            6.9417    -0.7262     1.7347 C.3     
  21 C21            3.5284    -0.1709     2.7024 C.ar    
  22 C22            3.4161    -1.0275     3.7709 C.ar    
  23 C23            2.3811    -1.9569     3.8143 C.ar    
  24 C24            1.4670    -2.0203     2.7811 C.ar    
  25 C25           -0.6372    -0.8600    -1.4005 C.2     
  26 O26           -1.4092    -0.0825    -1.9306 O.2     
  27 N27           -0.5089    -2.1207    -1.9023 N.am    
  28 C28            0.8122     0.0580    -6.0992 C.3     
  29 N29            2.1381     0.6985    -6.2964 N.am    
  30 S30            2.0882     2.2948    -6.8107 S.o2    
  31 O31            2.6370     2.3197    -8.1213 O.2     
  32 O32            0.7934     2.7867    -6.4932 O.2     
  33 N33            3.1703     3.1070    -5.8184 N.am    
  34 C34            2.6693     3.5340    -4.6485 C.2     
  35 O35            1.7508     4.3269    -4.7265 O.2     
  36 C36            0.9873    -1.1826    -5.2203 C.3     
  37 C37            0.3842    -0.9272    -3.8371 C.3     
  38 C38           -0.4496    -2.1362    -3.3963 C.3     
  39 C39           -0.4367    -3.3250    -1.0713 C.3     
  40 O40            2.2704    -2.8019     4.8725 O.3     
  41 C41            3.2510    -2.6807     5.9049 C.3     
  42 H42           -0.0960     1.5600    -0.9900 H       
  43 H43            0.0898     1.4494     0.7761 H       
  44 H44            0.1476    -2.2912     0.5338 H       
  45 H45            1.0579     2.6005    -2.7422 H       
  46 H46            5.1036     3.8673    -3.4864 H       
  47 H47            5.8499     2.8789    -1.3664 H       
  48 H48            5.2175     1.3686     1.9988 H       
  49 H49            4.8254    -1.0197     1.4593 H       
  50 H50            5.7443    -0.8289    -0.0532 H       
  51 H51            6.5709     1.4277    -0.7365 H       
  52 H52            6.2409     2.8445     0.2891 H       
  53 H53            8.5806     2.0712     0.5656 H       
  54 H54            7.6617     1.8804     2.0781 H       
  55 H55            8.1885    -0.3171     0.0261 H       
  56 H56            9.0109    -0.1432     1.5951 H       
  57 H57            6.8351    -0.3762     2.7614 H       
  58 H58            7.1650    -1.7930     1.7358 H       
  59 H59            4.3383     0.5430     2.6746 H       
  60 H60            4.1321    -0.9797     4.5779 H       
  61 H61            0.6657    -2.7432     2.8208 H       
  62 H62            0.1369     0.7599    -5.6100 H       
  63 H63            0.4007    -0.2343    -7.0653 H       
  64 H64            2.9716     0.2280    -6.1391 H       
  65 H65            4.0943     3.2573    -6.0725 H       
  66 H66            0.4818    -2.0296    -5.6841 H       
  67 H67            2.0490    -1.4073    -5.1179 H       
  68 H68            1.1861    -0.7594    -3.1182 H       
  69 H69           -0.2532    -0.0439    -3.8780 H       
  70 H70            0.0235    -3.0566    -3.7385 H       
  71 H71           -1.4563    -2.0614    -3.8076 H       
  72 H72           -1.0794    -3.2039    -0.1993 H       
  73 H73           -0.7688    -4.1866    -1.6506 H       
  74 H74            0.5918    -3.4807    -0.7457 H       
  75 H75            3.0470    -3.4116     6.6874 H       
  76 H76            4.2417    -2.8618     5.4879 H       
  77 H77            3.2124    -1.6764     6.3267 H       
@<TRIPOS>BOND
   1    1    2 1
   2    1    3 1
   3    1   42 1
   4    1   43 1
   5    2   25 1
   6    2    7 2
   7    3    4 1
   8    3    8 1
   9    4    5 1
  10    4   10 2
  11    5    6 ar
  12    5   21 ar
  13    6    7 1
  14    6   24 ar
  15    7   44 1
  16    8    9 ar
  17    8   11 ar
  18    9   10 1
  19    9   14 ar
  20   10   15 1
  21   11   12 ar
  22   11   45 1
  23   12   13 ar
  24   12   34 1
  25   13   14 ar
  26   13   46 1
  27   14   47 1
  28   15   16 1
  29   15   17 1
  30   15   48 1
  31   16   20 1
  32   16   49 1
  33   16   50 1
  34   17   18 1
  35   17   51 1
  36   17   52 1
  37   18   19 1
  38   18   53 1
  39   18   54 1
  40   19   20 1
  41   19   55 1
  42   19   56 1
  43   20   57 1
  44   20   58 1
  45   21   22 ar
  46   21   59 1
  47   22   23 ar
  48   22   60 1
  49   23   24 ar
  50   23   40 1
  51   24   61 1
  52   25   26 2
  53   25   27 am
  54   27   39 1
  55   27   38 1
  56   28   29 1
  57   28   36 1
  58   28   62 1
  59   28   63 1
  60   29   30 am
  61   29   64 1
  62   30   31 2
  63   30   32 2
  64   30   33 am
  65   33   34 am
  66   33   65 1
  67   34   35 2
  68   36   37 1
  69   36   66 1
  70   36   67 1
  71   37   38 1
  72   37   68 1
  73   37   69 1
  74   38   70 1
  75   38   71 1
  76   39   72 1
  77   39   73 1
  78   39   74 1
  79   40   41 1
  80   41   75 1
  81   41   76 1
  82   41   77 1

#	End of record

