#	Name: ASD07300810
#	Creating user name:	WinNT
#	Creation time:	15. 06. 2019 21:10

#	Modifying user name:	WinNT
#	Modification time:	15. 06. 2019 21:10

#	Program:	/corina/corina34_cracker 3.40 0067  02.08.2006

@<TRIPOS>MOLECULE
ASD07300810
  47   50    0    0    0
SMALL
NO_CHARGES


@<TRIPOS>ATOM
   1 C1            -0.0171     1.4120     0.0098 C.2     
   2 C2             0.0021    -0.0041     0.0020 C.2     
   3 N3             1.1788     2.0861     0.0020 N.pl3   
   4 N4             1.1571    -0.6398    -0.0124 N.2     
   5 C5             2.3166     0.0262    -0.0199 C.2     
   6 C6             2.3501     1.3735    -0.0130 C.2     
   7 N7            -0.9999     2.2992     0.0292 N.2     
   8 C8            -0.4889     3.5298     0.0281 C.2     
   9 C9             0.8892     3.4239     0.0119 C.2     
  10 N10           -1.1867    -0.7177     0.0100 N.pl3   
  11 C11           -1.3065    -2.1830     0.0033 C.3     
  12 C12           -2.8126    -2.5196    -0.0098 C.3     
  13 C13           -3.4526    -1.2267    -0.5810 C.3     
  14 C14           -2.5398    -0.1329     0.0330 C.3     
  15 N15            2.8723     6.4266    -0.4622 N.pl3   
  16 N16            3.6203     5.7615     0.5166 N.2     
  17 C17            3.0234     4.6347     0.8028 C.2     
  18 C18            1.8620     4.5395     0.0091 C.2     
  19 C19            1.7979     5.6650    -0.7627 C.2     
  20 C20            3.1957     7.7272    -1.0540 C.3     
  21 C21            3.3612     8.7660     0.0570 C.3     
  22 O22            3.6766    10.0346    -0.5202 O.3     
  23 C23            3.8529    11.0810     0.4369 C.3     
  24 O24           -1.1999     4.6888     0.0449 O.3     
  25 C25           -2.6242     4.5759     0.0662 C.3     
  26 H26            3.2444    -0.5265    -0.0317 H       
  27 H27            3.2981     1.8910    -0.0196 H       
  28 H28           -0.8280    -2.5901    -0.8874 H       
  29 H29           -0.8420    -2.5970     0.8983 H       
  30 H30           -3.0121    -3.3695    -0.6625 H       
  31 H31           -3.1730    -2.7146     1.0002 H       
  32 H32           -3.4040    -1.2148    -1.6699 H       
  33 H33           -4.4804    -1.1142    -0.2361 H       
  34 H34           -2.8415     0.0851     1.0575 H       
  35 H35           -2.5723     0.7721    -0.5736 H       
  36 H36            3.3612     3.9033     1.5220 H       
  37 H37            1.0281     5.9026    -1.4819 H       
  38 H38            4.1244     7.6484    -1.6191 H       
  39 H39            2.3896     8.0335    -1.7207 H       
  40 H40            2.4325     8.8448     0.6221 H       
  41 H41            4.1673     8.4597     0.7237 H       
  42 H42            2.9343    11.2078     1.0098 H       
  43 H43            4.6691    10.8227     1.1114 H       
  44 H44            4.0895    12.0107    -0.0806 H       
  45 H45           -2.9595     4.0395    -0.8215 H       
  46 H46           -2.9322     4.0305     0.9582 H       
  47 H47           -3.0675     5.5717     0.0780 H       
@<TRIPOS>BOND
   1    1    2 1
   2    1    3 1
   3    1    7 2
   4    2    4 2
   5    2   10 1
   6    3    6 1
   7    3    9 1
   8    4    5 1
   9    5    6 2
  10    5   26 1
  11    6   27 1
  12    7    8 1
  13    8    9 2
  14    8   24 1
  15    9   18 1
  16   10   11 1
  17   10   14 1
  18   11   12 1
  19   11   28 1
  20   11   29 1
  21   12   13 1
  22   12   30 1
  23   12   31 1
  24   13   14 1
  25   13   32 1
  26   13   33 1
  27   14   34 1
  28   14   35 1
  29   15   16 1
  30   15   19 1
  31   15   20 1
  32   16   17 2
  33   17   18 1
  34   17   36 1
  35   18   19 2
  36   19   37 1
  37   20   21 1
  38   20   38 1
  39   20   39 1
  40   21   22 1
  41   21   40 1
  42   21   41 1
  43   22   23 1
  44   23   42 1
  45   23   43 1
  46   23   44 1
  47   24   25 1
  48   25   45 1
  49   25   46 1
  50   25   47 1

#	End of record

