#	Name: ASD01210001
#	Creating user name:	WinNT
#	Creation time:	15. 06. 2019 19:11

#	Modifying user name:	WinNT
#	Modification time:	15. 06. 2019 19:11

#	Program:	/corina/corina34_cracker 3.40 0067  02.08.2006

@<TRIPOS>MOLECULE
ASD01210001
  35   35    0    0    0
SMALL
NO_CHARGES


@<TRIPOS>ATOM
   1 C1            -0.0187     1.5267     0.0104 C.3     
   2 C2             0.0021    -0.0041     0.0020 C.3     
   3 C3            -1.4371    -0.5262    -0.0479 C.3     
   4 C4            -2.1360     0.0525    -1.2819 C.3     
   5 C5            -2.0742     1.5811    -1.2239 C.3     
   6 O6            -0.7097     1.9988    -1.1479 O.3     
   7 O7            -2.6750     2.1273    -2.3998 O.3     
   8 O8             0.6417    -0.4795     1.1881 O.3     
   9 O9            -1.4255    -1.9528    -0.1301 O.3     
  10 N10           -3.5355    -0.3805    -1.3001 N.am    
  11 C11           -4.2060    -0.4446    -2.4675 C.2     
  12 C12           -5.6455    -0.8901    -2.4861 C.3     
  13 O13           -3.6508    -0.1439    -3.5029 O.2     
  14 C14            1.4166     2.0565    -0.0004 C.3     
  15 O15            1.3999     3.4799     0.1248 O.3     
  16 P16            2.7387     4.3738     0.1497 P.3     
  17 O17            2.3421     5.9340     0.1691 O.3     
  18 O18            3.5950     4.0213     1.4667 O.3     
  19 O19            3.5470     4.0852    -1.0561 O.2     
  20 H20           -0.5292     1.8784     0.9070 H       
  21 H21            0.5478    -0.3561    -0.8734 H       
  22 H22           -1.9690    -0.2158     0.8515 H       
  23 H23           -1.6335    -0.2984    -2.1832 H       
  24 H24           -2.6118     1.9335    -0.3436 H       
  25 H25           -2.6711     3.0938    -2.4308 H       
  26 H26            1.5567    -0.1827     1.2875 H       
  27 H27           -0.9911    -2.3863     0.6173 H       
  28 H28           -3.9795    -0.6211    -0.4719 H       
  29 H29           -6.2433    -0.2130    -1.8760 H       
  30 H30           -6.0161    -0.8786    -3.5111 H       
  31 H31           -5.7183    -1.9009    -2.0848 H       
  32 H32            1.9696     1.6248     0.8338 H       
  33 H33            1.8989     1.7799    -0.9379 H       
  34 H34            3.1013     6.5327     0.1845 H       
  35 H35            3.1264     4.1862     2.2963 H       
@<TRIPOS>BOND
   1    1    2 1
   2    1   14 1
   3    1    6 1
   4    1   20 1
   5    2    3 1
   6    2    8 1
   7    2   21 1
   8    3    4 1
   9    3    9 1
  10    3   22 1
  11    4    5 1
  12    4   10 1
  13    4   23 1
  14    5    6 1
  15    5    7 1
  16    5   24 1
  17    7   25 1
  18    8   26 1
  19    9   27 1
  20   10   11 am
  21   10   28 1
  22   11   12 1
  23   11   13 2
  24   12   29 1
  25   12   30 1
  26   12   31 1
  27   14   15 1
  28   14   32 1
  29   14   33 1
  30   15   16 1
  31   16   17 1
  32   16   18 1
  33   16   19 2
  34   17   34 1
  35   18   35 1

#	End of record

