#	Name: ASD01230510
#	Creating user name:	WinNT
#	Creation time:	15. 06. 2019 19:14

#	Modifying user name:	WinNT
#	Modification time:	15. 06. 2019 19:14

#	Program:	/corina/corina34_cracker 3.40 0067  02.08.2006

@<TRIPOS>MOLECULE
ASD01230510
  33   35    0    0    0
SMALL
NO_CHARGES


@<TRIPOS>ATOM
   1 C1             0.3901     0.2643    -0.9966 C.ar    
   2 C2             0.0671    -0.4009     0.1974 C.ar    
   3 N3             1.4124     1.1070    -1.0223 N.ar    
   4 N4             0.7892    -0.1792     1.2893 N.ar    
   5 C5             1.8061     0.6642     1.2487 C.ar    
   6 C6             2.1235     1.3185     0.0735 C.ar    
   7 N7            -0.3544     0.0357    -2.1456 N.pl3   
   8 C8            -1.0741    -1.3451     0.2385 C.ar    
   9 C9            -1.2725    -2.2474    -0.8064 C.ar    
  10 C10           -2.3350    -3.1250    -0.7650 C.ar    
  11 C11           -3.2074    -3.1109     0.3155 C.ar    
  12 C12           -3.0126    -2.2137     1.3576 C.ar    
  13 C13           -1.9487    -1.3375     1.3249 C.ar    
  14 O14           -4.2539    -3.9762     0.3530 O.3     
  15 C15           -5.4862    -3.5012     0.0336 C.ar    
  16 C16           -5.6313    -2.2018    -0.4312 C.ar    
  17 C17           -6.8851    -1.7215    -0.7556 C.ar    
  18 C18           -7.9952    -2.5342    -0.6172 C.ar    
  19 C19           -7.8536    -3.8293    -0.1539 C.ar    
  20 C20           -6.6012    -4.3165     0.1661 C.ar    
  21 H21            2.3917     0.8431     2.1383 H       
  22 H22            2.9563     2.0057     0.0493 H       
  23 H23           -1.1509    -0.5164    -2.1056 H       
  24 H24           -0.0782     0.4282    -2.9886 H       
  25 H25           -0.5948    -2.2584    -1.6473 H       
  26 H26           -2.4892    -3.8239    -1.5738 H       
  27 H27           -3.6928    -2.2053     2.1964 H       
  28 H28           -1.7953    -0.6428     2.1375 H       
  29 H29           -4.7646    -1.5664    -0.5388 H       
  30 H30           -6.9985    -0.7103    -1.1174 H       
  31 H31           -8.9747    -2.1567    -0.8711 H       
  32 H32           -8.7223    -4.4619    -0.0463 H       
  33 H33           -6.4905    -5.3297     0.5234 H       
@<TRIPOS>BOND
   1    1    2 ar
   2    1    3 ar
   3    1    7 1
   4    2    4 ar
   5    2    8 1
   6    3    6 ar
   7    4    5 ar
   8    5    6 ar
   9    5   21 1
  10    6   22 1
  11    7   23 1
  12    7   24 1
  13    8    9 ar
  14    8   13 ar
  15    9   10 ar
  16    9   25 1
  17   10   11 ar
  18   10   26 1
  19   11   12 ar
  20   11   14 1
  21   12   13 ar
  22   12   27 1
  23   13   28 1
  24   14   15 1
  25   15   16 ar
  26   15   20 ar
  27   16   17 ar
  28   16   29 1
  29   17   18 ar
  30   17   30 1
  31   18   19 ar
  32   18   31 1
  33   19   20 ar
  34   19   32 1
  35   20   33 1

#	End of record

