#	Name: ASD02198361
#	Creating user name:	WinNT
#	Creation time:	15. 06. 2019 20:19

#	Modifying user name:	WinNT
#	Modification time:	15. 06. 2019 20:19

#	Program:	/corina/corina34_cracker 3.40 0067  02.08.2006

@<TRIPOS>MOLECULE
ASD02198361
  40   42    0    0    0
SMALL
NO_CHARGES


@<TRIPOS>ATOM
   1 C1             0.0016     1.4016     0.2383 C.2     
   2 C2             0.0124     0.0162     0.2359 C.2     
   3 S3             1.6713     1.9493     0.1121 S.3     
   4 C4             2.2167     0.3308     0.0688 C.2     
   5 N5             1.2153    -0.4985     0.1439 N.2     
   6 N6            -1.1363    -0.7514     0.3223 N.pl3   
   7 C7            -1.1298     2.2172     0.3199 C.2     
   8 C8            -0.9799     3.7167     0.3110 C.3     
   9 O9            -2.2359     1.7170     0.3982 O.2     
  10 N10            3.5371    -0.0461    -0.0320 N.pl3   
  11 C11           -2.2701     4.3551    -0.2074 C.3     
  12 C12            3.8879    -1.3960     0.0630 C.ar    
  13 C13            4.9925    -1.8784    -0.6275 C.ar    
  14 C14            5.3362    -3.2125    -0.5315 C.ar    
  15 C15            4.5819    -4.0680     0.2504 C.ar    
  16 C16            3.4816    -3.5911     0.9390 C.ar    
  17 C17            3.1359    -2.2568     0.8524 C.ar    
  18 C18           -2.1180     5.8775    -0.2165 C.3     
  19 C19           -1.8402     6.3708     1.2049 C.3     
  20 C20           -0.5500     5.7324     1.7234 C.3     
  21 C21           -0.7022     4.2100     1.7324 C.3     
  22 H22           -2.0032    -0.3212     0.3886 H       
  23 H23           -1.0744    -1.7194     0.3165 H       
  24 H24           -0.1502     3.9951    -0.3388 H       
  25 H25            4.2240     0.6250    -0.1688 H       
  26 H26           -2.4680     4.0037    -1.2201 H       
  27 H27           -3.0998     4.0768     0.4424 H       
  28 H28            5.5817    -1.2110    -1.2389 H       
  29 H29            6.1949    -3.5882    -1.0681 H       
  30 H30            4.8524    -5.1110     0.3232 H       
  31 H31            2.8943    -4.2619     1.5486 H       
  32 H32            2.2765    -1.8849     1.3904 H       
  33 H33           -1.2883     6.1559    -0.8663 H       
  34 H34           -3.0371     6.3324    -0.5858 H       
  35 H35           -1.7318     7.4554     1.1985 H       
  36 H36           -2.6699     6.0924     1.8547 H       
  37 H37            0.2796     6.0107     1.0736 H       
  38 H38           -0.3522     6.0838     2.7360 H       
  39 H39           -1.5319     3.9316     2.3822 H       
  40 H40            0.2169     3.7552     2.1017 H       
@<TRIPOS>BOND
   1    1    2 2
   2    1    3 1
   3    1    7 1
   4    2    6 1
   5    2    5 1
   6    3    4 1
   7    4    5 2
   8    4   10 1
   9    6   22 1
  10    6   23 1
  11    7    8 1
  12    7    9 2
  13    8   11 1
  14    8   21 1
  15    8   24 1
  16   10   12 1
  17   10   25 1
  18   11   18 1
  19   11   26 1
  20   11   27 1
  21   12   13 ar
  22   12   17 ar
  23   13   14 ar
  24   13   28 1
  25   14   15 ar
  26   14   29 1
  27   15   16 ar
  28   15   30 1
  29   16   17 ar
  30   16   31 1
  31   17   32 1
  32   18   19 1
  33   18   33 1
  34   18   34 1
  35   19   20 1
  36   19   35 1
  37   19   36 1
  38   20   21 1
  39   20   37 1
  40   20   38 1
  41   21   39 1
  42   21   40 1

#	End of record

