#	Name: ASD01320041
#	Creating user name:	WinNT
#	Creation time:	15. 06. 2019 19:15

#	Modifying user name:	WinNT
#	Modification time:	15. 06. 2019 19:15

#	Program:	/corina/corina34_cracker 3.40 0067  02.08.2006

@<TRIPOS>MOLECULE
ASD01320041
  82   86    0    0    0
SMALL
NO_CHARGES


@<TRIPOS>ATOM
   1 C1            -1.4863     2.7482     1.4506 C.3     
   2 C2            -0.6623     1.5803     0.9147 C.3     
   3 C3            -1.5657     0.4370     0.4388 C.3     
   4 C4            -2.5667     0.0558     1.5088 C.3     
   5 C5            -3.3514     1.2108     2.1201 C.3     
   6 C6            -2.3534     2.2740     2.6151 C.3     
   7 C7            -3.5364    -1.0349     1.0588 C.3     
   8 C8            -4.1697    -1.6304     2.3287 C.3     
   9 C9            -4.9448    -0.5643     3.0953 C.3     
  10 C10           -4.1128     0.6867     3.3419 C.3     
  11 C11           -5.4254    -1.1208     4.4441 C.3     
  12 C12           -5.9401    -0.0349     5.3410 C.2     
  13 C13           -5.7416     1.2378     5.1187 C.2     
  14 C14           -5.0049     1.7821     3.9289 C.3     
  15 C15           -6.4491    -2.2316     4.2453 C.3     
  16 C16           -7.1188    -2.6215     5.5653 C.3     
  17 C17           -7.8082    -1.4151     6.1925 C.3     
  18 C18           -6.7544    -0.3757     6.5773 C.3     
  19 C19           -8.6220    -1.8358     7.4155 C.3     
  20 C20           -7.7035    -2.3543     8.5206 C.3     
  21 C21           -6.7280    -1.2456     8.9208 C.3     
  22 C22           -5.8659    -0.8869     7.7031 C.3     
  23 C23           -2.2057     0.7864    -0.8997 C.3     
  24 O24            0.1403     2.0293    -0.1830 O.3     
  25 C25           -4.2902     1.8812     1.1248 C.3     
  26 C26           -6.2017    -0.2091     2.2824 C.3     
  27 H27           -7.2714     0.5361     6.9184 H       
  28 H28           -7.2807    -0.3667     9.2450 H       
  29 C29           -4.8620     0.1919     8.1165 C.3     
  30 C30           -0.6326    -0.7753     0.1966 C.3     
  31 O31           -0.5924     3.7661     1.9258 O.3     
  32 C32           -4.2052    -1.7461     5.1378 C.3     
  33 C33           -5.8264    -1.7397    10.0525 C.3     
  34 C34           -8.7624    -0.7958     5.1973 C.2     
  35 O35           -8.6120     0.3515     4.8496 O.2     
  36 O36           -9.7768    -1.5204     4.6997 O.3     
  37 H37           -2.0954     3.1760     0.6594 H       
  38 H38           -0.0059     1.2083     1.7044 H       
  39 H39           -1.9760    -0.3894     2.3479 H       
  40 H40           -1.7245     1.8364     3.3885 H       
  41 H41           -2.9083     3.1169     3.0243 H       
  42 H42           -4.3034    -0.6524     0.4016 H       
  43 H43           -2.9975    -1.8370     0.5490 H       
  44 H44           -4.8499    -2.4320     2.0299 H       
  45 H45           -3.3546    -2.0543     2.9094 H       
  46 H46           -3.3444     0.4514     4.1045 H       
  47 H47           -6.1344     1.9418     5.8395 H       
  48 H48           -4.3741     2.6142     4.2649 H       
  49 H49           -5.7221     2.1647     3.2122 H       
  50 H50           -7.2149    -1.9984     3.5186 H       
  51 H51           -5.9160    -3.1241     3.8693 H       
  52 H52           -7.8679    -3.3947     5.3646 H       
  53 H53           -6.3797    -3.0286     6.2526 H       
  54 H54           -9.1836    -0.9756     7.7850 H       
  55 H55           -9.3229    -2.6206     7.1275 H       
  56 H56           -8.3017    -2.6415     9.3868 H       
  57 H57           -7.1471    -3.2196     8.1625 H       
  58 H58           -5.3321    -1.7860     7.4011 H       
  59 H59           -1.4348     0.8376    -1.6686 H       
  60 H60           -2.9337     0.0200    -1.1655 H       
  61 H61           -2.7062     1.7516    -0.8221 H       
  62 H62            0.7599     2.7355     0.0457 H       
  63 H63           -4.8489     1.1187     0.5820 H       
  64 H64           -4.9848     2.5287     1.6598 H       
  65 H65           -3.7084     2.4757     0.4204 H       
  66 H66           -6.8435    -1.0866     2.2039 H       
  67 H67           -6.7432     0.5936     2.7829 H       
  68 H68           -5.9088     0.1173     1.2845 H       
  69 H69           -4.2304    -0.1882     8.9195 H       
  70 H70           -4.2413     0.4577     7.2608 H       
  71 H71           -5.3994     1.0744     8.4637 H       
  72 H72           -0.1262    -1.0354     1.1261 H       
  73 H73           -1.2227    -1.6253    -0.1459 H       
  74 H74            0.1078    -0.5182    -0.5609 H       
  75 H75            0.0016     4.1158     1.2477 H       
  76 H76           -3.4853    -0.9645     5.3807 H       
  77 H77           -4.5235    -2.2442     6.0535 H       
  78 H78           -3.7412    -2.4730     4.4712 H       
  79 H79           -5.2655    -2.6116     9.7158 H       
  80 H80           -5.1324    -0.9484    10.3360 H       
  81 H81           -6.4385    -2.0114    10.9125 H       
  82 H82          -10.3607    -1.0812     4.0662 H       
@<TRIPOS>BOND
   1    1    2 1
   2    1   31 1
   3    1    6 1
   4    1   37 1
   5    2    3 1
   6    2   24 1
   7    2   38 1
   8    3    4 1
   9    3   23 1
  10    3   30 1
  11    4    5 1
  12    4    7 1
  13    4   39 1
  14    5    6 1
  15    5   25 1
  16    5   10 1
  17    6   40 1
  18    6   41 1
  19    7    8 1
  20    7   42 1
  21    7   43 1
  22    8    9 1
  23    8   44 1
  24    8   45 1
  25    9   10 1
  26    9   11 1
  27    9   26 1
  28   10   14 1
  29   10   46 1
  30   11   12 1
  31   11   15 1
  32   11   32 1
  33   12   13 2
  34   12   18 1
  35   13   14 1
  36   13   47 1
  37   14   48 1
  38   14   49 1
  39   15   16 1
  40   15   50 1
  41   15   51 1
  42   16   17 1
  43   16   52 1
  44   16   53 1
  45   17   18 1
  46   17   19 1
  47   17   34 1
  48   18   27 1
  49   18   22 1
  50   19   20 1
  51   19   54 1
  52   19   55 1
  53   20   21 1
  54   20   56 1
  55   20   57 1
  56   21   28 1
  57   21   33 1
  58   21   22 1
  59   22   29 1
  60   22   58 1
  61   23   59 1
  62   23   60 1
  63   23   61 1
  64   24   62 1
  65   25   63 1
  66   25   64 1
  67   25   65 1
  68   26   66 1
  69   26   67 1
  70   26   68 1
  71   29   69 1
  72   29   70 1
  73   29   71 1
  74   30   72 1
  75   30   73 1
  76   30   74 1
  77   31   75 1
  78   32   76 1
  79   32   77 1
  80   32   78 1
  81   33   79 1
  82   33   80 1
  83   33   81 1
  84   34   35 2
  85   34   36 1
  86   36   82 1

#	End of record

