#	Name: ASD01903005
#	Creating user name:	WinNT
#	Creation time:	15. 06. 2019 19:54

#	Modifying user name:	WinNT
#	Modification time:	15. 06. 2019 19:54

#	Program:	/corina/corina34_cracker 3.40 0067  02.08.2006

@<TRIPOS>MOLECULE
ASD01903005
  24   25    0    0    0
SMALL
NO_CHARGES


@<TRIPOS>ATOM
   1 C1             2.1040     1.3941     0.7649 C.ar    
   2 C2             2.1179     0.0133     0.7501 C.ar    
   3 C3             1.2117    -0.6808    -0.0304 C.ar    
   4 C4             0.2881     0.0056    -0.7992 C.ar    
   5 C5             0.2690     1.3878    -0.7882 C.ar    
   6 C6             1.1780     2.0867    -0.0051 C.ar    
   7 N7             1.1612     3.4849     0.0088 N.am    
   8 C8            -0.0102     4.1456    -0.0787 C.2     
   9 O9            -1.0448     3.5294    -0.2549 O.2     
  10 C10           -0.0381     5.6071     0.0385 C.2     
  11 Cl11          -0.8470    -0.8698    -1.7784 Cl      
  12 N12            1.0484     6.4283     0.2380 N.pl3   
  13 C13            0.6172     7.7122     0.2917 C.2     
  14 C14           -0.7276     7.7298     0.1301 C.2     
  15 C15           -1.1570     6.4096    -0.0369 C.2     
  16 H16            2.8095     1.9351     1.3780 H       
  17 H17            2.8377    -0.5252     1.3487 H       
  18 H18            1.2250    -1.7606    -0.0404 H       
  19 H19           -0.4516     1.9234    -1.3884 H       
  20 H20            1.9927     3.9792     0.0813 H       
  21 H21            1.9694     6.1367     0.3258 H       
  22 H22            1.2435     8.5796     0.4391 H       
  23 H23           -1.3561     8.6081     0.1270 H       
  24 H24           -2.1741     6.0799    -0.1893 H       
@<TRIPOS>BOND
   1    1    2 ar
   2    1    6 ar
   3    1   16 1
   4    2    3 ar
   5    2   17 1
   6    3    4 ar
   7    3   18 1
   8    4    5 ar
   9    4   11 1
  10    5    6 ar
  11    5   19 1
  12    6    7 1
  13    7    8 am
  14    7   20 1
  15    8    9 2
  16    8   10 1
  17   10   12 1
  18   10   15 2
  19   12   13 1
  20   12   21 1
  21   13   14 2
  22   13   22 1
  23   14   15 1
  24   14   23 1
  25   15   24 1

#	End of record

