#	Name: ASD01884629
#	Creating user name:	WinNT
#	Creation time:	15. 06. 2019 19:48

#	Modifying user name:	WinNT
#	Modification time:	15. 06. 2019 19:48

#	Program:	/corina/corina34_cracker 3.40 0067  02.08.2006

@<TRIPOS>MOLECULE
ASD01884629
  42   44    0    0    0
SMALL
NO_CHARGES


@<TRIPOS>ATOM
   1 C1            -0.0164     1.3576     0.0095 C.2     
   2 C2             0.0021    -0.0041     0.0020 C.2     
   3 C3             1.2440    -0.6751    -0.0134 C.2     
   4 C4             2.4024     0.0465    -0.0206 C.2     
   5 N5             2.3700     1.4024    -0.0130 N.am    
   6 C6             1.1986     2.0652     0.0017 C.2     
   7 O7             1.1911     3.2857     0.0083 O.2     
   8 C8             3.6266     2.1554    -0.0210 C.3     
   9 C9             1.2897    -2.1584    -0.0214 C.ar    
  10 C10            4.0439     2.4213    -1.4444 C.ar    
  11 C11            3.4596     3.4557    -2.1554 C.ar    
  12 C12            3.8436     3.6993    -3.4632 C.ar    
  13 C13            4.8103     2.9090    -4.0577 C.ar    
  14 C14            5.3933     1.8755    -3.3456 C.ar    
  15 C15            5.0140     1.6360    -2.0384 C.ar    
  16 Cl16           5.2921     3.2132    -5.6976 Cl      
  17 F17            2.5150     4.2267    -1.5736 F       
  18 C18            1.8312    -2.8459     1.0629 C.ar    
  19 C19            1.8724    -4.2247     1.0527 C.ar    
  20 C20            1.3756    -4.9271    -0.0364 C.ar    
  21 C21            0.8354    -4.2449    -1.1181 C.ar    
  22 C22            0.7859    -2.8667    -1.1109 C.ar    
  23 O23            1.4183    -6.2855    -0.0440 O.3     
  24 C24            1.9877    -6.9231     1.1011 C.3     
  25 C25            0.2974    -5.0113    -2.2989 C.3     
  26 H26           -0.9563     1.8895     0.0169 H       
  27 H27           -0.9217    -0.5635     0.0082 H       
  28 H28            3.3528    -0.4664    -0.0321 H       
  29 H29            3.4857     3.1028     0.4993 H       
  30 H30            4.4006     1.5761     0.4824 H       
  31 H31            3.3882     4.5057    -4.0187 H       
  32 H32            6.1482     1.2586    -3.8102 H       
  33 H33            5.4696     0.8292    -1.4835 H       
  34 H34            2.2187    -2.2998     1.9103 H       
  35 H35            2.2920    -4.7582     1.8928 H       
  36 H36            0.3656    -2.3365    -1.9527 H       
  37 H37            3.0212    -6.5983     1.2215 H       
  38 H38            1.4162    -6.6531     1.9891 H       
  39 H39            1.9601    -8.0044     0.9661 H       
  40 H40           -0.7591    -5.2277    -2.1408 H       
  41 H41            0.4146    -4.4145    -3.2034 H       
  42 H42            0.8477    -5.9461    -2.4066 H       
@<TRIPOS>BOND
   1    1    2 2
   2    1    6 1
   3    1   26 1
   4    2    3 1
   5    2   27 1
   6    3    4 2
   7    3    9 1
   8    4    5 1
   9    4   28 1
  10    5    6 am
  11    5    8 1
  12    6    7 2
  13    8   10 1
  14    8   29 1
  15    8   30 1
  16    9   18 ar
  17    9   22 ar
  18   10   11 ar
  19   10   15 ar
  20   11   12 ar
  21   11   17 1
  22   12   13 ar
  23   12   31 1
  24   13   14 ar
  25   13   16 1
  26   14   15 ar
  27   14   32 1
  28   15   33 1
  29   18   19 ar
  30   18   34 1
  31   19   20 ar
  32   19   35 1
  33   20   21 ar
  34   20   23 1
  35   21   22 ar
  36   21   25 1
  37   22   36 1
  38   23   24 1
  39   24   37 1
  40   24   38 1
  41   24   39 1
  42   25   40 1
  43   25   41 1
  44   25   42 1

#	End of record

