#	Name: ASD02448096
#	Creating user name:	WinNT
#	Creation time:	15. 06. 2019 20:21

#	Modifying user name:	WinNT
#	Modification time:	15. 06. 2019 20:21

#	Program:	/corina/corina34_cracker 3.40 0067  02.08.2006

@<TRIPOS>MOLECULE
ASD02448096
  83   89    0    0    0
SMALL
NO_CHARGES


@<TRIPOS>ATOM
   1 C1            -0.0495    -6.5829     3.1351 C.ar    
   2 C2             0.4370    -5.4514     2.5095 C.ar    
   3 C3             0.3489    -5.3268     1.1289 C.ar    
   4 C4            -0.2282    -6.3397     0.3779 C.ar    
   5 C5            -0.7163    -7.4757     1.0090 C.ar    
   6 C6            -0.6252    -7.5942     2.3903 C.ar    
   7 N7            -1.2987    -8.4981     0.2563 N.am    
   8 C8            -1.4107    -9.9213     0.6012 C.3     
   9 C9            -2.1062   -10.6886    -0.4765 C.2     
  10 N10           -2.4889    -9.9547    -1.5309 N.am    
  11 S11           -2.0330    -8.3809    -1.2372 S.o2    
  12 O12           -2.3081   -11.8823    -0.4030 O.2     
  13 O13           -3.2237    -7.6239    -1.0688 O.2     
  14 O14           -1.0137    -8.0580    -2.1732 O.2     
  15 N15            0.8426    -4.1777     0.4952 N.pl3   
  16 C16            1.7739    -4.1404    -0.5081 C.2     
  17 C17            0.4816    -2.8942     0.7584 C.2     
  18 N18            1.1499    -2.0984    -0.0289 N.2     
  19 C19            1.9563    -2.8316    -0.8232 C.2     
  20 C20            2.8793    -2.3027    -1.8572 C.ar    
  21 C21            2.9684    -0.9284    -2.0787 C.ar    
  22 C22            3.6642    -3.1765    -2.6065 C.ar    
  23 C23            4.5214    -2.6795    -3.5675 C.ar    
  24 C24            4.6028    -1.3154    -3.7876 C.ar    
  25 C25            3.8292    -0.4417    -3.0426 C.ar    
  26 Cl26           5.6835    -0.6974    -4.9975 Cl      
  27 Cl27           1.9988     0.1679    -1.1450 Cl      
  28 C28           -0.5265    -2.4615     1.7916 C.3     
  29 C29           -1.8704    -2.2762     1.1353 C.ar    
  30 C30           -2.7139    -3.3606     0.9741 C.ar    
  31 C31           -2.2582    -1.0212     0.7016 C.ar    
  32 C32           -3.4880    -0.8455     0.1004 C.ar    
  33 C33           -4.3395    -1.9356    -0.0698 C.ar    
  34 C34           -3.9456    -3.1968     0.3734 C.ar    
  35 C35           -5.6627    -1.7529    -0.7149 C.ar    
  36 N36           -6.0398    -0.5516    -1.1318 N.ar    
  37 C37           -6.5145    -2.8477    -0.8908 C.ar    
  38 C38           -7.7388    -2.6262    -1.4979 C.ar    
  39 C39           -8.0465    -1.3269    -1.8961 C.ar    
  40 N40           -7.1756    -0.3502    -1.6945 N.ar    
  41 O41           -9.2352    -1.0638    -2.4950 O.3     
  42 C42           -9.4836     0.2907    -2.8767 C.3     
  43 C43          -10.8628     0.3913    -3.5313 C.3     
  44 C44          -11.1287     1.8416    -3.9401 C.3     
  45 C45          -12.4513     1.9215    -4.7051 C.3     
  46 C46          -12.7173     3.3717    -5.1138 C.3     
  47 C47          -12.7984     4.2477    -3.8620 C.3     
  48 C48          -11.4758     4.1677    -3.0970 C.3     
  49 C49          -11.2099     2.7175    -2.6883 C.3     
  50 H50            0.0243    -6.6792     4.2083 H       
  51 H51            0.8861    -4.6625     3.0946 H       
  52 H52           -0.2981    -6.2448    -0.6957 H       
  53 H53           -1.0047    -8.4777     2.8822 H       
  54 H54           -0.4120   -10.3334     0.7452 H       
  55 H55           -1.9730   -10.0204     1.5297 H       
  56 H56           -2.9500   -10.2806    -2.3196 H       
  57 H57            2.2678    -4.9874    -0.9610 H       
  58 H58            3.6023    -4.2410    -2.4354 H       
  59 H59            5.1301    -3.3564    -4.1486 H       
  60 H60            3.8961     0.6218    -3.2184 H       
  61 H61           -0.6027    -3.2242     2.5666 H       
  62 H62           -0.2075    -1.5199     2.2385 H       
  63 H63           -2.4078    -4.3373     1.3186 H       
  64 H64           -1.5975    -0.1772     0.8341 H       
  65 H65           -3.7901     0.1348    -0.2372 H       
  66 H66           -4.6015    -4.0449     0.2440 H       
  67 H67           -6.2262    -3.8356    -0.5634 H       
  68 H68           -8.4345    -3.4365    -1.6585 H       
  69 H69           -9.4532     0.9285    -1.9934 H       
  70 H70           -8.7208     0.6143    -3.5849 H       
  71 H71          -10.8932    -0.2465    -4.4147 H       
  72 H72          -11.6256     0.0677    -2.8231 H       
  73 H73          -10.3181     2.1937    -4.5780 H       
  74 H74          -12.3935     1.2974    -5.5969 H       
  75 H75          -13.2619     1.5693    -4.0671 H       
  76 H76          -11.9067     3.7239    -5.7518 H       
  77 H77          -13.6595     3.4286    -5.6588 H       
  78 H78          -12.9879     5.2808    -4.1532 H       
  79 H79          -13.6090     3.8955    -3.2240 H       
  80 H80          -10.6652     4.5199    -3.7349 H       
  81 H81          -11.5337     4.7918    -2.2052 H       
  82 H82          -12.0205     2.3653    -2.0503 H       
  83 H83          -10.2677     2.6606    -2.1432 H       
@<TRIPOS>BOND
   1    1    2 ar
   2    1    6 ar
   3    1   50 1
   4    2    3 ar
   5    2   51 1
   6    3    4 ar
   7    3   15 1
   8    4    5 ar
   9    4   52 1
  10    5    6 ar
  11    5    7 1
  12    6   53 1
  13    7    8 1
  14    7   11 am
  15    8    9 1
  16    8   54 1
  17    8   55 1
  18    9   10 am
  19    9   12 2
  20   10   11 am
  21   10   56 1
  22   11   13 2
  23   11   14 2
  24   15   16 1
  25   15   17 1
  26   16   19 2
  27   16   57 1
  28   17   18 2
  29   17   28 1
  30   18   19 1
  31   19   20 1
  32   20   21 ar
  33   20   22 ar
  34   21   27 1
  35   21   25 ar
  36   22   23 ar
  37   22   58 1
  38   23   24 ar
  39   23   59 1
  40   24   25 ar
  41   24   26 1
  42   25   60 1
  43   28   29 1
  44   28   61 1
  45   28   62 1
  46   29   30 ar
  47   29   31 ar
  48   30   34 ar
  49   30   63 1
  50   31   32 ar
  51   31   64 1
  52   32   33 ar
  53   32   65 1
  54   33   34 ar
  55   33   35 1
  56   34   66 1
  57   35   36 ar
  58   35   37 ar
  59   36   40 ar
  60   37   38 ar
  61   37   67 1
  62   38   39 ar
  63   38   68 1
  64   39   40 ar
  65   39   41 1
  66   41   42 1
  67   42   43 1
  68   42   69 1
  69   42   70 1
  70   43   44 1
  71   43   71 1
  72   43   72 1
  73   44   45 1
  74   44   49 1
  75   44   73 1
  76   45   46 1
  77   45   74 1
  78   45   75 1
  79   46   47 1
  80   46   76 1
  81   46   77 1
  82   47   48 1
  83   47   78 1
  84   47   79 1
  85   48   49 1
  86   48   80 1
  87   48   81 1
  88   49   82 1
  89   49   83 1

#	End of record

