#	Name: ASD05490137
#	Creating user name:	WinNT
#	Creation time:	15. 06. 2019 21:01

#	Modifying user name:	WinNT
#	Modification time:	15. 06. 2019 21:01

#	Program:	/corina/corina34_cracker 3.40 0067  02.08.2006

@<TRIPOS>MOLECULE
ASD05490137
  57   59    0    0    0
SMALL
NO_CHARGES


@<TRIPOS>ATOM
   1 N1             0.0794     1.3004    -0.1758 N.ar    
   2 C2             0.0749    -0.0237    -0.1592 C.ar    
   3 C3             1.2617    -0.7364    -0.1081 C.ar    
   4 C4             2.4698    -0.0431    -0.0740 C.ar    
   5 C5             2.4359     1.3488    -0.0928 C.ar    
   6 C6             1.2089     1.9940    -0.1446 C.ar    
   7 O7            -1.1063    -0.6903    -0.1922 O.3     
   8 N8             1.1631     3.3833    -0.1638 N.pl3   
   9 N9             3.6852    -0.7276    -0.0217 N.am    
  10 C10            4.3435    -0.9541     1.2673 C.3     
  11 C11            3.8142    -2.2223     1.8857 C.ar    
  12 C12            4.4656    -3.4219     1.6671 C.ar    
  13 C13            2.6805    -2.1851     2.6759 C.ar    
  14 C14            3.9801    -4.5854     2.2338 C.ar    
  15 C15            2.8428    -4.5493     3.0198 C.ar    
  16 C16            2.1951    -3.3481     3.2436 C.ar    
  17 I17            2.1062    -6.3127     3.8783 I       
  18 C18           -2.2959     0.0997    -0.2440 C.3     
  19 C19           -3.5181    -0.8202    -0.2752 C.3     
  20 C20           -4.7955     0.0223    -0.2048 C.3     
  21 C21           -6.0124    -0.8999    -0.3159 C.3     
  22 O22           -5.9373    -1.6406    -1.5357 O.3     
  23 C23           -4.7873    -2.4828    -1.6370 C.3     
  24 C24           -3.5211    -1.6242    -1.5790 C.3     
  25 C25            4.2531    -1.1801    -1.1572 C.2     
  26 O26            5.3110    -1.7759    -1.1117 O.2     
  27 O27            3.6481    -0.9720    -2.3418 O.3     
  28 C28            3.4859    -1.1570    -4.7646 C.3     
  29 C29            4.3170    -1.4871    -3.5231 C.3     
  30 N30            3.6929     2.1299    -0.0577 N.pl3   
  31 O31            4.2909     2.3683    -1.0916 O.2     
  32 O32            4.1291     2.5341     1.0052 O.2     
  33 H33            1.2507    -1.8162    -0.0944 H       
  34 H34            1.9861     3.8961    -0.1411 H       
  35 H35            0.3080     3.8400    -0.1999 H       
  36 H36            5.4189    -1.0454     1.1150 H       
  37 H37            4.1407    -0.1139     1.9314 H       
  38 H38            5.3537    -3.4500     1.0533 H       
  39 H39            2.1744    -1.2471     2.8501 H       
  40 H40            4.4886    -5.5226     2.0625 H       
  41 H41            1.3069    -3.3196     3.8574 H       
  42 H42           -2.3455     0.7400     0.6368 H       
  43 H43           -2.2831     0.7174    -1.1419 H       
  44 H44           -3.4834    -1.5016     0.5749 H       
  45 H45           -4.8282     0.5556     0.7452 H       
  46 H46           -4.8051     0.7386    -1.0263 H       
  47 H47           -6.0241    -1.5896     0.5281 H       
  48 H48           -6.9236    -0.3017    -0.3094 H       
  49 H49           -4.7830    -3.1932    -0.8103 H       
  50 H50           -4.8159    -3.0249    -2.5822 H       
  51 H51           -3.5050    -0.9411    -2.4282 H       
  52 H52           -2.6424    -2.2684    -1.6117 H       
  53 H53            2.5013    -1.6161    -4.6753 H       
  54 H54            3.3762    -0.0760    -4.8515 H       
  55 H55            3.9880    -1.5437    -5.6513 H       
  56 H56            5.3016    -1.0281    -3.6124 H       
  57 H57            4.4266    -2.5681    -3.4362 H       
@<TRIPOS>BOND
   1    1    2 ar
   2    1    6 ar
   3    2    3 ar
   4    2    7 1
   5    3    4 ar
   6    3   33 1
   7    4    5 ar
   8    4    9 1
   9    5    6 ar
  10    5   30 1
  11    6    8 1
  12    7   18 1
  13    8   34 1
  14    8   35 1
  15    9   10 1
  16    9   25 am
  17   10   11 1
  18   10   36 1
  19   10   37 1
  20   11   12 ar
  21   11   13 ar
  22   12   14 ar
  23   12   38 1
  24   13   16 ar
  25   13   39 1
  26   14   15 ar
  27   14   40 1
  28   15   16 ar
  29   15   17 1
  30   16   41 1
  31   18   19 1
  32   18   42 1
  33   18   43 1
  34   19   20 1
  35   19   24 1
  36   19   44 1
  37   20   21 1
  38   20   45 1
  39   20   46 1
  40   21   22 1
  41   21   47 1
  42   21   48 1
  43   22   23 1
  44   23   24 1
  45   23   49 1
  46   23   50 1
  47   24   51 1
  48   24   52 1
  49   25   26 2
  50   25   27 1
  51   27   29 1
  52   28   29 1
  53   28   53 1
  54   28   54 1
  55   28   55 1
  56   29   56 1
  57   29   57 1
  58   30   31 2
  59   30   32 2

#	End of record

