#	Name: ASD01042006
#	Creating user name:	WinNT
#	Creation time:	15. 06. 2019 18:58

#	Modifying user name:	WinNT
#	Modification time:	15. 06. 2019 18:58

#	Program:	/corina/corina34_cracker 3.40 0067  02.08.2006

@<TRIPOS>MOLECULE
ASD01042006
  79   83    0    0    0
SMALL
NO_CHARGES


@<TRIPOS>ATOM
   1 C1            -0.7329     1.1908    -1.4680 C.3     
   2 C2            -0.7684    -0.2358    -2.0096 C.3     
   3 C3             0.0357    -0.3287    -3.3069 C.3     
   4 C4             1.4619     0.1913    -3.1212 C.3     
   5 C5             1.5055     1.5995    -2.5270 C.3     
   6 C6             0.7143     1.6114    -1.2124 C.3     
   7 C7             2.2444     0.2002    -4.4056 C.2     
   8 C8             3.3108     0.9285    -4.5582 C.2     
   9 C9             3.8359     1.7934    -3.4426 C.3     
  10 C10            2.9915     1.6564    -2.1852 C.3     
  11 C11            3.9672     3.2341    -3.9111 C.3     
  12 C12            4.4289     4.1193    -2.7543 C.3     
  13 C13            3.3583     4.1255    -1.6736 C.3     
  14 C14            3.2739     2.7082    -1.1026 C.3     
  15 C15            5.0837     3.4945    -4.9386 C.3     
  16 C16            5.4929     4.9488    -4.7104 C.3     
  17 C17            4.6711     5.4466    -3.5072 C.3     
  18 C18            5.5139     6.3976    -2.6492 C.3     
  19 C19            6.0630     7.5020    -3.5151 C.2     
  20 C20            7.3766     7.6689    -3.6253 C.2     
  21 C21            7.9127     8.7470    -4.4706 C.2     
  22 C22            9.2263     8.9139    -4.5808 C.2     
  23 C23           10.1669     7.9989    -3.8400 C.3     
  24 C24            9.7755    10.0183    -5.4467 C.3     
  25 C25            4.6400     7.0001    -1.5473 C.3     
  26 C26            5.7701     3.6394    -2.1792 C.3     
  27 O27           -0.2291    -1.1373    -1.0402 O.3     
  28 C28            0.0977    -1.8039    -3.7293 C.3     
  29 C29            2.6635     3.7417    -4.5363 C.3     
  30 C30           -0.6672     0.4653    -4.4087 C.3     
  31 C31            3.1850     0.2562    -1.5746 C.3     
  32 O32            2.2319    -0.6003    -2.2083 O.3     
  33 O33            4.5093    -0.2155    -1.8128 O.3     
  34 H34           -1.1978     1.8795    -2.1695 H       
  35 H35           -1.2848     1.2295    -0.5234 H       
  36 H36           -1.8067    -0.5165    -2.2134 H       
  37 H37            1.1471     2.3637    -3.2091 H       
  38 H38            0.7171     2.6243    -0.8059 H       
  39 H39            1.1719     0.9318    -0.4997 H       
  40 H40            1.9244    -0.4177    -5.2330 H       
  41 H41            3.8347     0.9110    -5.5023 H       
  42 H42            4.8528     1.4185    -3.2173 H       
  43 H43            3.6496     4.8157    -0.8702 H       
  44 H44            2.3912     4.4390    -2.0567 H       
  45 H45            2.4680     2.6817    -0.3634 H       
  46 H46            4.1902     2.4506    -0.5776 H       
  47 H47            5.9167     2.8208    -4.7756 H       
  48 H48            4.6828     3.3710    -5.9455 H       
  49 H49            6.5569     5.0176    -4.4962 H       
  50 H50            5.2518     5.5459    -5.5916 H       
  51 H51            3.7521     5.9261    -3.8126 H       
  52 H52            6.3384     5.8456    -2.1980 H       
  53 H53            5.3889     8.1578    -4.0460 H       
  54 H54            8.0507     7.0131    -3.0944 H       
  55 H55            7.2386     9.4028    -5.0015 H       
  56 H56           10.4072     7.1401    -4.4668 H       
  57 H57           11.0822     8.5384    -3.5965 H       
  58 H58            9.6917     7.6562    -2.9208 H       
  59 H59            8.9510    10.5704    -5.8979 H       
  60 H60           10.3746    10.6944    -4.8368 H       
  61 H61           10.3980     9.5891    -6.2317 H       
  62 H62            3.7328     7.4132    -1.9882 H       
  63 H63            4.3743     6.2243    -0.8293 H       
  64 H64            5.1904     7.7921    -1.0394 H       
  65 H65            6.5306     3.6667    -2.9596 H       
  66 H66            6.0679     4.2920    -1.3586 H       
  67 H67            5.6633     2.6189    -1.8115 H       
  68 H68           -0.7072    -1.1432    -0.1997 H       
  69 H69           -0.9133    -2.1792    -3.8879 H       
  70 H70            0.6677    -1.8935    -4.6541 H       
  71 H71            0.5826    -2.3862    -2.9458 H       
  72 H72            1.8949     3.8122    -3.7667 H       
  73 H73            2.8299     4.7255    -4.9750 H       
  74 H74            2.3385     3.0482    -5.3120 H       
  75 H75           -0.7482     1.5100    -4.1084 H       
  76 H76           -0.0904     0.3960    -5.3309 H       
  77 H77           -1.6641     0.0558    -4.5720 H       
  78 H78            2.9946     0.3004    -0.5020 H       
  79 H79            4.6853    -1.0940    -1.4489 H       
@<TRIPOS>BOND
   1    1    2 1
   2    1    6 1
   3    1   34 1
   4    1   35 1
   5    2    3 1
   6    2   27 1
   7    2   36 1
   8    3    4 1
   9    3   28 1
  10    3   30 1
  11    4    5 1
  12    4    7 1
  13    4   32 1
  14    5    6 1
  15    5   10 1
  16    5   37 1
  17    6   38 1
  18    6   39 1
  19    7    8 2
  20    7   40 1
  21    8    9 1
  22    8   41 1
  23    9   10 1
  24    9   11 1
  25    9   42 1
  26   10   14 1
  27   10   31 1
  28   11   12 1
  29   11   15 1
  30   11   29 1
  31   12   13 1
  32   12   26 1
  33   12   17 1
  34   13   14 1
  35   13   43 1
  36   13   44 1
  37   14   45 1
  38   14   46 1
  39   15   16 1
  40   15   47 1
  41   15   48 1
  42   16   17 1
  43   16   49 1
  44   16   50 1
  45   17   18 1
  46   17   51 1
  47   18   19 1
  48   18   25 1
  49   18   52 1
  50   19   20 2
  51   19   53 1
  52   20   21 1
  53   20   54 1
  54   21   22 2
  55   21   55 1
  56   22   23 1
  57   22   24 1
  58   23   56 1
  59   23   57 1
  60   23   58 1
  61   24   59 1
  62   24   60 1
  63   24   61 1
  64   25   62 1
  65   25   63 1
  66   25   64 1
  67   26   65 1
  68   26   66 1
  69   26   67 1
  70   27   68 1
  71   28   69 1
  72   28   70 1
  73   28   71 1
  74   29   72 1
  75   29   73 1
  76   29   74 1
  77   30   75 1
  78   30   76 1
  79   30   77 1
  80   31   33 1
  81   31   32 1
  82   31   78 1
  83   33   79 1

#	End of record

