#	Name: ASD02408144
#	Creating user name:	WinNT
#	Creation time:	15. 06. 2019 20:21

#	Modifying user name:	WinNT
#	Modification time:	15. 06. 2019 20:21

#	Program:	/corina/corina34_cracker 3.40 0067  02.08.2006

@<TRIPOS>MOLECULE
ASD02408144
  48   51    0    0    0
SMALL
NO_CHARGES


@<TRIPOS>ATOM
   1 C1            -0.0168     1.3846     0.0097 C.ar    
   2 C2             0.0021    -0.0041     0.0020 C.ar    
   3 C3             1.1936     2.0738     0.0018 C.ar    
   4 C4             2.3869     1.3819    -0.0081 C.ar    
   5 C5             2.3928    -0.0009    -0.0102 C.ar    
   6 C6             1.1948    -0.6929    -0.0044 C.ar    
   7 C7             1.1995     3.5807     0.0036 C.3     
   8 C8             1.0879     4.0818     1.4204 C.2     
   9 N9             1.0754     5.4105     1.6421 N.am    
  10 N10            1.0010     3.2140     2.3916 N.2     
  11 C11            0.8993     3.6012     3.6695 C.2     
  12 C12            0.8856     4.9727     3.9729 C.2     
  13 C13            0.9761     5.8942     2.8982 C.2     
  14 N14            0.8088     2.6676     4.6726 N.pl3   
  15 C15            0.8234     1.2392     4.3473 C.3     
  16 O16            0.9687     7.0955     3.1048 O.2     
  17 C17           -1.4416    -0.4681    -0.0010 C.3     
  18 C18           -2.1925     0.8258    -0.3952 C.3     
  19 O19           -1.2920     1.8602     0.0363 O.3     
  20 C20            1.3291     0.4464     5.5542 C.3     
  21 C21            1.3442    -1.0453     5.2144 C.3     
  22 C22           -0.0726    -1.5024     4.8613 C.3     
  23 C23           -0.5783    -0.7096     3.6544 C.3     
  24 C24           -0.5934     0.7822     3.9941 C.3     
  25 C25            0.7782     5.4272     5.3266 C.1     
  26 N26            0.6929     5.7877     6.4005 N.1     
  27 H27            3.3215     1.9231    -0.0145 H       
  28 H28            3.3293    -0.5388    -0.0164 H       
  29 H29            1.1949    -1.7729    -0.0057 H       
  30 H30            2.1292     3.9410    -0.4370 H       
  31 H31            0.3549     3.9481    -0.5794 H       
  32 H32            1.1386     6.0241     0.8935 H       
  33 H33            0.7353     2.9538     5.5965 H       
  34 H34            1.4832     1.0669     3.4970 H       
  35 H35           -1.5977    -1.2506    -0.7435 H       
  36 H36           -1.7438    -0.8074     0.9898 H       
  37 H37           -2.3442     0.8710    -1.4736 H       
  38 H38           -3.1434     0.8966     0.1329 H       
  39 H39            2.3384     0.7720     5.8057 H       
  40 H40            0.6692     0.6187     6.4044 H       
  41 H41            2.0041    -1.2176     4.3641 H       
  42 H42            1.7045    -1.6102     6.0742 H       
  43 H43           -0.0618    -2.5651     4.6192 H       
  44 H44           -0.7324    -1.3301     5.7116 H       
  45 H45            0.0816    -0.8819     2.8041 H       
  46 H46           -1.5876    -1.0352     3.4028 H       
  47 H47           -1.2533     0.9544     4.8444 H       
  48 H48           -0.9537     1.3470     3.1343 H       
@<TRIPOS>BOND
   1    1    2 ar
   2    1    3 ar
   3    1   19 1
   4    2   17 1
   5    2    6 ar
   6    3    4 ar
   7    3    7 1
   8    4    5 ar
   9    4   27 1
  10    5    6 ar
  11    5   28 1
  12    6   29 1
  13    7    8 1
  14    7   30 1
  15    7   31 1
  16    8    9 1
  17    8   10 2
  18    9   13 am
  19    9   32 1
  20   10   11 1
  21   11   12 2
  22   11   14 1
  23   12   13 1
  24   12   25 1
  25   13   16 2
  26   14   15 1
  27   14   33 1
  28   15   20 1
  29   15   24 1
  30   15   34 1
  31   17   18 1
  32   17   35 1
  33   17   36 1
  34   18   19 1
  35   18   37 1
  36   18   38 1
  37   20   21 1
  38   20   39 1
  39   20   40 1
  40   21   22 1
  41   21   41 1
  42   21   42 1
  43   22   23 1
  44   22   43 1
  45   22   44 1
  46   23   24 1
  47   23   45 1
  48   23   46 1
  49   24   47 1
  50   24   48 1
  51   25   26 3

#	End of record

