#	Name: ASD09720045
#	Creating user name:	WinNT
#	Creation time:	15. 06. 2019 21:22

#	Modifying user name:	WinNT
#	Modification time:	15. 06. 2019 21:22

#	Program:	/corina/corina34_cracker 3.40 0067  02.08.2006

@<TRIPOS>MOLECULE
ASD09720045
  40   41    0    0    0
SMALL
NO_CHARGES


@<TRIPOS>ATOM
   1 C1            -0.0025     1.4722     0.0320 C.ar    
   2 C2             0.0021    -0.0041     0.0020 C.2     
   3 N3             0.9221    -0.6347    -0.6526 N.2     
   4 C4            -1.0653    -0.7759     0.7342 C.3     
   5 O5             1.8461     0.0862    -1.4472 O.3     
   6 S6            -0.7881    -2.5543     0.5081 S.3     
   7 C7            -2.1100    -3.2804     1.4190 C.ar    
   8 C8            -2.2358    -4.6631     1.4818 C.ar    
   9 C9            -3.2730    -5.2286     2.1966 C.ar    
  10 C10           -4.1864    -4.4208     2.8492 C.ar    
  11 C11           -4.0648    -3.0445     2.7886 C.ar    
  12 C12           -3.0262    -2.4720     2.0812 C.ar    
  13 C13            1.2014     2.1767     0.0054 C.ar    
  14 C14            1.1892     3.5612     0.0333 C.ar    
  15 C15           -0.0180     4.2444     0.0877 C.ar    
  16 C16           -1.2122     3.5476     0.1142 C.ar    
  17 C17           -1.2120     2.1684     0.0814 C.ar    
  18 O18            2.3596     4.2514     0.0079 O.3     
  19 H19           -2.1481     4.0849     0.1569 H       
  20 C20            2.2727     5.6774     0.0392 C.3     
  21 C21            3.6807     6.2751     0.0040 C.3     
  22 C22            3.5876     7.8019     0.0375 C.3     
  23 H23           -1.0247    -0.5340     1.7962 H       
  24 H24           -2.0444    -0.5075     0.3376 H       
  25 H25            2.4956    -0.4706    -1.8980 H       
  26 H26           -1.5232    -5.2944     0.9718 H       
  27 H27           -3.3713    -6.3030     2.2458 H       
  28 H28           -4.9969    -4.8659     3.4073 H       
  29 H29           -4.7801    -2.4168     3.2992 H       
  30 H30           -2.9318    -1.3972     2.0343 H       
  31 H31            2.1400     1.6440    -0.0366 H       
  32 H32           -0.0246     5.3242     0.1097 H       
  33 H33           -2.1464     1.6273     0.1023 H       
  34 H34            1.7083     6.0261    -0.8257 H       
  35 H35            1.7677     5.9907     0.9529 H       
  36 H36            4.2451     5.9265     0.8689 H       
  37 H37            4.1857     5.9618    -0.9098 H       
  38 H38            3.0232     8.1506    -0.8274 H       
  39 H39            3.0826     8.1152     0.9512 H       
  40 H40            4.5907     8.2277     0.0124 H       
@<TRIPOS>BOND
   1    1    2 1
   2    1   13 ar
   3    1   17 ar
   4    2    3 2
   5    2    4 1
   6    3    5 1
   7    4    6 1
   8    4   23 1
   9    4   24 1
  10    5   25 1
  11    6    7 1
  12    7    8 ar
  13    7   12 ar
  14    8    9 ar
  15    8   26 1
  16    9   10 ar
  17    9   27 1
  18   10   11 ar
  19   10   28 1
  20   11   12 ar
  21   11   29 1
  22   12   30 1
  23   13   14 ar
  24   13   31 1
  25   14   15 ar
  26   14   18 1
  27   15   16 ar
  28   15   32 1
  29   16   17 ar
  30   16   19 1
  31   17   33 1
  32   18   20 1
  33   20   21 1
  34   20   34 1
  35   20   35 1
  36   21   22 1
  37   21   36 1
  38   21   37 1
  39   22   38 1
  40   22   39 1
  41   22   40 1

#	End of record

