#	Name: ASD00171049
#	Creating user name:	WinNT
#	Creation time:	15. 06. 2019 18:32

#	Modifying user name:	WinNT
#	Modification time:	15. 06. 2019 18:32

#	Program:	/corina/corina34_cracker 3.40 0067  02.08.2006

@<TRIPOS>MOLECULE
ASD00171049
  52   55    0    0    0
SMALL
NO_CHARGES


@<TRIPOS>ATOM
   1 C1            -0.1420     1.4812     0.0024 C.ar    
   2 C2            -0.0600     0.0912     0.0010 C.ar    
   3 C3            -1.1975    -0.6648     0.0090 C.ar    
   4 C4            -2.4523    -0.0435     0.0190 C.ar    
   5 C5            -2.5376     1.3552     0.0208 C.ar    
   6 C6            -1.3868     2.1100     0.0181 C.ar    
   7 Cl7           -1.4847     3.8432     0.0209 Cl      
   8 C8            -3.6759    -0.8557     0.0270 C.2     
   9 C9            -4.8858    -0.2545     0.0366 C.2     
  10 C10           -6.1034    -1.0628     0.0446 C.2     
  11 N11           -7.3069    -0.4671     0.1595 N.am    
  12 O12           -6.0306    -2.2740    -0.0524 O.2     
  13 C13           -7.4058     0.9805     0.3931 C.3     
  14 C14           -8.2841     1.5951    -0.7038 C.3     
  15 N15           -9.5211     0.8088    -0.8104 N.am    
  16 C16           -9.4223    -0.6388    -1.0441 C.3     
  17 C17           -8.5440    -1.2525     0.0472 C.3     
  18 S18            1.3308     2.4483    -0.0085 S.3     
  19 C19            2.6019     1.2363     0.1326 C.ar    
  20 C20          -10.7246     1.4045    -0.6956 C.2     
  21 C21          -11.9846     0.5853    -0.8072 C.3     
  22 O22          -10.7936     2.5998    -0.5025 O.2     
  23 C23            3.2186     0.7512    -1.0082 C.ar    
  24 C24            4.2215    -0.2052    -0.8959 C.ar    
  25 C25            4.5960    -0.6673     0.3791 C.ar    
  26 C26            3.9625    -0.1660     1.5188 C.ar    
  27 C27            2.9834     0.7766     1.3933 C.ar    
  28 N28            5.0058    -0.8667    -1.8145 N.pl3   
  29 C29            5.8563    -1.7243    -1.1682 C.2     
  30 C30            5.6590    -1.6513     0.1572 C.2     
  31 H31            0.9064    -0.3909    -0.0067 H       
  32 H32           -1.1290    -1.7426     0.0072 H       
  33 H33           -3.5031     1.8392     0.0285 H       
  34 H34           -3.6086    -1.9336     0.0252 H       
  35 H35           -4.9531     0.8234     0.0384 H       
  36 H36           -7.8568     1.1637     1.3684 H       
  37 H37           -6.4114     1.4255     0.3577 H       
  38 H38           -8.5268     2.6254    -0.4436 H       
  39 H39           -7.7521     1.5710    -1.6548 H       
  40 H40          -10.4167    -1.0838    -1.0087 H       
  41 H41           -8.9713    -0.8220    -2.0194 H       
  42 H42           -8.3021    -2.2826    -0.2142 H       
  43 H43           -9.0738    -1.2288     0.9995 H       
  44 H44          -11.9926    -0.1769    -0.0281 H       
  45 H45          -12.8519     1.2348    -0.6891 H       
  46 H46          -12.0205     0.1054    -1.7853 H       
  47 H47            2.9217     1.1140    -1.9811 H       
  48 H48            4.2496    -0.5209     2.4976 H       
  49 H49            2.4950     1.1633     2.2755 H       
  50 H50            4.9622    -0.7440    -2.7758 H       
  51 H51            6.5786    -2.3640    -1.6533 H       
  52 H52            6.1842    -2.2117     0.9165 H       
@<TRIPOS>BOND
   1    1    2 ar
   2    1   18 1
   3    1    6 ar
   4    2    3 ar
   5    2   31 1
   6    3    4 ar
   7    3   32 1
   8    4    5 ar
   9    4    8 1
  10    5    6 ar
  11    5   33 1
  12    6    7 1
  13    8    9 2
  14    8   34 1
  15    9   10 1
  16    9   35 1
  17   10   11 am
  18   10   12 2
  19   11   13 1
  20   11   17 1
  21   13   14 1
  22   13   36 1
  23   13   37 1
  24   14   15 1
  25   14   38 1
  26   14   39 1
  27   15   16 1
  28   15   20 am
  29   16   17 1
  30   16   40 1
  31   16   41 1
  32   17   42 1
  33   17   43 1
  34   18   19 1
  35   19   23 ar
  36   19   27 ar
  37   20   21 1
  38   20   22 2
  39   21   44 1
  40   21   45 1
  41   21   46 1
  42   23   24 ar
  43   23   47 1
  44   24   25 ar
  45   24   28 1
  46   25   26 ar
  47   25   30 1
  48   26   27 ar
  49   26   48 1
  50   27   49 1
  51   28   29 1
  52   28   50 1
  53   29   30 2
  54   29   51 1
  55   30   52 1

#	End of record

