#	Name: ASD00450063
#	Creating user name:	WinNT
#	Creation time:	15. 06. 2019 18:36

#	Modifying user name:	WinNT
#	Modification time:	15. 06. 2019 18:36

#	Program:	/corina/corina34_cracker 3.40 0067  02.08.2006

@<TRIPOS>MOLECULE
ASD00450063
  49   51    0    0    0
SMALL
NO_CHARGES


@<TRIPOS>ATOM
   1 C1             0.3457     0.9850    -0.1876 C.ar    
   2 C2             0.0129    -0.3379     0.1428 C.ar    
   3 C3             0.9926    -1.1978     0.6093 C.ar    
   4 C4             2.2988    -0.7572     0.7508 C.ar    
   5 C5             2.6392     0.5455     0.4281 C.ar    
   6 C6             1.6733     1.4231    -0.0408 C.ar    
   7 C7            -0.6859     1.9045    -0.6895 C.2     
   8 O8            -1.3255     2.5850     0.0901 O.2     
   9 N9            -0.9229     1.9934    -2.0132 N.am    
  10 N10            2.0163     2.7298    -0.3647 N.pl3   
  11 C11            3.1446     3.3208     0.2142 C.ar    
  12 C12            3.7693     4.3932    -0.4137 C.ar    
  13 C13            3.6399     2.8417     1.4196 C.ar    
  14 C14            4.7538     3.4273     1.9891 C.ar    
  15 C15            5.3768     4.4905     1.3605 C.ar    
  16 C16            4.8840     4.9747     0.1621 C.ar    
  17 F17            3.2467    -1.6047     1.2073 F       
  18 F18            3.2881     4.8657    -1.5843 F       
  19 I19            7.0654     5.3748     2.2298 I       
  20 O20           -1.2646    -0.7724     0.0060 O.3     
  21 C21           -2.1255    -0.5586     1.0367 C.ar    
  22 C22           -3.4312    -1.0416     0.9681 C.ar    
  23 C23           -4.3046    -0.8203     2.0225 C.ar    
  24 C24           -1.7055     0.1348     2.1596 C.ar    
  25 C25           -2.5822     0.3515     3.2071 C.ar    
  26 C26           -3.8789    -0.1223     3.1374 C.ar    
  27 N27           -3.8597    -1.7474    -0.1616 N.am    
  28 S28           -3.0784    -3.1347    -0.6168 S.o2    
  29 O29           -3.7650    -3.6252    -1.7602 O.2     
  30 O30           -1.6899    -2.8325    -0.6143 O.2     
  31 N31           -3.3167    -4.2485     0.5853 N.am    
  32 C32           -5.7174    -1.3402     1.9527 C.3     
  33 H33            0.7378    -2.2158     0.8642 H       
  34 H34            3.6600     0.8793     0.5422 H       
  35 H35           -0.4129     1.4508    -2.6348 H       
  36 H36           -1.6036     2.6001    -2.3443 H       
  37 H37            1.4736     3.2325    -0.9921 H       
  38 H38            3.1544     2.0119     1.9117 H       
  39 H39            5.1387     3.0547     2.9269 H       
  40 H40            5.3701     5.8076    -0.3242 H       
  41 H41           -0.6929     0.5060     2.2175 H       
  42 H42           -2.2528     0.8923     4.0820 H       
  43 H43           -4.5600     0.0497     3.9577 H       
  44 H44           -4.6144    -1.4240    -0.6781 H       
  45 H45           -3.3435    -5.1943     0.3718 H       
  46 H46           -3.4296    -3.9550     1.5029 H       
  47 H47           -5.7555    -2.3459     2.3712 H       
  48 H48           -6.3746    -0.6840     2.5234 H       
  49 H49           -6.0439    -1.3666     0.9131 H       
@<TRIPOS>BOND
   1    1    2 ar
   2    1    6 ar
   3    1    7 1
   4    2    3 ar
   5    2   20 1
   6    3    4 ar
   7    3   33 1
   8    4    5 ar
   9    4   17 1
  10    5    6 ar
  11    5   34 1
  12    6   10 1
  13    7    8 2
  14    7    9 am
  15    9   35 1
  16    9   36 1
  17   10   11 1
  18   10   37 1
  19   11   13 ar
  20   11   12 ar
  21   12   16 ar
  22   12   18 1
  23   13   14 ar
  24   13   38 1
  25   14   15 ar
  26   14   39 1
  27   15   16 ar
  28   15   19 1
  29   16   40 1
  30   20   21 1
  31   21   22 ar
  32   21   24 ar
  33   22   23 ar
  34   22   27 1
  35   23   26 ar
  36   23   32 1
  37   24   25 ar
  38   24   41 1
  39   25   26 ar
  40   25   42 1
  41   26   43 1
  42   27   28 am
  43   27   44 1
  44   28   29 2
  45   28   30 2
  46   28   31 am
  47   31   45 1
  48   31   46 1
  49   32   47 1
  50   32   48 1
  51   32   49 1

#	End of record

