#	Name: ASD01885318
#	Creating user name:	WinNT
#	Creation time:	15. 06. 2019 19:49

#	Modifying user name:	WinNT
#	Modification time:	15. 06. 2019 19:49

#	Program:	/corina/corina34_cracker 3.40 0067  02.08.2006

@<TRIPOS>MOLECULE
ASD01885318
  53   57    0    0    0
SMALL
NO_CHARGES


@<TRIPOS>ATOM
   1 C1             0.9867     1.3786     0.8160 C.2     
   2 C2             1.1090    -0.9276     0.1930 C.2     
   3 C3             0.2698    -0.6421    -0.9061 C.2     
   4 C4            -0.1778     0.6121    -1.1112 C.2     
   5 N5             0.1719     1.6219    -0.2629 N.pl3   
   6 C6            -0.1188     2.9538    -0.2163 C.2     
   7 N7             0.4907     3.4527     0.8266 N.2     
   8 N8             1.1423     2.5327     1.4467 N.2     
   9 C9            -0.9839     3.7118    -1.1900 C.3     
  10 C10           -2.4360     3.6869    -0.7086 C.3     
  11 N11            1.5701    -2.2235     0.4039 N.pl3   
  12 C12            1.4655     0.0783     1.0497 C.2     
  13 C13           -3.4575     4.5041    -1.5022 C.3     
  14 C14           -3.4619     2.9768    -1.5941 C.3     
  15 C15            2.3606    -0.2049     2.2285 C.3     
  16 C16            3.0012    -2.5365     0.2906 C.3     
  17 C17            3.1752    -3.6997    -0.6910 C.3     
  18 C18            2.3081    -4.8771    -0.2395 C.3     
  19 C19            0.8359    -4.4591    -0.2420 C.3     
  20 C20            0.6360    -3.3034     0.7502 C.3     
  21 O21            2.4927    -5.9753    -1.1349 O.3     
  22 C22            2.2518    -7.2202    -0.6432 C.ar    
  23 C23            2.5187    -8.3393    -1.4221 C.ar    
  24 C24            2.2734    -9.6041    -0.9196 C.ar    
  25 C25            1.7623    -9.7544     0.3586 C.ar    
  26 C26            1.4959    -8.6397     1.1346 C.ar    
  27 C27            1.7452    -7.3741     0.6376 C.ar    
  28 F28            3.0170    -8.1919    -2.6692 F       
  29 F29            1.5230   -10.9905     0.8486 F       
  30 F30            3.6987    -0.1206     1.8289 F       
  31 F31            2.1150     0.7334     3.2366 F       
  32 F32            2.0992    -1.4906     2.7144 F       
  33 H33           -0.0143    -1.4322    -1.5853 H       
  34 H34           -0.8192     0.8200    -1.9548 H       
  35 H35           -0.6401     4.7441    -1.2543 H       
  36 H36           -0.9191     3.2453    -2.1731 H       
  37 H37           -2.5723     3.6227     0.3710 H       
  38 H38           -4.2660     4.9770    -0.9448 H       
  39 H39           -3.0950     5.0593    -2.3673 H       
  40 H40           -3.1023     2.5273    -2.5197 H       
  41 H41           -4.2733     2.4450    -1.0972 H       
  42 H42            3.5382    -1.6630    -0.0791 H       
  43 H43            3.3914    -2.8214     1.2677 H       
  44 H44            2.8686    -3.3834    -1.6880 H       
  45 H45            4.2213    -4.0051    -0.7114 H       
  46 H46            2.5987    -5.1770     0.7674 H       
  47 H47            0.5513    -4.1356    -1.2432 H       
  48 H48            0.2170    -5.3050     0.0572 H       
  49 H49            0.8373    -3.6496     1.7640 H       
  50 H50           -0.3881    -2.9360     0.6839 H       
  51 H51            2.4802   -10.4748    -1.5243 H       
  52 H52            1.0969    -8.7590     2.1311 H       
  53 H53            1.5415    -6.5052     1.2458 H       
@<TRIPOS>BOND
   1    1   12 1
   2    1    5 1
   3    1    8 2
   4    2    3 1
   5    2   11 1
   6    2   12 2
   7    3    4 2
   8    3   33 1
   9    4    5 1
  10    4   34 1
  11    5    6 1
  12    6    7 2
  13    6    9 1
  14    7    8 1
  15    9   10 1
  16    9   35 1
  17    9   36 1
  18   10   13 1
  19   10   14 1
  20   10   37 1
  21   11   16 1
  22   11   20 1
  23   12   15 1
  24   13   14 1
  25   13   38 1
  26   13   39 1
  27   14   40 1
  28   14   41 1
  29   15   30 1
  30   15   31 1
  31   15   32 1
  32   16   17 1
  33   16   42 1
  34   16   43 1
  35   17   18 1
  36   17   44 1
  37   17   45 1
  38   18   19 1
  39   18   21 1
  40   18   46 1
  41   19   20 1
  42   19   47 1
  43   19   48 1
  44   20   49 1
  45   20   50 1
  46   21   22 1
  47   22   23 ar
  48   22   27 ar
  49   23   24 ar
  50   23   28 1
  51   24   25 ar
  52   24   51 1
  53   25   26 ar
  54   25   29 1
  55   26   27 ar
  56   26   52 1
  57   27   53 1

#	End of record

