#	Name: ASD03092574
#	Creating user name:	WinNT
#	Creation time:	15. 06. 2019 20:32

#	Modifying user name:	WinNT
#	Modification time:	15. 06. 2019 20:32

#	Program:	/corina/corina34_cracker 3.40 0067  02.08.2006

@<TRIPOS>MOLECULE
ASD03092574
  42   44    0    0    0
SMALL
NO_CHARGES


@<TRIPOS>ATOM
   1 N1            -0.0169     1.3951     0.0097 N.pl3   
   2 N2             0.0021    -0.0041     0.0020 N.2     
   3 C3             1.2418    -0.4097    -0.0120 C.2     
   4 C4             2.0751     0.7313    -0.0138 C.2     
   5 C5             1.2504     1.8383    -0.0000 C.2     
   6 C6             3.5493     0.7384    -0.0274 C.2     
   7 O7             4.1523     1.7944    -0.0271 O.2     
   8 N8             4.2287    -0.4256    -0.0402 N.am    
   9 C9            -1.2173     2.2349     0.0202 C.3     
  10 C10           -2.1156     1.8553    -1.1587 C.3     
  11 F11           -2.4861     0.5107    -1.0486 F       
  12 F12           -3.2619     2.6572    -1.1486 F       
  13 F13           -1.4202     2.0508    -2.3568 F       
  14 C14            5.6936    -0.4186    -0.0537 C.3     
  15 N15            7.5939    -5.7113    -0.3742 N.pl3   
  16 C16            7.6381    -5.8624    -1.7334 C.2     
  17 C17            7.2273    -4.7338    -2.3329 C.2     
  18 C18            6.8926    -3.7821    -1.2708 C.ar    
  19 C19            6.4206    -2.4681    -1.2583 C.ar    
  20 C20            6.2026    -1.8369    -0.0664 C.ar    
  21 C21            6.4468    -2.4916     1.1333 C.ar    
  22 C22            6.9131    -3.7877     1.1441 C.ar    
  23 C23            7.1421    -4.4497    -0.0580 C.ar    
  24 C24            8.0827    -7.1108    -2.4510 C.3     
  25 C25            7.9659    -6.7406     0.5997 C.3     
  26 F26            8.9549    -7.5648     0.0522 F       
  27 F27            8.4566    -6.1303     1.7589 F       
  28 H28            1.5732    -1.4376    -0.0201 H       
  29 H29            1.5666     2.8709     0.0025 H       
  30 H30            3.7477    -1.2679    -0.0405 H       
  31 H31           -1.7591     2.0825     0.9537 H       
  32 H32           -0.9286     3.2825    -0.0655 H       
  33 H33            6.0462     0.1020    -0.9441 H       
  34 H34            6.0627     0.0920     0.8357 H       
  35 H35            7.1569    -4.5604    -3.3965 H       
  36 H36            6.2292    -1.9522    -2.1877 H       
  37 H37            6.2697    -1.9794     2.0675 H       
  38 H38            7.1004    -4.2883     2.0826 H       
  39 H39            7.2231    -7.7603    -2.6167 H       
  40 H40            8.5243    -6.8407    -3.4102 H       
  41 H41            8.8222    -7.6344    -1.8451 H       
  42 H42            7.0898    -7.3399     0.8475 H       
@<TRIPOS>BOND
   1    1    2 1
   2    1    5 1
   3    1    9 1
   4    2    3 2
   5    3    4 1
   6    3   28 1
   7    4    5 2
   8    4    6 1
   9    5   29 1
  10    6    7 2
  11    6    8 am
  12    8   14 1
  13    8   30 1
  14    9   10 1
  15    9   31 1
  16    9   32 1
  17   10   11 1
  18   10   12 1
  19   10   13 1
  20   14   20 1
  21   14   33 1
  22   14   34 1
  23   15   16 1
  24   15   23 1
  25   15   25 1
  26   16   17 2
  27   16   24 1
  28   17   18 1
  29   17   35 1
  30   18   19 ar
  31   18   23 ar
  32   19   20 ar
  33   19   36 1
  34   20   21 ar
  35   21   22 ar
  36   21   37 1
  37   22   23 ar
  38   22   38 1
  39   24   39 1
  40   24   40 1
  41   24   41 1
  42   25   26 1
  43   25   27 1
  44   25   42 1

#	End of record

