#	Name: ASD01881324
#	Creating user name:	WinNT
#	Creation time:	15. 06. 2019 19:42

#	Modifying user name:	WinNT
#	Modification time:	15. 06. 2019 19:42

#	Program:	/corina/corina34_cracker 3.40 0067  02.08.2006

@<TRIPOS>MOLECULE
ASD01881324
  57   58    0    0    0
SMALL
NO_CHARGES


@<TRIPOS>ATOM
   1 C1            -0.0179     1.4715     0.0101 C.2     
   2 C2             0.0021    -0.0041     0.0020 C.ar    
   3 C3             1.2211    -0.6901    -0.0133 C.ar    
   4 C4             1.2336    -2.0727    -0.0204 C.ar    
   5 C5             0.0454    -2.7783    -0.0128 C.ar    
   6 C6            -1.1691    -2.1051     0.0024 C.ar    
   7 C7            -1.1958    -0.7218     0.0154 C.ar    
   8 O8             1.0258     2.0932     0.0035 O.2     
   9 O9            -1.1937     2.1292     0.0193 O.3     
  10 O10           -2.3338    -2.8064     0.0093 O.3     
  11 C11           -2.2327    -4.2318     0.0003 C.3     
  12 C12           -3.6355    -4.8426     0.0100 C.3     
  13 C13           -3.5274    -6.3687     0.0003 C.3     
  14 C14           -4.9302    -6.9795     0.0099 C.3     
  15 O15           -4.8291    -8.4049     0.0009 O.3     
  16 C16           -5.9914    -9.1048     0.0078 C.ar    
  17 C17           -5.9618   -10.4922    -0.0004 C.ar    
  18 C18           -7.1460   -11.2082     0.0066 C.ar    
  19 C19           -8.3734   -10.5209     0.0220 C.ar    
  20 C20           -8.3837    -9.1196     0.0301 C.ar    
  21 C21           -7.2077    -8.4274     0.0288 C.ar    
  22 C22           -9.6345   -11.2663     0.0291 C.2     
  23 C23          -10.9472   -10.5263     0.0457 C.3     
  24 C24          -12.0998   -11.5325     0.0502 C.3     
  25 C25          -12.0711   -12.3350     1.3525 C.3     
  26 O26           -9.6220   -12.4796     0.0217 O.2     
  27 C27          -13.4301   -10.7845    -0.0588 C.3     
  28 C28           -4.6414   -11.2184    -0.0174 C.3     
  29 O29           -7.1234   -12.5640    -0.0017 O.3     
  30 F30            2.3843    -0.0028    -0.0216 F       
  31 H31            2.1746    -2.6026    -0.0322 H       
  32 H32            0.0614    -3.8582    -0.0191 H       
  33 H33           -2.1405    -0.1985     0.0314 H       
  34 H34           -1.1562     3.0955     0.0244 H       
  35 H35           -1.7029    -4.5528    -0.8965 H       
  36 H36           -1.6862    -4.5630     0.8833 H       
  37 H37           -4.1654    -4.5216     0.9068 H       
  38 H38           -4.1821    -4.5114    -0.8731 H       
  39 H39           -2.9975    -6.6897    -0.8966 H       
  40 H40           -2.9808    -6.6999     0.8833 H       
  41 H41           -5.4600    -6.6585     0.9068 H       
  42 H42           -5.4767    -6.6483    -0.8731 H       
  43 H43           -9.3232    -8.5870     0.0420 H       
  44 H44           -7.2205    -7.3475     0.0398 H       
  45 H45          -11.0031    -9.9057     0.9399 H       
  46 H46          -11.0195    -9.8950    -0.8399 H       
  47 H47          -11.9937   -12.2104    -0.7967 H       
  48 H48          -12.1773   -11.6571     2.1994 H       
  49 H49          -12.8923   -13.0518     1.3557 H       
  50 H50          -11.1234   -12.8678     1.4302 H       
  51 H51          -13.4505   -10.2128    -0.9866 H       
  52 H52          -14.2512   -11.5013    -0.0556 H       
  53 H53          -13.5362   -10.1066     0.7881 H       
  54 H54           -4.3131   -11.3994     1.0061 H       
  55 H55           -4.7570   -12.1704    -0.5355 H       
  56 H56           -3.8992   -10.6108    -0.5350 H       
  57 H57           -7.1084   -12.9626     0.8792 H       
@<TRIPOS>BOND
   1    1    2 1
   2    1    8 2
   3    1    9 1
   4    2    3 ar
   5    2    7 ar
   6    3    4 ar
   7    3   30 1
   8    4    5 ar
   9    4   31 1
  10    5    6 ar
  11    5   32 1
  12    6    7 ar
  13    6   10 1
  14    7   33 1
  15    9   34 1
  16   10   11 1
  17   11   12 1
  18   11   35 1
  19   11   36 1
  20   12   13 1
  21   12   37 1
  22   12   38 1
  23   13   14 1
  24   13   39 1
  25   13   40 1
  26   14   15 1
  27   14   41 1
  28   14   42 1
  29   15   16 1
  30   16   17 ar
  31   16   21 ar
  32   17   18 ar
  33   17   28 1
  34   18   19 ar
  35   18   29 1
  36   19   20 ar
  37   19   22 1
  38   20   21 ar
  39   20   43 1
  40   21   44 1
  41   22   23 1
  42   22   26 2
  43   23   24 1
  44   23   45 1
  45   23   46 1
  46   24   25 1
  47   24   27 1
  48   24   47 1
  49   25   48 1
  50   25   49 1
  51   25   50 1
  52   27   51 1
  53   27   52 1
  54   27   53 1
  55   28   54 1
  56   28   55 1
  57   28   56 1
  58   29   57 1

#	End of record

