#	Name: ASD08178452
#	Creating user name:	WinNT
#	Creation time:	15. 06. 2019 21:18

#	Modifying user name:	WinNT
#	Modification time:	15. 06. 2019 21:18

#	Program:	/corina/corina34_cracker 3.40 0067  02.08.2006

@<TRIPOS>MOLECULE
ASD08178452
  84   87    0    0    0
SMALL
NO_CHARGES


@<TRIPOS>ATOM
   1 N1             0.6919     2.0655    -0.1981 N.am    
   2 C2             0.6581     0.6715    -0.1922 C.ar    
   3 C3             1.8441    -0.0576    -0.2531 C.ar    
   4 N4            -0.5012     0.0343    -0.1231 N.ar    
   5 N5            -0.5754    -1.2470    -0.1148 N.ar    
   6 C6             0.4951    -2.0145    -0.1743 C.ar    
   7 C7             1.7566    -1.4414    -0.2440 C.ar    
   8 C8             0.3487    -3.5143    -0.1605 C.3     
   9 C9            -0.4545    -3.9371     1.0712 C.3     
  10 C10           -0.6032    -5.4598     1.0852 C.3     
  11 C11           -1.4063    -5.8825     2.3169 C.3     
  12 C12           -1.5528    -7.3823     2.3307 C.2     
  13 N13           -0.7412    -8.2241     2.8878 N.2     
  14 N14           -1.0399    -9.4467     2.7888 N.2     
  15 C15           -2.1247    -9.7521     2.1430 C.2     
  16 S16           -2.8643    -8.3063     1.5975 S.3     
  17 C17           -0.4577     2.7672    -0.2498 C.2     
  18 C18           -0.4294     4.2694    -0.1326 C.3     
  19 O19           -1.5148     2.1898    -0.3907 O.2     
  20 C20           -1.8347     4.8066    -0.2203 C.ar    
  21 C21           -2.5880     4.9623     0.9282 C.ar    
  22 C22           -2.3683     5.1490    -1.4486 C.ar    
  23 C23           -3.6573     5.6418    -1.5291 C.ar    
  24 C24           -4.4129     5.7918    -0.3812 C.ar    
  25 C25           -3.8771     5.4551     0.8478 C.ar    
  26 N26           -2.6087   -11.0390     1.9341 N.am    
  27 C27           -1.9351   -12.0997     2.4216 C.2     
  28 O28           -0.9069   -11.9319     3.0425 O.2     
  29 C29           -2.4595   -13.4943     2.1953 C.3     
  30 C30           -1.5289   -14.4912     2.8365 C.ar    
  31 C31           -1.7287   -14.8778     4.1484 C.ar    
  32 C32           -0.8760   -15.7924     4.7374 C.ar    
  33 C33            0.1784   -16.3213     4.0129 C.ar    
  34 C34            0.3776   -15.9332     2.6986 C.ar    
  35 C35           -0.4792   -15.0227     2.1102 C.ar    
  36 F36            1.0127   -17.2150     4.5877 F       
  37 C37            1.5252   -16.5077     1.9086 C.3     
  38 N38            1.1946   -16.4868     0.4816 N.am    
  39 C39            2.7823   -15.6706     2.1532 C.3     
  40 C40            1.7118   -17.4185    -0.3437 C.2     
  41 O41            1.4080   -17.3993    -1.6552 O.3     
  42 O42            2.4523   -18.2757     0.0960 O.2     
  43 C43            2.0011   -18.4332    -2.4844 C.3     
  44 C44            1.5583   -19.8081    -1.9799 C.3     
  45 C45            1.5439   -18.2500    -3.9329 C.3     
  46 C46            3.5261   -18.3310    -2.4141 C.3     
  47 H47            1.5425     2.5302    -0.1609 H       
  48 H48            2.8014     0.4396    -0.3063 H       
  49 H49            2.6440    -2.0549    -0.2936 H       
  50 H50           -0.1722    -3.8368    -1.0621 H       
  51 H51            1.3357    -3.9755    -0.1265 H       
  52 H52            0.0664    -3.6146     1.9728 H       
  53 H53           -1.4415    -3.4759     1.0372 H       
  54 H54           -1.1240    -5.7822     0.1836 H       
  55 H55            0.3839    -5.9209     1.1192 H       
  56 H56           -0.8854    -5.5600     3.2185 H       
  57 H57           -2.3933    -5.4213     2.2829 H       
  58 H58            0.0081     4.5509     0.8252 H       
  59 H59            0.1699     4.6858    -0.9422 H       
  60 H60           -2.1696     4.6986     1.8884 H       
  61 H61           -1.7780     5.0319    -2.3454 H       
  62 H62           -4.0740     5.9100    -2.4887 H       
  63 H63           -5.4198     6.1771    -0.4440 H       
  64 H64           -4.4673     5.5722     1.7446 H       
  65 H65           -3.4311   -11.1733     1.4375 H       
  66 H66           -3.4512   -13.5859     2.6382 H       
  67 H67           -2.5202   -13.6903     1.1247 H       
  68 H68           -2.5511   -14.4647     4.7136 H       
  69 H69           -1.0321   -16.0940     5.7626 H       
  70 H70           -0.3241   -14.7199     1.0852 H       
  71 H71            1.7056   -17.5351     2.2248 H       
  72 H72            0.6035   -15.8025     0.1306 H       
  73 H73            3.0283   -15.6861     3.2150 H       
  74 H74            3.6124   -16.0861     1.5818 H       
  75 H75            2.6019   -14.6432     1.8370 H       
  76 H76            0.4719   -19.8809    -2.0299 H       
  77 H77            2.0036   -20.5842    -2.6023 H       
  78 H78            1.8841   -19.9386    -0.9479 H       
  79 H79            1.8593   -17.2705    -4.2923 H       
  80 H80            1.9891   -19.0261    -4.5554 H       
  81 H81            0.4575   -18.3228    -3.9830 H       
  82 H82            3.8518   -18.4615    -1.3822 H       
  83 H83            3.9713   -19.1071    -3.0366 H       
  84 H84            3.8415   -17.3515    -2.7735 H       
@<TRIPOS>BOND
   1    1    2 1
   2    1   17 am
   3    1   47 1
   4    2    3 ar
   5    2    4 ar
   6    3    7 ar
   7    3   48 1
   8    4    5 ar
   9    5    6 ar
  10    6    7 ar
  11    6    8 1
  12    7   49 1
  13    8    9 1
  14    8   50 1
  15    8   51 1
  16    9   10 1
  17    9   52 1
  18    9   53 1
  19   10   11 1
  20   10   54 1
  21   10   55 1
  22   11   12 1
  23   11   56 1
  24   11   57 1
  25   12   13 2
  26   12   16 1
  27   13   14 1
  28   14   15 2
  29   15   16 1
  30   15   26 1
  31   17   18 1
  32   17   19 2
  33   18   20 1
  34   18   58 1
  35   18   59 1
  36   20   21 ar
  37   20   22 ar
  38   21   25 ar
  39   21   60 1
  40   22   23 ar
  41   22   61 1
  42   23   24 ar
  43   23   62 1
  44   24   25 ar
  45   24   63 1
  46   25   64 1
  47   26   27 am
  48   26   65 1
  49   27   28 2
  50   27   29 1
  51   29   30 1
  52   29   66 1
  53   29   67 1
  54   30   31 ar
  55   30   35 ar
  56   31   32 ar
  57   31   68 1
  58   32   33 ar
  59   32   69 1
  60   33   34 ar
  61   33   36 1
  62   34   35 ar
  63   34   37 1
  64   35   70 1
  65   37   38 1
  66   37   39 1
  67   37   71 1
  68   38   40 am
  69   38   72 1
  70   39   73 1
  71   39   74 1
  72   39   75 1
  73   40   41 1
  74   40   42 2
  75   41   43 1
  76   43   44 1
  77   43   45 1
  78   43   46 1
  79   44   76 1
  80   44   77 1
  81   44   78 1
  82   45   79 1
  83   45   80 1
  84   45   81 1
  85   46   82 1
  86   46   83 1
  87   46   84 1

#	End of record

