#	Name: ASD01882798
#	Creating user name:	WinNT
#	Creation time:	15. 06. 2019 19:45

#	Modifying user name:	WinNT
#	Modification time:	15. 06. 2019 19:45

#	Program:	/corina/corina34_cracker 3.40 0067  02.08.2006

@<TRIPOS>MOLECULE
ASD01882798
  42   44    0    0    0
SMALL
NO_CHARGES


@<TRIPOS>ATOM
   1 C1             0.2047     1.0610    -0.6697 C.2     
   2 N2             0.4131    -0.2050    -1.0053 N.2     
   3 C3             1.6449    -0.7242    -1.0373 C.2     
   4 C4             2.7575     0.0901    -0.7064 C.2     
   5 C5             2.5327     1.3766    -0.3664 C.2     
   6 N6             1.2530     1.8562    -0.3500 N.pl3   
   7 O7            -0.9786     1.7092    -0.6029 O.3     
   8 C8             0.7553     3.2022    -0.0186 C.3     
   9 C9            -0.7688     3.0878    -0.1947 C.3     
  10 O10            1.8107    -1.8934    -1.3493 O.2     
  11 C11           -1.2515     4.0480    -1.2837 C.3     
  12 O12           -2.6711     3.9466    -1.4130 O.3     
  13 C13           -3.2639     4.7392    -2.3443 C.ar    
  14 C14           -4.6390     4.6920    -2.5232 C.ar    
  15 C15           -5.2392     5.4985    -3.4703 C.ar    
  16 C16           -4.4707     6.3522    -4.2403 C.ar    
  17 C17           -3.1003     6.4008    -4.0643 C.ar    
  18 C18           -2.4960     5.6009    -3.1136 C.ar    
  19 C19           -6.7327     5.4477    -3.6651 C.3     
  20 C20           -5.1280     7.2308    -5.2733 C.3     
  21 C21           -4.7335     8.6886    -5.0285 C.3     
  22 C22           -4.6699     6.8061    -6.6700 C.3     
  23 H23            3.7606    -0.3097    -0.7256 H       
  24 H24            3.3587     2.0229    -0.1087 H       
  25 H25            1.0049     3.4593     1.0108 H       
  26 H26            1.1635     3.9412    -0.7080 H       
  27 H27           -1.2804     3.2889     0.7466 H       
  28 H28           -0.9834     5.0691    -1.0126 H       
  29 H29           -0.7808     3.7882    -2.2318 H       
  30 H30           -5.2396     4.0249    -1.9226 H       
  31 H31           -2.5023     7.0681    -4.6671 H       
  32 H32           -1.4260     5.6427    -2.9731 H       
  33 H33           -7.2027     6.2368    -3.0782 H       
  34 H34           -6.9666     5.5912    -4.7200 H       
  35 H35           -7.1090     4.4785    -3.3381 H       
  36 H36           -6.2109     7.1301    -5.1999 H       
  37 H37           -3.6507     8.7893    -5.1020 H       
  38 H38           -5.2090     9.3241    -5.7757 H       
  39 H39           -5.0599     8.9912    -4.0335 H       
  40 H40           -4.9509     5.7675    -6.8444 H       
  41 H41           -5.1454     7.4415    -7.4172 H       
  42 H42           -3.5870     6.9067    -6.7434 H       
@<TRIPOS>BOND
   1    1    2 2
   2    1    6 1
   3    1    7 1
   4    2    3 1
   5    3    4 1
   6    3   10 2
   7    4    5 2
   8    4   23 1
   9    5    6 1
  10    5   24 1
  11    6    8 1
  12    7    9 1
  13    8    9 1
  14    8   25 1
  15    8   26 1
  16    9   11 1
  17    9   27 1
  18   11   12 1
  19   11   28 1
  20   11   29 1
  21   12   13 1
  22   13   14 ar
  23   13   18 ar
  24   14   15 ar
  25   14   30 1
  26   15   16 ar
  27   15   19 1
  28   16   17 ar
  29   16   20 1
  30   17   18 ar
  31   17   31 1
  32   18   32 1
  33   19   33 1
  34   19   34 1
  35   19   35 1
  36   20   21 1
  37   20   22 1
  38   20   36 1
  39   21   37 1
  40   21   38 1
  41   21   39 1
  42   22   40 1
  43   22   41 1
  44   22   42 1

#	End of record

