#	Name: ASD06170133
#	Creating user name:	WinNT
#	Creation time:	15. 06. 2019 21:05

#	Modifying user name:	WinNT
#	Modification time:	15. 06. 2019 21:05

#	Program:	/corina/corina34_cracker 3.40 0067  02.08.2006

@<TRIPOS>MOLECULE
ASD06170133
  64   68    0    0    0
SMALL
NO_CHARGES


@<TRIPOS>ATOM
   1 N1             0.1171     1.1243     0.0407 N.pl3   
   2 N2             0.1575    -0.2753    -0.0127 N.am    
   3 C3             1.4326    -0.6390    -0.2594 C.2     
   4 C4             2.2027     0.5429    -0.3623 C.2     
   5 C5             1.3808     1.5956    -0.1765 C.2     
   6 O6             1.8462    -1.7789    -0.3723 O.2     
   7 C7            -0.9285    -1.1394     0.1595 C.ar    
   8 C8            -1.7925    -0.9659     1.2331 C.ar    
   9 C9            -2.8641    -1.8210     1.4003 C.ar    
  10 C10           -3.0772    -2.8491     0.5004 C.ar    
  11 C11           -2.2188    -3.0246    -0.5695 C.ar    
  12 C12           -1.1487    -2.1695    -0.7457 C.ar    
  13 C13            1.7874     3.0464    -0.2041 C.3     
  14 C14           -1.0751     1.9410     0.2814 C.3     
  15 C15            3.6837     0.6133    -0.6322 C.3     
  16 N16            4.4170     0.4712     0.6281 N.pl3   
  17 C17            5.8088     0.5048     0.6312 C.ar    
  18 C18            6.4956     0.6736    -0.5666 C.ar    
  19 C19            7.8780     0.7055    -0.5518 C.ar    
  20 C20            8.5322     0.5663     0.6702 C.ar    
  21 C21            7.7828     0.4016     1.8232 C.ar    
  22 N22            6.4640     0.3811     1.7744 N.ar    
  23 O23            9.8905     0.5915     0.7301 O.3     
  24 N24           11.7539     4.2577     0.4185 N.ar    
  25 C25           10.4449     4.1856     0.4776 C.ar    
  26 C26            9.7823     2.9692     0.5826 C.ar    
  27 C27           10.5101     1.7931     0.6273 C.ar    
  28 C28           11.9188     1.8829     0.5630 C.ar    
  29 C29           12.7237     0.7345     0.6022 C.ar    
  30 C30           14.0815     0.8587     0.5373 C.ar    
  31 C31           14.6796     2.1226     0.4322 C.ar    
  32 C32           13.9198     3.2561     0.3925 C.ar    
  33 C33           12.5198     3.1608     0.4565 C.ar    
  34 O34           16.0335     2.2205     0.3695 O.3     
  35 C35           16.5847     3.5346     0.2632 C.3     
  36 O36           14.8618    -0.2542     0.5753 O.3     
  37 C37           14.1928    -1.5123     0.6835 C.3     
  38 H38           -1.6264    -0.1634     1.9364 H       
  39 H39           -3.5361    -1.6868     2.2351 H       
  40 H40           -3.9157    -3.5166     0.6336 H       
  41 H41           -2.3880    -3.8285    -1.2706 H       
  42 H42           -0.4815    -2.3042    -1.5842 H       
  43 H43            0.9136     3.6722    -0.0226 H       
  44 H44            2.5327     3.2297     0.5699 H       
  45 H45            2.2101     3.2868    -1.1796 H       
  46 H46           -1.9548     1.2984     0.3157 H       
  47 H47           -0.9707     2.4651     1.2314 H       
  48 H48           -1.1867     2.6671    -0.5238 H       
  49 H49            3.9680    -0.1910    -1.3107 H       
  50 H50            3.9249     1.5743    -1.0865 H       
  51 H51            3.9328     0.3537     1.4604 H       
  52 H52            5.9561     0.7781    -1.4963 H       
  53 H53            8.4375     0.8350    -1.4665 H       
  54 H54            8.2834     0.2928     2.7740 H       
  55 H55            9.8667     5.0972     0.4436 H       
  56 H56            8.7037     2.9416     0.6300 H       
  57 H57           12.2714    -0.2428     0.6838 H       
  58 H58           14.3937     4.2232     0.3121 H       
  59 H59           17.6720     3.4703     0.2219 H       
  60 H60           16.2142     4.0117    -0.6441 H       
  61 H61           16.2883     4.1242     1.1307 H       
  62 H62           13.5319    -1.6471    -0.1728 H       
  63 H63           14.9297    -2.3151     0.7036 H       
  64 H64           13.6064    -1.5342     1.6021 H       
@<TRIPOS>BOND
   1    1    2 1
   2    1    5 1
   3    1   14 1
   4    2    3 am
   5    2    7 1
   6    3    4 1
   7    3    6 2
   8    4    5 2
   9    4   15 1
  10    5   13 1
  11    7    8 ar
  12    7   12 ar
  13    8    9 ar
  14    8   38 1
  15    9   10 ar
  16    9   39 1
  17   10   11 ar
  18   10   40 1
  19   11   12 ar
  20   11   41 1
  21   12   42 1
  22   13   43 1
  23   13   44 1
  24   13   45 1
  25   14   46 1
  26   14   47 1
  27   14   48 1
  28   15   16 1
  29   15   49 1
  30   15   50 1
  31   16   17 1
  32   16   51 1
  33   17   18 ar
  34   17   22 ar
  35   18   19 ar
  36   18   52 1
  37   19   20 ar
  38   19   53 1
  39   20   21 ar
  40   20   23 1
  41   21   22 ar
  42   21   54 1
  43   23   27 1
  44   24   25 ar
  45   24   33 ar
  46   25   26 ar
  47   25   55 1
  48   26   27 ar
  49   26   56 1
  50   27   28 ar
  51   28   29 ar
  52   28   33 ar
  53   29   30 ar
  54   29   57 1
  55   30   31 ar
  56   30   36 1
  57   31   32 ar
  58   31   34 1
  59   32   33 ar
  60   32   58 1
  61   34   35 1
  62   35   59 1
  63   35   60 1
  64   35   61 1
  65   36   37 1
  66   37   62 1
  67   37   63 1
  68   37   64 1

#	End of record

