#	Name: ASD03090312
#	Creating user name:	WinNT
#	Creation time:	15. 06. 2019 20:28

#	Modifying user name:	WinNT
#	Modification time:	15. 06. 2019 20:28

#	Program:	/corina/corina34_cracker 3.40 0067  02.08.2006

@<TRIPOS>MOLECULE
ASD03090312
  49   51    0    0    0
SMALL
NO_CHARGES


@<TRIPOS>ATOM
   1 C1            -0.3031     1.4255    -1.4571 C.ar    
   2 C2            -0.2775     0.0329    -1.4677 C.ar    
   3 C3            -1.4191    -0.6805    -1.1685 C.ar    
   4 C4            -2.6005    -0.0048    -0.8549 C.ar    
   5 C5            -2.6218     1.3906    -0.8454 C.ar    
   6 C6            -1.4765     2.0989    -1.1401 C.ar    
   7 C7            -3.8264    -0.7664    -0.5341 C.2     
   8 N8            -5.5803    -3.6439     0.4684 N.pl3   
   9 C9            -4.6458    -4.6227     0.8162 C.ar    
  10 C10           -4.9145    -5.9623     0.5633 C.ar    
  11 C11           -3.9903    -6.9298     0.9073 C.ar    
  12 C12           -2.7969    -6.5686     1.5029 C.ar    
  13 C13           -2.5230    -5.2318     1.7581 C.ar    
  14 C14           -3.4449    -4.2577     1.4099 C.ar    
  15 N15           -3.8785    -2.0260    -0.1476 N.2     
  16 C16           -5.1486    -2.3823     0.0541 C.2     
  17 N17           -5.9270    -1.3562    -0.2002 N.2     
  18 N18           -5.0922    -0.2926    -0.5794 N.pl3   
  19 C19           -5.5103     1.0597    -0.9574 C.3     
  20 C20           -5.6129     1.9173     0.2775 C.2     
  21 N21           -5.9840     3.2087     0.1722 N.am    
  22 O22           -1.3492    -4.8784     2.3448 O.3     
  23 O23           -5.3615     1.4455     1.3661 O.2     
  24 C24           -6.0837     4.0424     1.3727 C.3     
  25 C25           -6.2876     3.7787    -1.1428 C.3     
  26 N26            0.8536     2.1458    -1.7598 N.pl3   
  27 F27            0.8660    -0.6192    -1.7717 F       
  28 C28           -0.4437    -5.9343     2.6722 C.3     
  29 F29           -0.0893    -6.6227     1.5070 F       
  30 F30            0.7045    -5.3973     3.2641 F       
  31 F31           -1.0600    -6.8167     3.5659 F       
  32 H32           -1.3998    -1.7603    -1.1769 H       
  33 H33           -3.5343     1.9153    -0.6033 H       
  34 H34           -1.4933     3.1788    -1.1323 H       
  35 H35           -6.5290    -3.8408     0.5147 H       
  36 H36           -5.8464    -6.2473     0.0979 H       
  37 H37           -4.2011    -7.9706     0.7106 H       
  38 H38           -2.0765    -7.3273     1.7706 H       
  39 H39           -3.2332    -3.2172     1.6073 H       
  40 H40           -4.7762     1.4899    -1.6386 H       
  41 H41           -6.4813     1.0152    -1.4506 H       
  42 H42           -5.1239     4.5233     1.5618 H       
  43 H43           -6.8486     4.8044     1.2233 H       
  44 H44           -6.3527     3.4200     2.2260 H       
  45 H45           -6.1592     3.0139    -1.9087 H       
  46 H46           -7.3174     4.1358    -1.1550 H       
  47 H47           -5.6122     4.6104    -1.3430 H       
  48 H48            1.6742     1.6766    -1.9773 H       
  49 H49            0.8367     3.1156    -1.7527 H       
@<TRIPOS>BOND
   1    1    2 ar
   2    1   26 1
   3    1    6 ar
   4    2    3 ar
   5    2   27 1
   6    3    4 ar
   7    3   32 1
   8    4    5 ar
   9    4    7 1
  10    5    6 ar
  11    5   33 1
  12    6   34 1
  13    7   15 2
  14    7   18 1
  15    8    9 1
  16    8   16 1
  17    8   35 1
  18    9   10 ar
  19    9   14 ar
  20   10   11 ar
  21   10   36 1
  22   11   12 ar
  23   11   37 1
  24   12   13 ar
  25   12   38 1
  26   13   14 ar
  27   13   22 1
  28   14   39 1
  29   15   16 1
  30   16   17 2
  31   17   18 1
  32   18   19 1
  33   19   20 1
  34   19   40 1
  35   19   41 1
  36   20   21 am
  37   20   23 2
  38   21   24 1
  39   21   25 1
  40   22   28 1
  41   24   42 1
  42   24   43 1
  43   24   44 1
  44   25   45 1
  45   25   46 1
  46   25   47 1
  47   26   48 1
  48   26   49 1
  49   28   29 1
  50   28   30 1
  51   28   31 1

#	End of record

