#	Name: ASD01910306
#	Creating user name:	WinNT
#	Creation time:	15. 06. 2019 19:55

#	Modifying user name:	WinNT
#	Modification time:	15. 06. 2019 19:55

#	Program:	/corina/corina34_cracker 3.40 0067  02.08.2006

@<TRIPOS>MOLECULE
ASD01910306
  44   47    0    0    0
SMALL
NO_CHARGES


@<TRIPOS>ATOM
   1 C1             0.0281     1.3061    -0.0558 C.ar    
   2 C2             2.4566    -0.0344    -0.0685 C.ar    
   3 C3             2.4279     1.3584    -0.0594 C.ar    
   4 C4             1.2052     2.0261    -0.0528 C.ar    
   5 C5             3.6968     2.1290    -0.0558 C.2     
   6 N6             3.8209     3.4412    -0.0474 N.2     
   7 N7             5.0795     3.7183    -0.0465 N.pl3   
   8 N8             5.7565     2.6234    -0.0541 N.2     
   9 N9             4.9392     1.6256    -0.0545 N.2     
  10 C10            5.6502     5.0675    -0.0389 C.3     
  11 C11            6.5143     5.2496     1.2110 C.3     
  12 C12            7.0844     6.6696     1.2366 C.3     
  13 C13            7.9674     6.8833     0.0031 C.3     
  14 N14            7.1839     6.5693    -1.1995 N.am    
  15 C15            6.5169     5.2631    -1.2869 C.3     
  16 C16            7.0790     7.4624    -2.2033 C.2     
  17 C17            7.6760     8.8046    -2.0622 C.ar    
  18 O18            6.4926     7.1623    -3.2253 O.2     
  19 C19            9.0300     8.9404    -1.7468 C.ar    
  20 C20            9.5824    10.1959    -1.6166 C.ar    
  21 C21            8.7979    11.3254    -1.7979 C.ar    
  22 C22            7.4542    11.1999    -2.1109 C.ar    
  23 C23            6.8893     9.9467    -2.2494 C.ar    
  24 F24            9.3464    12.5532    -1.6682 F       
  25 C25            0.0611    -0.0790    -0.0653 C.ar    
  26 C26            1.2749    -0.7468    -0.0714 C.ar    
  27 F27           -1.0937    -0.7802    -0.0681 F       
  28 F28            5.5791     9.8242    -2.5551 F       
  29 H29           -0.9201     1.8229    -0.0462 H       
  30 H30            3.4024    -0.5558    -0.0740 H       
  31 H31            1.1787     3.1057    -0.0458 H       
  32 H32            4.8456     5.8028    -0.0353 H       
  33 H33            5.9053     5.0867     2.1003 H       
  34 H34            7.3327     4.5299     1.1947 H       
  35 H35            6.2667     7.3902     1.2279 H       
  36 H36            7.6806     6.8061     2.1389 H       
  37 H37            8.2958     7.9220    -0.0356 H       
  38 H38            8.8348     6.2254     0.0563 H       
  39 H39            7.2661     4.4730    -1.3389 H       
  40 H40            5.8883     5.2326    -2.1768 H       
  41 H41            9.6429     8.0626    -1.6048 H       
  42 H42           10.6292    10.3009    -1.3724 H       
  43 H43            6.8482    12.0829    -2.2505 H       
  44 H44            1.2962    -1.8266    -0.0787 H       
@<TRIPOS>BOND
   1    1   25 ar
   2    1    4 ar
   3    1   29 1
   4    2    3 ar
   5    2   26 ar
   6    2   30 1
   7    3    4 ar
   8    3    5 1
   9    4   31 1
  10    5    6 2
  11    5    9 1
  12    6    7 1
  13    7    8 1
  14    7   10 1
  15    8    9 2
  16   10   11 1
  17   10   15 1
  18   10   32 1
  19   11   12 1
  20   11   33 1
  21   11   34 1
  22   12   13 1
  23   12   35 1
  24   12   36 1
  25   13   14 1
  26   13   37 1
  27   13   38 1
  28   14   15 1
  29   14   16 am
  30   15   39 1
  31   15   40 1
  32   16   17 1
  33   16   18 2
  34   17   19 ar
  35   17   23 ar
  36   19   20 ar
  37   19   41 1
  38   20   21 ar
  39   20   42 1
  40   21   22 ar
  41   21   24 1
  42   22   23 ar
  43   22   43 1
  44   23   28 1
  45   25   26 ar
  46   25   27 1
  47   26   44 1

#	End of record

