#	Name: ASD01208654
#	Creating user name:	WinNT
#	Creation time:	15. 06. 2019 19:10

#	Modifying user name:	WinNT
#	Modification time:	15. 06. 2019 19:10

#	Program:	/corina/corina34_cracker 3.40 0067  02.08.2006

@<TRIPOS>MOLECULE
ASD01208654
  81   85    0    0    0
SMALL
NO_CHARGES


@<TRIPOS>ATOM
   1 C1             2.2216    -1.2423     4.5775 C.ar    
   2 C2             3.2963    -0.3845     4.4335 C.ar    
   3 C3             3.7408    -0.0649     3.1610 C.ar    
   4 C4             3.0821    -0.6247     2.0704 C.ar    
   5 C5             2.0110    -1.4772     2.2953 C.ar    
   6 N6             1.6193    -1.7558     3.5229 N.ar    
   7 S7             1.6537    -1.6606     6.1921 S.o2    
   8 O8             2.2621    -2.9015     6.5225 O.2     
   9 O9             1.7973    -0.4894     6.9839 O.2     
  10 N10            0.0275    -1.9524     6.0795 N.am    
  11 C11           -0.4559    -3.3059     5.7955 C.3     
  12 C12           -0.9278    -0.8571     6.2639 C.3     
  13 C13           -1.3023    -0.2857     4.9207 C.ar    
  14 C14           -2.3813    -0.8024     4.2274 C.ar    
  15 C15           -2.7266    -0.2803     2.9959 C.ar    
  16 C16           -1.9897     0.7632     2.4549 C.ar    
  17 C17           -0.9075     1.2798     3.1524 C.ar    
  18 C18           -0.5697     0.7580     4.3861 C.ar    
  19 O19           -2.3272     1.2782     1.2433 O.3     
  20 C20           -1.5240     2.3513     0.7481 C.3     
  21 O21            3.4820    -0.3400     0.8032 O.3     
  22 C22            4.5508     0.4835     0.6414 C.ar    
  23 C23            5.8339    -0.0024     0.8336 C.ar    
  24 C24            6.9303     0.8440     0.6672 C.ar    
  25 C25            6.7293     2.1774     0.3075 C.ar    
  26 C26            5.4435     2.6550     0.1173 C.ar    
  27 C27            4.3558     1.8084     0.2783 C.ar    
  28 O28            5.2468     3.9533    -0.2330 O.3     
  29 C29            3.9023     4.3563    -0.5013 C.3     
  30 C30            3.9102     5.5798    -1.4199 C.3     
  31 C31            3.2040     4.7101     0.8133 C.3     
  32 O32            4.5069     6.6842    -0.7371 O.3     
  33 C33            4.5641     7.8840    -1.5113 C.3     
  34 N34            8.6325    -0.9479     1.2240 N.pl3   
  35 C35            8.3011     0.3301     0.8717 C.2     
  36 C36            9.4627     1.0567     0.7392 C.2     
  37 C37           10.5300     0.2013     1.0174 C.2     
  38 C38           10.0015    -1.0359     1.3158 C.2     
  39 O39           10.1888    -3.4260     1.9545 O.3     
  40 C40           10.7674    -2.2391     1.6710 C.2     
  41 N41           12.0665    -2.2606     1.7418 N.2     
  42 C42           12.4890    -3.6184     2.1366 C.3     
  43 C43           11.1631    -4.2347     2.6451 C.3     
  44 C44           11.0475    -5.7040     2.2346 C.3     
  45 O45            9.7987    -6.2289     2.6898 O.3     
  46 H46            3.7834     0.0317     5.3029 H       
  47 H47            4.5777     0.6027     3.0187 H       
  48 H48            1.4925    -1.9169     1.4561 H       
  49 H49           -0.6098    -3.8409     6.7326 H       
  50 H50           -1.3984    -3.2483     5.2510 H       
  51 H51            0.2809    -3.8356     5.1915 H       
  52 H52           -1.8218    -1.2345     6.7603 H       
  53 H53           -0.4736    -0.0781     6.8763 H       
  54 H54           -2.9544    -1.6150     4.6489 H       
  55 H55           -3.5693    -0.6844     2.4547 H       
  56 H56           -0.3323     2.0921     2.7333 H       
  57 H57            0.2697     1.1630     4.9317 H       
  58 H58           -1.5670     3.1887     1.4445 H       
  59 H59           -0.4919     2.0158     0.6465 H       
  60 H60           -1.9005     2.6680    -0.2246 H       
  61 H61            5.9851    -1.0348     1.1123 H       
  62 H62            7.5754     2.8360     0.1780 H       
  63 H63            3.3546     2.1829     0.1245 H       
  64 H64            3.3685     3.5400    -0.9880 H       
  65 H65            4.4843     5.3554    -2.3189 H       
  66 H66            2.8868     5.8334    -1.6962 H       
  67 H67            3.7377     5.5264     1.3000 H       
  68 H68            2.1784     5.0175     0.6087 H       
  69 H69            3.1983     3.8385     1.4678 H       
  70 H70            3.5542     8.1854    -1.7895 H       
  71 H71            5.0299     8.6743    -0.9227 H       
  72 H72            5.1517     7.7074    -2.4122 H       
  73 H73            8.0065    -1.6708     1.3862 H       
  74 H74            9.5352     2.0998     0.4686 H       
  75 H75           11.5781     0.4613     1.0014 H       
  76 H76           12.8715    -4.1717     1.2789 H       
  77 H77           13.2307    -3.5786     2.9343 H       
  78 H78           11.0689    -4.1233     3.7253 H       
  79 H79           11.1008    -5.7832     1.1488 H       
  80 H80           11.8643    -6.2713     2.6809 H       
  81 H81            9.6571    -7.1585     2.4642 H       
@<TRIPOS>BOND
   1    1    2 ar
   2    1    6 ar
   3    1    7 1
   4    2    3 ar
   5    2   46 1
   6    3    4 ar
   7    3   47 1
   8    4    5 ar
   9    4   21 1
  10    5    6 ar
  11    5   48 1
  12    7    8 2
  13    7    9 2
  14    7   10 am
  15   10   11 1
  16   10   12 1
  17   11   49 1
  18   11   50 1
  19   11   51 1
  20   12   13 1
  21   12   52 1
  22   12   53 1
  23   13   14 ar
  24   13   18 ar
  25   14   15 ar
  26   14   54 1
  27   15   16 ar
  28   15   55 1
  29   16   17 ar
  30   16   19 1
  31   17   18 ar
  32   17   56 1
  33   18   57 1
  34   19   20 1
  35   20   58 1
  36   20   59 1
  37   20   60 1
  38   21   22 1
  39   22   23 ar
  40   22   27 ar
  41   23   24 ar
  42   23   61 1
  43   24   25 ar
  44   24   35 1
  45   25   26 ar
  46   25   62 1
  47   26   27 ar
  48   26   28 1
  49   27   63 1
  50   28   29 1
  51   29   30 1
  52   29   31 1
  53   29   64 1
  54   30   32 1
  55   30   65 1
  56   30   66 1
  57   31   67 1
  58   31   68 1
  59   31   69 1
  60   32   33 1
  61   33   70 1
  62   33   71 1
  63   33   72 1
  64   34   35 1
  65   34   38 1
  66   34   73 1
  67   35   36 2
  68   36   37 1
  69   36   74 1
  70   37   38 2
  71   37   75 1
  72   38   40 1
  73   39   40 1
  74   39   43 1
  75   40   41 2
  76   41   42 1
  77   42   43 1
  78   42   76 1
  79   42   77 1
  80   43   44 1
  81   43   78 1
  82   44   45 1
  83   44   79 1
  84   44   80 1
  85   45   81 1

#	End of record

