#	Name: ASD03092658
#	Creating user name:	WinNT
#	Creation time:	15. 06. 2019 20:32

#	Modifying user name:	WinNT
#	Modification time:	15. 06. 2019 20:32

#	Program:	/corina/corina34_cracker 3.40 0067  02.08.2006

@<TRIPOS>MOLECULE
ASD03092658
  46   49    0    0    0
SMALL
NO_CHARGES


@<TRIPOS>ATOM
   1 C1            -0.3830     1.5699     0.2783 C.ar    
   2 C2            -0.2918     0.1666     0.1790 C.ar    
   3 C3             0.9856    -0.4356     0.1563 C.ar    
   4 C4             2.0993     0.3986     0.2342 C.ar    
   5 C5             1.9163     1.7695     0.3297 C.ar    
   6 N6             0.7159     2.3061     0.3492 N.ar    
   7 N7            -2.4390     0.6706     0.1890 N.2     
   8 N8            -1.7233     1.8700     0.2835 N.pl3   
   9 C9            -1.6106    -0.3329     0.1224 C.2     
  10 C10            1.1364    -1.9026     0.0539 C.2     
  11 O11            0.3336    -2.6355     0.5980 O.2     
  12 N12            2.1638    -2.4274    -0.6428 N.am    
  13 C13            1.9153    -4.5927     0.4094 C.ar    
  14 C14            2.3756    -3.8098    -0.6418 C.ar    
  15 C15            3.0506    -4.4221    -1.6949 C.ar    
  16 C16            3.2354    -5.7943    -1.6488 C.ar    
  17 C17            2.7479    -6.5054    -0.5683 C.ar    
  18 N18            2.1126    -5.8957     0.4135 N.ar    
  19 C19            3.5668    -3.6120    -2.8560 C.3     
  20 C20           -2.2777     3.1532     0.3690 C.ar    
  21 C21           -3.4488     3.4522    -0.3149 C.ar    
  22 C22           -3.9933     4.7185    -0.2282 C.ar    
  23 C23           -3.3736     5.6881     0.5387 C.ar    
  24 C24           -2.2072     5.3937     1.2206 C.ar    
  25 C25           -1.6608     4.1276     1.1426 C.ar    
  26 C26            3.1236     2.6675     0.4141 C.3     
  27 C27           -1.9964    -1.7855     0.0115 C.3     
  28 H28            3.0953    -0.0188     0.2206 H       
  29 H29            2.7564    -1.8464    -1.1448 H       
  30 H30            1.3944    -4.1283     1.2337 H       
  31 H31            3.7541    -6.3027    -2.4482 H       
  32 H32            2.8890    -7.5754    -0.5277 H       
  33 H33            4.5831    -3.2797    -2.6439 H       
  34 H34            3.5659    -4.2261    -3.7565 H       
  35 H35            2.9250    -2.7441    -3.0074 H       
  36 H36           -3.9330     2.6955    -0.9144 H       
  37 H37           -4.9038     4.9518    -0.7602 H       
  38 H38           -3.8014     6.6776     0.6050 H       
  39 H39           -1.7253     6.1533     1.8182 H       
  40 H40           -0.7524     3.8969     1.6792 H       
  41 H41            3.4315     2.9577    -0.5904 H       
  42 H42            2.8738     3.5591     0.9893 H       
  43 H43            3.9387     2.1353     0.9045 H       
  44 H44           -2.0115    -2.2342     1.0048 H       
  45 H45           -2.9861    -1.8652    -0.4383 H       
  46 H46           -1.2708    -2.3076    -0.6121 H       
@<TRIPOS>BOND
   1    1    2 ar
   2    1    6 ar
   3    1    8 1
   4    2    3 ar
   5    2    9 1
   6    3    4 ar
   7    3   10 1
   8    4    5 ar
   9    4   28 1
  10    5    6 ar
  11    5   26 1
  12    7    8 1
  13    7    9 2
  14    8   20 1
  15    9   27 1
  16   10   11 2
  17   10   12 am
  18   12   14 1
  19   12   29 1
  20   13   14 ar
  21   13   18 ar
  22   13   30 1
  23   14   15 ar
  24   15   16 ar
  25   15   19 1
  26   16   17 ar
  27   16   31 1
  28   17   18 ar
  29   17   32 1
  30   19   33 1
  31   19   34 1
  32   19   35 1
  33   20   21 ar
  34   20   25 ar
  35   21   22 ar
  36   21   36 1
  37   22   23 ar
  38   22   37 1
  39   23   24 ar
  40   23   38 1
  41   24   25 ar
  42   24   39 1
  43   25   40 1
  44   26   41 1
  45   26   42 1
  46   26   43 1
  47   27   44 1
  48   27   45 1
  49   27   46 1

#	End of record

