#	Name: ASD01908070
#	Creating user name:	WinNT
#	Creation time:	15. 06. 2019 19:54

#	Modifying user name:	WinNT
#	Modification time:	15. 06. 2019 19:54

#	Program:	/corina/corina34_cracker 3.40 0067  02.08.2006

@<TRIPOS>MOLECULE
ASD01908070
  30   31    0    0    0
SMALL
NO_CHARGES


@<TRIPOS>ATOM
   1 N1            -0.0169     1.3952     0.0097 N.pl3   
   2 N2             0.0021    -0.0041     0.0020 N.2     
   3 C3             1.2422    -0.4097    -0.0120 C.2     
   4 C4             2.0758     0.7309    -0.0138 C.2     
   5 C5             1.2522     1.8381    -0.0000 C.2     
   6 C6             3.5078     0.7369    -0.0275 C.1     
   7 N7             4.6437     0.7417    -0.0383 N.1     
   8 C8             1.7044    -1.8440    -0.0237 C.3     
   9 C9            -1.2171     2.2353     0.0202 C.3     
  10 C10           -2.1019     1.8616    -1.1410 C.ar    
  11 C11           -3.0664     0.8830    -0.9868 C.ar    
  12 C12           -3.8789     0.5386    -2.0497 C.ar    
  13 C13           -3.7264     1.1757    -3.2726 C.ar    
  14 C14           -2.7579     2.1573    -3.4248 C.ar    
  15 C15           -1.9517     2.5019    -2.3572 C.ar    
  16 O16           -4.5240     0.8384    -4.3199 O.3     
  17 C17           -4.3107     1.5357    -5.5489 C.3     
  18 H18            1.5691     2.8706     0.0022 H       
  19 H19            1.8063    -2.1845    -1.0541 H       
  20 H20            2.6676    -1.9195     0.4809 H       
  21 H21            0.9735    -2.4655     0.4937 H       
  22 H22           -1.7589     2.0831     0.9536 H       
  23 H23           -0.9281     3.2828    -0.0655 H       
  24 H24           -3.1845     0.3871    -0.0346 H       
  25 H25           -4.6319    -0.2261    -1.9288 H       
  26 H26           -2.6372     2.6546    -4.3758 H       
  27 H27           -1.2008     3.2694    -2.4738 H       
  28 H28           -5.0116     1.1713    -6.2998 H       
  29 H29           -4.4677     2.6030    -5.3930 H       
  30 H30           -3.2900     1.3648    -5.8911 H       
@<TRIPOS>BOND
   1    1    2 1
   2    1    5 1
   3    1    9 1
   4    2    3 2
   5    3    4 1
   6    3    8 1
   7    4    5 2
   8    4    6 1
   9    5   18 1
  10    6    7 3
  11    8   19 1
  12    8   20 1
  13    8   21 1
  14    9   10 1
  15    9   22 1
  16    9   23 1
  17   10   11 ar
  18   10   15 ar
  19   11   12 ar
  20   11   24 1
  21   12   13 ar
  22   12   25 1
  23   13   14 ar
  24   13   16 1
  25   14   15 ar
  26   14   26 1
  27   15   27 1
  28   16   17 1
  29   17   28 1
  30   17   29 1
  31   17   30 1

#	End of record

