#	Name: ASD04560161
#	Creating user name:	WinNT
#	Creation time:	15. 06. 2019 20:49

#	Modifying user name:	WinNT
#	Modification time:	15. 06. 2019 20:49

#	Program:	/corina/corina34_cracker 3.40 0067  02.08.2006

@<TRIPOS>MOLECULE
ASD04560161
  48   50    0    0    0
SMALL
NO_CHARGES


@<TRIPOS>ATOM
   1 C1             1.1381     2.0741     0.4079 C.ar    
   2 C2             0.8673     0.7342     0.5116 C.ar    
   3 C3             1.8714    -0.2013     0.2726 C.ar    
   4 C4             3.1531     0.2214    -0.0725 C.ar    
   5 C5             3.4298     1.5600    -0.1778 C.ar    
   6 C6             2.4238     2.5014     0.0616 C.ar    
   7 C7             2.7182     3.9419    -0.0508 C.2     
   8 O8             3.8368     4.3122    -0.3520 O.2     
   9 N9             1.7477     4.8481     0.1802 N.am    
  10 C10            2.0525     6.2149     0.1838 C.ar    
  11 C11            1.1183     7.1362    -0.2711 C.ar    
  12 C12            3.5867     7.9981     0.6509 C.ar    
  13 C13            3.2869     6.6502     0.6477 C.ar    
  14 S14            1.5197    -1.9225     0.4075 S.3     
  15 C15            1.4196     8.4838    -0.2672 C.ar    
  16 C16            2.6553     8.9173     0.1905 C.ar    
  17 O17            2.9514    10.2444     0.1936 O.3     
  18 C18            3.1116    -2.6966     0.0108 C.3     
  19 C19            2.9736    -4.1954     0.0843 C.ar    
  20 C20            2.7828    -4.9369    -1.0802 C.ar    
  21 C21            3.0415    -4.8368     1.3043 C.ar    
  22 C22            2.6563    -6.3232    -1.0049 C.ar    
  23 C23            2.7206    -6.9536     0.2205 C.ar    
  24 C24            2.9154    -6.2128     1.3731 C.ar    
  25 B25            2.7100    -4.2136    -2.4718 Du      
  26 O26            3.2565    -4.8362    -3.6251 O.3     
  27 O27            2.0976    -2.9367    -2.5771 O.3     
  28 C28            4.2420    10.6200     0.6785 C.3     
  29 F29            5.2293    10.0164    -0.1078 F       
  30 F30            4.3786    12.0107     0.6120 F       
  31 F31            4.3818    10.2006     2.0058 F       
  32 H32            0.3580     2.7988     0.5890 H       
  33 H33           -0.1254     0.4036     0.7794 H       
  34 H34            3.9297    -0.5061    -0.2569 H       
  35 H35            4.4238     1.8871    -0.4450 H       
  36 H36            0.8381     4.5536     0.3439 H       
  37 H37            0.1565     6.7987    -0.6281 H       
  38 H38            4.5466     8.3368     1.0119 H       
  39 H39            4.0121     5.9347     1.0061 H       
  40 H40            0.6931     9.2004    -0.6210 H       
  41 H41            3.4148    -2.4086    -0.9958 H       
  42 H42            3.8648    -2.3656     0.7258 H       
  43 H43            3.1938    -4.2637     2.2068 H       
  44 H44            2.5080    -6.9026    -1.9042 H       
  45 H45            2.6227    -8.0275     0.2800 H       
  46 H46            2.9651    -6.7104     2.3304 H       
  47 H47            3.5838    -5.7329    -3.4702 H       
  48 H48            1.6841    -2.6301    -1.7585 H       
@<TRIPOS>BOND
   1    1    2 ar
   2    1    6 ar
   3    1   32 1
   4    2    3 ar
   5    2   33 1
   6    3    4 ar
   7    3   14 1
   8    4    5 ar
   9    4   34 1
  10    5    6 ar
  11    5   35 1
  12    6    7 1
  13    7    8 2
  14    7    9 am
  15    9   10 1
  16    9   36 1
  17   10   11 ar
  18   10   13 ar
  19   11   15 ar
  20   11   37 1
  21   12   13 ar
  22   12   16 ar
  23   12   38 1
  24   13   39 1
  25   14   18 1
  26   15   16 ar
  27   15   40 1
  28   16   17 1
  29   17   28 1
  30   18   19 1
  31   18   41 1
  32   18   42 1
  33   19   20 ar
  34   19   21 ar
  35   20   25 1
  36   20   22 ar
  37   21   24 ar
  38   21   43 1
  39   22   23 ar
  40   22   44 1
  41   23   24 ar
  42   23   45 1
  43   24   46 1
  44   25   26 1
  45   25   27 1
  46   26   47 1
  47   27   48 1
  48   28   29 1
  49   28   30 1
  50   28   31 1

#	End of record

