#	Name: ASD01885670
#	Creating user name:	WinNT
#	Creation time:	15. 06. 2019 19:50

#	Modifying user name:	WinNT
#	Modification time:	15. 06. 2019 19:50

#	Program:	/corina/corina34_cracker 3.40 0067  02.08.2006

@<TRIPOS>MOLECULE
ASD01885670
  46   49    0    0    0
SMALL
NO_CHARGES


@<TRIPOS>ATOM
   1 C1            -0.0160     1.3290     0.0093 C.ar    
   2 C2             1.2006     2.0571     0.0016 C.ar    
   3 C3             2.4279     1.3474    -0.0140 C.ar    
   4 C4             2.3762    -0.0398    -0.0210 C.ar    
   5 C5             1.1334    -0.6832    -0.0126 C.ar    
   6 N6             0.0021    -0.0041     0.0020 N.ar    
   7 C7            -1.2343     2.0355     0.0189 C.ar    
   8 C8            -1.2256     3.3958     0.0264 C.ar    
   9 C9            -0.0270     4.1070     0.0247 C.ar    
  10 C10            1.1708     3.4578     0.0100 C.ar    
  11 C11            3.7240     2.0634    -0.0230 C.ar    
  12 C12            4.7207     1.7180     0.8900 C.ar    
  13 C13            5.9261     2.3878     0.8776 C.ar    
  14 C14            3.9546     3.0817    -0.9484 C.ar    
  15 C15            1.0867    -2.1653    -0.0206 C.2     
  16 N16           -0.1011    -2.8021    -0.0130 N.am    
  17 O17            2.1192    -2.8056    -0.0340 O.2     
  18 C18           -2.5327     4.1456     0.0361 C.3     
  19 N19           -2.9504     4.3810     1.4204 N.am    
  20 S20           -2.6612     5.7581     2.3198 S.o2    
  21 C21           -3.3770     5.2244     3.9224 C.3     
  22 C22           -3.3430     3.6778     3.7540 C.3     
  23 C23           -3.7071     3.4506     2.2717 C.3     
  24 C24            6.1483     3.4026    -0.0399 C.ar    
  25 C25            5.1634     3.7455    -0.9528 C.ar    
  26 F26            7.3306     4.0561    -0.0479 F       
  27 O27           -1.2460     5.8607     2.3965 O.2     
  28 O28           -3.4533     6.7702     1.7136 O.2     
  29 H29            3.2882    -0.6182    -0.0333 H       
  30 H30           -2.1718     1.4994     0.0200 H       
  31 H31           -0.0480     5.1868     0.0304 H       
  32 H32            2.0928     4.0202     0.0045 H       
  33 H33            4.5484     0.9276     1.6056 H       
  34 H34            6.6982     2.1214     1.5843 H       
  35 H35            3.1878     3.3494    -1.6604 H       
  36 H36           -0.9254    -2.2910    -0.0022 H       
  37 H37           -0.1316    -3.7716    -0.0182 H       
  38 H38           -2.4072     5.1012    -0.4731 H       
  39 H39           -3.2929     3.5572    -0.4778 H       
  40 H40           -2.7533     5.5431     4.7576 H       
  41 H41           -4.3991     5.5855     4.0367 H       
  42 H42           -2.3460     3.2929     3.9684 H       
  43 H43           -4.0818     3.2075     4.4028 H       
  44 H44           -4.7759     3.6131     2.1332 H       
  45 H45           -3.4592     2.4268     1.9917 H       
  46 H46            5.3413     4.5367    -1.6661 H       
@<TRIPOS>BOND
   1    1    6 ar
   2    1    2 ar
   3    1    7 ar
   4    2    3 ar
   5    2   10 ar
   6    3   11 1
   7    3    4 ar
   8    4    5 ar
   9    4   29 1
  10    5   15 1
  11    5    6 ar
  12    7    8 ar
  13    7   30 1
  14    8   18 1
  15    8    9 ar
  16    9   10 ar
  17    9   31 1
  18   10   32 1
  19   11   12 ar
  20   11   14 ar
  21   12   13 ar
  22   12   33 1
  23   13   24 ar
  24   13   34 1
  25   14   25 ar
  26   14   35 1
  27   15   16 am
  28   15   17 2
  29   16   36 1
  30   16   37 1
  31   18   19 1
  32   18   38 1
  33   18   39 1
  34   19   20 am
  35   19   23 1
  36   20   21 1
  37   20   27 2
  38   20   28 2
  39   21   22 1
  40   21   40 1
  41   21   41 1
  42   22   23 1
  43   22   42 1
  44   22   43 1
  45   23   44 1
  46   23   45 1
  47   24   25 ar
  48   24   26 1
  49   25   46 1

#	End of record

