#	Name: ASD01150722
#	Creating user name:	WinNT
#	Creation time:	15. 06. 2019 19:04

#	Modifying user name:	WinNT
#	Modification time:	15. 06. 2019 19:04

#	Program:	/corina/corina34_cracker 3.40 0067  02.08.2006

@<TRIPOS>MOLECULE
ASD01150722
  34   35    0    0    0
SMALL
NO_CHARGES


@<TRIPOS>ATOM
   1 C1            -0.0420     1.1920     0.0129 C.2     
   2 O2             0.6612     1.2329    -0.9784 O.2     
   3 C3             0.3959     0.4255     1.1986 C.ar    
   4 C4             1.5590    -0.3445     1.1446 C.ar    
   5 C5             1.9626    -1.0596     2.2590 C.ar    
   6 C6             1.2115    -1.0104     3.4261 C.ar    
   7 C7             0.0592    -0.2483     3.4813 C.ar    
   8 C8            -0.3493     0.4735     2.3785 C.ar    
   9 O9             3.0944    -1.8105     2.2109 O.3     
  10 C10            3.4516    -2.5224     3.3973 C.3     
  11 F11            2.4250    -3.4109     3.7348 F       
  12 F12            4.6329    -3.2379     3.1740 F       
  13 F13            3.6465    -1.6155     4.4445 F       
  14 C14           -1.3274     1.9113     0.0344 C.ar    
  15 C15           -2.5346     1.2044    -0.0924 C.ar    
  16 C16           -3.7410     1.8919    -0.0704 C.ar    
  17 C17           -3.7539     3.2640     0.0749 C.ar    
  18 C18           -2.5623     3.9693     0.2008 C.ar    
  19 C19           -1.3531     3.3010     0.1869 C.ar    
  20 O20           -2.5874     5.3216     0.3430 O.3     
  21 C21           -3.8712     5.9491     0.3544 C.3     
  22 F22           -4.6272     5.4451     1.4182 F       
  23 F23           -3.7136     7.3307     0.5076 F       
  24 F24           -4.5296     5.6857    -0.8516 F       
  25 N25           -2.5218    -0.1779    -0.2397 N.pl3   
  26 H26            2.1419    -0.3824     0.2362 H       
  27 H27            1.5285    -1.5700     4.2938 H       
  28 H28           -0.5206    -0.2143     4.3918 H       
  29 H29           -1.2475     1.0713     2.4264 H       
  30 H30           -4.6711     1.3516    -0.1677 H       
  31 H31           -4.6951     3.7934     0.0905 H       
  32 H32           -0.4295     3.8514     0.2895 H       
  33 H33           -1.6782    -0.6482    -0.3300 H       
  34 H34           -3.3563    -0.6721    -0.2522 H       
@<TRIPOS>BOND
   1    1    2 2
   2    1    3 1
   3    1   14 1
   4    3    4 ar
   5    3    8 ar
   6    4    5 ar
   7    4   26 1
   8    5    6 ar
   9    5    9 1
  10    6    7 ar
  11    6   27 1
  12    7    8 ar
  13    7   28 1
  14    8   29 1
  15    9   10 1
  16   10   11 1
  17   10   12 1
  18   10   13 1
  19   14   15 ar
  20   14   19 ar
  21   15   16 ar
  22   15   25 1
  23   16   17 ar
  24   16   30 1
  25   17   18 ar
  26   17   31 1
  27   18   19 ar
  28   18   20 1
  29   19   32 1
  30   20   21 1
  31   21   22 1
  32   21   23 1
  33   21   24 1
  34   25   33 1
  35   25   34 1

#	End of record

