#	Name: ASD01914942
#	Creating user name:	WinNT
#	Creation time:	15. 06. 2019 20:04

#	Modifying user name:	WinNT
#	Modification time:	15. 06. 2019 20:04

#	Program:	/corina/corina34_cracker 3.40 0067  02.08.2006

@<TRIPOS>MOLECULE
ASD01914942
  61   66    0    0    0
SMALL
NO_CHARGES


@<TRIPOS>ATOM
   1 C1             0.0007     1.3367    -0.0248 C.2     
   2 N2             0.0092     0.0644     0.3143 N.2     
   3 C3             1.3156     1.7181    -0.3405 C.2     
   4 C4             2.1164     0.6258    -0.1783 C.2     
   5 N5             1.3247    -0.4080     0.2269 N.pl3   
   6 C6            -1.1944     2.2158    -0.0716 C.ar    
   7 C7            -2.4485     1.7092     0.2621 C.ar    
   8 C8            -3.5565     2.5310     0.2168 C.ar    
   9 C9            -3.4234     3.8553    -0.1595 C.ar    
  10 C10           -2.1806     4.3635    -0.4919 C.ar    
  11 C11           -1.0651     3.5521    -0.4440 C.ar    
  12 C12            3.5784     0.5722    -0.4020 C.ar    
  13 C13            1.7716    -1.7721     0.5198 C.3     
  14 C14            2.0458    -1.9050     1.9956 C.2     
  15 N15            2.4709    -3.0807     2.4989 N.am    
  16 O16            1.8838    -0.9539     2.7305 O.2     
  17 C17            2.6765    -4.2502     1.6359 C.3     
  18 C18            2.0961    -5.4715     2.2977 C.ar    
  19 C19            1.6819    -5.4762     3.6129 C.ar    
  20 C20            1.7551    -4.2612     4.4968 C.3     
  21 C21            2.7532    -3.2409     3.9350 C.3     
  22 C22            4.3476    -0.4070     0.2267 C.ar    
  23 C23            5.7102    -0.4517     0.0142 C.ar    
  24 C24            6.3137     0.4720    -0.8204 C.ar    
  25 C25            5.5563     1.4458    -1.4465 C.ar    
  26 C26            4.1920     1.4972    -1.2469 C.ar    
  27 C27            1.0903    -7.6971     3.3928 C.ar    
  28 N28            1.1913    -6.5992     4.1254 N.ar    
  29 C29            0.5354    -8.9284     4.0055 C.ar    
  30 C30            0.4209   -10.0947     3.2511 C.ar    
  31 C31            1.9744    -6.6401     1.5538 C.ar    
  32 N32            1.4736    -7.7212     2.1234 N.ar    
  33 C33            0.1320    -8.9253     5.3396 C.ar    
  34 C34           -0.3832   -10.0741     5.9047 C.ar    
  35 C35           -0.4994   -11.2273     5.1497 C.ar    
  36 C36           -0.0957   -11.2377     3.8266 C.ar    
  37 H37            1.6352     2.7005    -0.6553 H       
  38 H38           -2.5536     0.6751     0.5555 H       
  39 H39           -4.5291     2.1393     0.4754 H       
  40 H40           -4.2930     4.4948    -0.1943 H       
  41 H41           -2.0822     5.3983    -0.7851 H       
  42 H42           -0.0951     3.9499    -0.7034 H       
  43 H43            0.9946    -2.4792     0.2295 H       
  44 H44            2.6829    -1.9839    -0.0396 H       
  45 H45            2.1822    -4.0864     0.6783 H       
  46 H46            3.7441    -4.3981     1.4728 H       
  47 H47            0.7680    -3.8033     4.5600 H       
  48 H48            2.0750    -4.5619     5.4945 H       
  49 H49            3.7709    -3.6043     4.0774 H       
  50 H50            2.6282    -2.2849     4.4435 H       
  51 H51            3.8777    -1.1284     0.8787 H       
  52 H52            6.3070    -1.2091     0.5006 H       
  53 H53            7.3806     0.4330    -0.9836 H       
  54 H54            6.0333     2.1646    -2.0963 H       
  55 H55            3.6017     2.2576    -1.7364 H       
  56 H56            0.7354   -10.1039     2.2180 H       
  57 H57            2.2861    -6.6633     0.5200 H       
  58 H58            0.2227    -8.0255     5.9301 H       
  59 H59           -0.6958   -10.0729     6.9384 H       
  60 H60           -0.9028   -12.1242     5.5961 H       
  61 H61           -0.1888   -12.1409     3.2418 H       
@<TRIPOS>BOND
   1    1    2 2
   2    1    3 1
   3    1    6 1
   4    2    5 1
   5    3    4 2
   6    3   37 1
   7    4    5 1
   8    4   12 1
   9    5   13 1
  10    6    7 ar
  11    6   11 ar
  12    7    8 ar
  13    7   38 1
  14    8    9 ar
  15    8   39 1
  16    9   10 ar
  17    9   40 1
  18   10   11 ar
  19   10   41 1
  20   11   42 1
  21   12   22 ar
  22   12   26 ar
  23   13   14 1
  24   13   43 1
  25   13   44 1
  26   14   15 am
  27   14   16 2
  28   15   17 1
  29   15   21 1
  30   17   18 1
  31   17   45 1
  32   17   46 1
  33   18   19 ar
  34   18   31 ar
  35   19   20 1
  36   19   28 ar
  37   20   21 1
  38   20   47 1
  39   20   48 1
  40   21   49 1
  41   21   50 1
  42   22   23 ar
  43   22   51 1
  44   23   24 ar
  45   23   52 1
  46   24   25 ar
  47   24   53 1
  48   25   26 ar
  49   25   54 1
  50   26   55 1
  51   27   28 ar
  52   27   29 1
  53   27   32 ar
  54   29   30 ar
  55   29   33 ar
  56   30   36 ar
  57   30   56 1
  58   31   32 ar
  59   31   57 1
  60   33   34 ar
  61   33   58 1
  62   34   35 ar
  63   34   59 1
  64   35   36 ar
  65   35   60 1
  66   36   61 1

#	End of record

