#	Name: ASD01812915
#	Creating user name:	WinNT
#	Creation time:	15. 06. 2019 19:29

#	Modifying user name:	WinNT
#	Modification time:	15. 06. 2019 19:29

#	Program:	/corina/corina34_cracker 3.40 0067  02.08.2006

@<TRIPOS>MOLECULE
ASD01812915
  51   54    0    0    0
SMALL
NO_CHARGES


@<TRIPOS>ATOM
   1 C1             0.0048     1.3823    -0.2637 C.ar    
   2 C2             0.0363     0.0086    -0.3970 C.ar    
   3 C3             1.2473    -0.6675    -0.3891 C.ar    
   4 C4             2.4240     0.0276    -0.2483 C.ar    
   5 C5             2.4112     1.4191    -0.1126 C.ar    
   6 C6             1.1848     2.0980    -0.1212 C.ar    
   7 C7             3.8724    -0.3910    -0.2005 C.3     
   8 N8             4.6496     0.8422    -0.0319 N.am    
   9 C9             3.8018     1.8840     0.0183 C.2     
  10 C10            6.1090     0.9242     0.0666 C.3     
  11 C11            6.6969     1.0902    -1.3110 C.ar    
  12 O12            1.1519     3.4477     0.0091 O.3     
  13 O13            4.1359     3.0453     0.1530 O.2     
  14 C14            6.8906     2.3573    -1.8277 C.ar    
  15 C15            7.4303     2.5165    -3.0914 C.ar    
  16 C16            7.7792     1.3911    -3.8443 C.ar    
  17 C17            7.5795     0.1150    -3.3132 C.ar    
  18 C18            7.0456    -0.0274    -2.0503 C.ar    
  19 C19           -0.0542     4.0683    -0.0811 C.ar    
  20 C20           -0.8566     4.1979     1.0462 C.ar    
  21 C21           -2.0829     4.8299     0.9505 C.ar    
  22 C22           -0.4837     4.5783    -1.2968 C.ar    
  23 F23           -0.4394     3.7069     2.2336 F       
  24 C24           -2.5100     5.3316    -0.2654 C.ar    
  25 C25           -1.7103     5.2089    -1.3862 C.ar    
  26 C26           -3.8470     6.0194    -0.3673 C.3     
  27 O27            8.5277     2.6635    -5.6542 O.2     
  28 C28            8.3556     1.5512    -5.1947 C.2     
  29 N29            8.6907     0.4642    -5.9175 N.am    
  30 C30            9.2624     0.6230    -7.2570 C.3     
  31 F31            7.6191     3.7551    -3.5965 F       
  32 F32           -4.8332     5.0779    -0.6808 F       
  33 F33           -4.1536     6.6263     0.8554 F       
  34 F34           -3.7955     6.9927    -1.3710 F       
  35 H35           -0.9418     1.9022    -0.2749 H       
  36 H36           -0.8861    -0.5421    -0.5075 H       
  37 H37            1.2653    -1.7423    -0.4934 H       
  38 H38            4.0417    -1.0591     0.6439 H       
  39 H39            4.1506    -0.8850    -1.1315 H       
  40 H40            6.3840     1.7791     0.6844 H       
  41 H41            6.4946     0.0103     0.5185 H       
  42 H42            6.6198     3.2246    -1.2440 H       
  43 H43            7.8468    -0.7586    -3.8893 H       
  44 H44            6.8949    -1.0141    -1.6378 H       
  45 H45           -2.7075     4.9313     1.8257 H       
  46 H46            0.1400     4.4831    -2.1733 H       
  47 H47           -2.0468     5.6017    -2.3343 H       
  48 H48            8.5534    -0.4233    -5.5509 H       
  49 H49            8.5549     1.1545    -7.8934 H       
  50 H50           10.1900     1.1916    -7.1910 H       
  51 H51            9.4677    -0.3590    -7.6831 H       
@<TRIPOS>BOND
   1    1    2 ar
   2    1    6 ar
   3    1   35 1
   4    2    3 ar
   5    2   36 1
   6    3    4 ar
   7    3   37 1
   8    4    7 1
   9    4    5 ar
  10    5    6 ar
  11    5    9 1
  12    6   12 1
  13    7    8 1
  14    7   38 1
  15    7   39 1
  16    8    9 am
  17    8   10 1
  18    9   13 2
  19   10   11 1
  20   10   40 1
  21   10   41 1
  22   11   14 ar
  23   11   18 ar
  24   12   19 1
  25   14   15 ar
  26   14   42 1
  27   15   16 ar
  28   15   31 1
  29   16   17 ar
  30   16   28 1
  31   17   18 ar
  32   17   43 1
  33   18   44 1
  34   19   20 ar
  35   19   22 ar
  36   20   23 1
  37   20   21 ar
  38   21   24 ar
  39   21   45 1
  40   22   25 ar
  41   22   46 1
  42   24   25 ar
  43   24   26 1
  44   25   47 1
  45   26   32 1
  46   26   33 1
  47   26   34 1
  48   27   28 2
  49   28   29 am
  50   29   30 1
  51   29   48 1
  52   30   49 1
  53   30   50 1
  54   30   51 1

#	End of record

