#	Name: ASD01882146
#	Creating user name:	WinNT
#	Creation time:	15. 06. 2019 19:44

#	Modifying user name:	WinNT
#	Modification time:	15. 06. 2019 19:44

#	Program:	/corina/corina34_cracker 3.40 0067  02.08.2006

@<TRIPOS>MOLECULE
ASD01882146
  58   61    0    0    0
SMALL
NO_CHARGES


@<TRIPOS>ATOM
   1 C1            -0.0159     1.3220     0.0093 C.2     
   2 N2             0.0021    -0.0041     0.0020 N.2     
   3 C3             1.1523    -0.6857    -0.0126 C.2     
   4 C4             2.3835     0.0173    -0.0206 C.2     
   5 C5             2.3523     1.3664    -0.0131 C.2     
   6 N6             1.1484     2.0132     0.0019 N.pl3   
   7 O7            -1.0993     2.1290     0.0184 O.3     
   8 C8             0.8540     3.4562     0.0125 C.3     
   9 C9            -0.6831     3.5211     0.0242 C.3     
  10 O10            1.1423    -1.9071    -0.0187 O.2     
  11 C11           -1.1944     4.2379    -1.2270 C.3     
  12 O12           -2.6209     4.3119    -1.1842 O.3     
  13 C13           -3.2386     4.9234    -2.2289 C.ar    
  14 C14           -4.6216     5.0305    -2.2523 C.ar    
  15 C15           -5.2471     5.6525    -3.3154 C.ar    
  16 C16           -4.4961     6.1681    -4.3555 C.ar    
  17 C17           -3.1176     6.0622    -4.3348 C.ar    
  18 C18           -2.4869     5.4466    -3.2710 C.ar    
  19 C19           -5.1811     6.8461    -5.5140 C.3     
  20 C20           -4.6972     8.2940    -5.6161 C.3     
  21 C21           -5.3927     8.9824    -6.7923 C.3     
  22 C22           -5.0582     8.2403    -8.0878 C.3     
  23 C23           -5.5421     6.7924    -7.9857 C.3     
  24 C24           -4.8466     6.1041    -6.8095 C.3     
  25 C25            3.6366     2.1548    -0.0206 C.3     
  26 C26            3.9923     2.5365    -1.4589 C.3     
  27 C27            5.2963     3.3368    -1.4666 C.3     
  28 C28            5.6520     3.7185    -2.9049 C.3     
  29 H29            3.3237    -0.5140    -0.0321 H       
  30 H30            1.2651     3.9237     0.9072 H       
  31 H31            1.2480     3.9334    -0.8848 H       
  32 H32           -1.0396     4.0220     0.9243 H       
  33 H33           -0.7793     5.2451    -1.2639 H       
  34 H34           -0.8857     3.6850    -2.1142 H       
  35 H35           -5.2087     4.6276    -1.4403 H       
  36 H36           -6.3237     5.7358    -3.3343 H       
  37 H37           -2.5332     6.4651    -5.1488 H       
  38 H38           -1.4099     5.3684    -3.2529 H       
  39 H39           -6.2595     6.8337    -5.3562 H       
  40 H40           -4.9355     8.8226    -4.6932 H       
  41 H41           -3.6188     8.3064    -5.7739 H       
  42 H42           -6.4712     8.9700    -6.6345 H       
  43 H43           -5.0480    10.0139    -6.8650 H       
  44 H44           -5.5537     8.7307    -8.9257 H       
  45 H45           -3.9798     8.2527    -8.2456 H       
  46 H46           -6.6205     6.7800    -7.8279 H       
  47 H47           -5.3038     6.2638    -8.9087 H       
  48 H48           -3.7682     6.1165    -6.9673 H       
  49 H49           -5.1913     5.0726    -6.7368 H       
  50 H50            3.5114     3.0591     0.5749 H       
  51 H51            4.4374     1.5488     0.4031 H       
  52 H52            4.1176     1.6322    -2.0544 H       
  53 H53            3.1915     3.1425    -1.8826 H       
  54 H54            5.1710     4.2412    -0.8711 H       
  55 H55            6.0971     2.7308    -1.0428 H       
  56 H56            5.7772     2.8142    -3.5004 H       
  57 H57            4.8512     4.3246    -3.3286 H       
  58 H58            6.5809     4.2887    -2.9103 H       
@<TRIPOS>BOND
   1    1    2 2
   2    1    6 1
   3    1    7 1
   4    2    3 1
   5    3    4 1
   6    3   10 2
   7    4    5 2
   8    4   29 1
   9    5    6 1
  10    5   25 1
  11    6    8 1
  12    7    9 1
  13    8    9 1
  14    8   30 1
  15    8   31 1
  16    9   11 1
  17    9   32 1
  18   11   12 1
  19   11   33 1
  20   11   34 1
  21   12   13 1
  22   13   14 ar
  23   13   18 ar
  24   14   15 ar
  25   14   35 1
  26   15   16 ar
  27   15   36 1
  28   16   17 ar
  29   16   19 1
  30   17   18 ar
  31   17   37 1
  32   18   38 1
  33   19   20 1
  34   19   24 1
  35   19   39 1
  36   20   21 1
  37   20   40 1
  38   20   41 1
  39   21   22 1
  40   21   42 1
  41   21   43 1
  42   22   23 1
  43   22   44 1
  44   22   45 1
  45   23   24 1
  46   23   46 1
  47   23   47 1
  48   24   48 1
  49   24   49 1
  50   25   26 1
  51   25   50 1
  52   25   51 1
  53   26   27 1
  54   26   52 1
  55   26   53 1
  56   27   28 1
  57   27   54 1
  58   27   55 1
  59   28   56 1
  60   28   57 1
  61   28   58 1

#	End of record

