#	Name: ASD03330866
#	Creating user name:	WinNT
#	Creation time:	15. 06. 2019 20:38

#	Modifying user name:	WinNT
#	Modification time:	15. 06. 2019 20:38

#	Program:	/corina/corina34_cracker 3.40 0067  02.08.2006

@<TRIPOS>MOLECULE
ASD03330866
  64   66    0    0    0
SMALL
NO_CHARGES


@<TRIPOS>ATOM
   1 N1            -0.0097     0.9585    -0.2209 N.pl3   
   2 C2            -0.1478    -0.3634     0.0669 C.2     
   3 C3             0.9607    -1.2886     0.4964 C.3     
   4 N4             1.7461    -0.6398     1.5579 N.3     
   5 C5             2.8335     0.1643     0.9971 C.3     
   6 C6             2.4229     0.7839    -0.3356 C.3     
   7 C7             1.2349     1.7266    -0.1250 C.3     
   8 C8            -1.2356     1.4250    -0.5977 C.2     
   9 N9            -2.0985     0.4382    -0.5285 N.2     
  10 C10           -1.4591    -0.6794    -0.1184 C.2     
  11 C11           -2.0713    -2.0035     0.0898 C.2     
  12 O12           -1.3875    -2.9379     0.4619 O.2     
  13 N13           -3.3890    -2.1790    -0.1320 N.am    
  14 C14            2.2620    -1.6310     2.5115 C.3     
  15 C15           -1.5407     2.8102    -1.0144 C.ar    
  16 C16           -2.3097     3.0468    -2.1594 C.ar    
  17 C17           -2.5910     4.3505    -2.5418 C.ar    
  18 C18           -2.1118     5.4108    -1.7929 C.ar    
  19 C19           -1.3507     5.1788    -0.6604 C.ar    
  20 C20           -1.0683     3.8879    -0.2646 C.ar    
  21 O21           -2.7784     2.0043    -2.8937 O.3     
  22 C22           -4.0611     1.4848    -2.5376 C.3     
  23 F23           -3.3329     4.5849    -3.6463 F       
  24 C24           -5.2360    -3.6156    -0.7753 C.2     
  25 C25           -3.9977    -3.4954     0.0751 C.3     
  26 C26           -4.3737    -3.6572     1.5493 C.3     
  27 C27           -5.4177    -2.6047     1.9279 C.3     
  28 O28           -5.8576    -2.6214    -1.0853 O.2     
  29 N29           -5.6527    -4.8280    -1.1913 N.am    
  30 C30           -6.9141    -4.9569    -1.9251 C.3     
  31 C31           -4.9527    -5.0549     1.7775 C.3     
  32 C32           -3.1268    -3.4738     2.4168 C.3     
  33 H33            0.5340    -2.2175     0.8747 H       
  34 H34            1.6065    -1.5033    -0.3551 H       
  35 H35            3.0894     0.9590     1.6978 H       
  36 H36            3.7058    -0.4709     0.8430 H       
  37 H37            3.2616     1.3446    -0.7483 H       
  38 H38            2.1396    -0.0064    -1.0308 H       
  39 H39            1.2446     2.5019    -0.8911 H       
  40 H40            1.3046     2.1860     0.8610 H       
  41 H41           -3.9344    -1.4337    -0.4287 H       
  42 H42            2.8448    -2.3809     1.9765 H       
  43 H43            2.8963    -1.1335     3.2452 H       
  44 H44            1.4279    -2.1141     3.0204 H       
  45 H45           -2.3325     6.4243    -2.0938 H       
  46 H46           -0.9799     6.0120    -0.0819 H       
  47 H47           -0.4778     3.7116     0.6223 H       
  48 H48           -4.3152     0.6580    -3.2010 H       
  49 H49           -4.0361     1.1296    -1.5075 H       
  50 H50           -4.8106     2.2705    -2.6330 H       
  51 H51           -3.2870    -4.2726    -0.2060 H       
  52 H52           -6.3060    -2.7354     1.3098 H       
  53 H53           -5.6856    -2.7200     2.9781 H       
  54 H54           -5.0052    -1.6090     1.7653 H       
  55 H55           -5.1174    -5.6151    -1.0049 H       
  56 H56           -7.0830    -6.0041    -2.1762 H       
  57 H57           -7.7341    -4.5953    -1.3046 H       
  58 H58           -6.8638    -4.3673    -2.8405 H       
  59 H59           -4.1885    -5.8034     1.5681 H       
  60 H60           -5.2787    -5.1485     2.8134 H       
  61 H61           -5.8034    -5.2087     1.1136 H       
  62 H62           -2.7144    -2.4781     2.2542 H       
  63 H63           -3.3947    -3.5891     3.4670 H       
  64 H64           -2.3831    -4.2237     2.1471 H       
@<TRIPOS>BOND
   1    1    2 1
   2    1    7 1
   3    1    8 1
   4    2    3 1
   5    2   10 2
   6    3    4 1
   7    3   33 1
   8    3   34 1
   9    4    5 1
  10    4   14 1
  11    5    6 1
  12    5   35 1
  13    5   36 1
  14    6    7 1
  15    6   37 1
  16    6   38 1
  17    7   39 1
  18    7   40 1
  19    8    9 2
  20    8   15 1
  21    9   10 1
  22   10   11 1
  23   11   12 2
  24   11   13 am
  25   13   25 1
  26   13   41 1
  27   14   42 1
  28   14   43 1
  29   14   44 1
  30   15   16 ar
  31   15   20 ar
  32   16   17 ar
  33   16   21 1
  34   17   18 ar
  35   17   23 1
  36   18   19 ar
  37   18   45 1
  38   19   20 ar
  39   19   46 1
  40   20   47 1
  41   21   22 1
  42   22   48 1
  43   22   49 1
  44   22   50 1
  45   24   28 2
  46   24   29 am
  47   24   25 1
  48   25   26 1
  49   25   51 1
  50   26   27 1
  51   26   31 1
  52   26   32 1
  53   27   52 1
  54   27   53 1
  55   27   54 1
  56   29   30 1
  57   29   55 1
  58   30   56 1
  59   30   57 1
  60   30   58 1
  61   31   59 1
  62   31   60 1
  63   31   61 1
  64   32   62 1
  65   32   63 1
  66   32   64 1

#	End of record

