#	Name: ASD02039234
#	Creating user name:	WinNT
#	Creation time:	15. 06. 2019 20:17

#	Modifying user name:	WinNT
#	Modification time:	15. 06. 2019 20:17

#	Program:	/corina/corina34_cracker 3.40 0067  02.08.2006

@<TRIPOS>MOLECULE
ASD02039234
  45   48    0    0    0
SMALL
NO_CHARGES


@<TRIPOS>ATOM
   1 N1             0.0025     1.2566     0.3780 N.2     
   2 C2             0.0062    -0.0136     0.0898 C.2     
   3 S3             1.6825    -0.4971    -0.1783 S.3     
   4 C4             2.1780     1.1644     0.1515 C.2     
   5 N5             1.1134     1.8526     0.4081 N.2     
   6 N6            -1.1067    -0.8380     0.0081 N.pl3   
   7 C7            -2.3909    -0.2941     0.1284 C.ar    
   8 C8            -2.6312     1.0147    -0.2691 C.ar    
   9 C9            -3.8984     1.5504    -0.1500 C.ar    
  10 C10           -4.9311     0.7818     0.3665 C.ar    
  11 C11           -4.6920    -0.5256     0.7639 C.ar    
  12 C12           -3.4267    -1.0648     0.6402 C.ar    
  13 O13           -6.1786     1.3103     0.4839 O.3     
  14 C14            3.5909     1.6883     0.1366 C.3     
  15 O15            4.1612     1.5573     1.4404 O.3     
  16 C16            5.4413     1.9868     1.6001 C.ar    
  17 C17            6.1322     2.5225     0.5234 C.ar    
  18 C18            7.4327     2.9590     0.6846 C.ar    
  19 C19            8.0481     2.8615     1.9250 C.ar    
  20 C20            7.3555     2.3249     3.0026 C.ar    
  21 C21            6.0541     1.8940     2.8416 C.ar    
  22 N22            9.3661     3.3036     2.0925 N.am    
  23 C23           10.0941     2.8926     3.1469 C.2     
  24 C24            9.5163     1.9367     4.1555 C.3     
  25 C25            8.0260     2.2207     4.3477 C.3     
  26 O26           11.2292     3.2969     3.2858 O.2     
  27 C27           -7.1942     0.4624     1.0239 C.3     
  28 F28           -6.8316     0.0644     2.3151 F       
  29 F29           -8.4060     1.1599     1.0739 F       
  30 F30           -7.3395    -0.6671     0.2112 F       
  31 H31           -0.9950    -1.7913    -0.1323 H       
  32 H32           -1.8272     1.6134    -0.6709 H       
  33 H33           -4.0853     2.5683    -0.4587 H       
  34 H34           -5.4966    -1.1232     1.1662 H       
  35 H35           -3.2408    -2.0827     0.9495 H       
  36 H36            4.1829     1.1165    -0.5780 H       
  37 H37            3.5858     2.7388    -0.1539 H       
  38 H38            5.6532     2.5982    -0.4416 H       
  39 H39            7.9706     3.3757    -0.1541 H       
  40 H40            5.5157     1.4769     3.6798 H       
  41 H41            9.7571     3.9098     1.4440 H       
  42 H42            9.6476     0.9141     3.8017 H       
  43 H43           10.0337     2.0583     5.1072 H       
  44 H44            7.9020     3.1584     4.8894 H       
  45 H45            7.5724     1.4097     4.9175 H       
@<TRIPOS>BOND
   1    1    2 2
   2    1    5 1
   3    2    3 1
   4    2    6 1
   5    3    4 1
   6    4    5 2
   7    4   14 1
   8    6    7 1
   9    6   31 1
  10    7    8 ar
  11    7   12 ar
  12    8    9 ar
  13    8   32 1
  14    9   10 ar
  15    9   33 1
  16   10   11 ar
  17   10   13 1
  18   11   12 ar
  19   11   34 1
  20   12   35 1
  21   13   27 1
  22   14   15 1
  23   14   36 1
  24   14   37 1
  25   15   16 1
  26   16   17 ar
  27   16   21 ar
  28   17   18 ar
  29   17   38 1
  30   18   19 ar
  31   18   39 1
  32   19   20 ar
  33   19   22 1
  34   20   21 ar
  35   20   25 1
  36   21   40 1
  37   22   23 am
  38   22   41 1
  39   23   24 1
  40   23   26 2
  41   24   25 1
  42   24   42 1
  43   24   43 1
  44   25   44 1
  45   25   45 1
  46   27   28 1
  47   27   29 1
  48   27   30 1

#	End of record

