#	Name: ASD01883059
#	Creating user name:	WinNT
#	Creation time:	15. 06. 2019 19:45

#	Modifying user name:	WinNT
#	Modification time:	15. 06. 2019 19:45

#	Program:	/corina/corina34_cracker 3.40 0067  02.08.2006

@<TRIPOS>MOLECULE
ASD01883059
  49   51    0    0    0
SMALL
NO_CHARGES


@<TRIPOS>ATOM
   1 N1            -0.0162     1.3417     0.0094 N.am    
   2 C2             0.0021    -0.0041     0.0020 C.2     
   3 C3            -1.2161    -0.7274     0.0102 C.2     
   4 C4            -2.4261    -0.0112     0.0261 C.2     
   5 C5            -2.3786     1.3968     0.0332 C.2     
   6 C6            -1.1850     2.0325     0.0299 C.2     
   7 O7             1.0657    -0.6000    -0.0122 O.2     
   8 C8            -1.2151    -2.1594     0.0021 C.1     
   9 N9            -1.2144    -3.2953    -0.0044 N.1     
  10 C10            1.2513     2.0764     0.0013 C.3     
  11 C11           -3.7218    -0.7213     0.0347 C.ar    
  12 C12            1.6787     2.3399    -1.4440 C.3     
  13 C13            2.9348     3.2134    -1.4531 C.3     
  14 C14            3.3623     3.4769    -2.8984 C.3     
  15 C15            3.6611     2.1465    -3.5925 C.3     
  16 C16            2.4050     1.2730    -3.5833 C.3     
  17 C17            1.9776     1.0095    -2.1381 C.3     
  18 C18           -4.5708    -0.6162     1.1391 C.ar    
  19 C19           -5.7778    -1.2797     1.1433 C.ar    
  20 C20           -6.1513    -2.0534     0.0510 C.ar    
  21 C21           -5.3094    -2.1609    -1.0494 C.ar    
  22 C22           -4.1037    -1.4950    -1.0640 C.ar    
  23 O23           -7.3417    -2.7063     0.0591 O.3     
  24 C24           -7.6630    -3.4838    -1.0960 C.3     
  25 C25            4.0886     2.4100    -5.0377 C.3     
  26 H26           -3.2949     1.9683     0.0453 H       
  27 H27           -1.1610     3.1122     0.0354 H       
  28 H28            1.1242     3.0258     0.5214 H       
  29 H29            2.0168     1.4859     0.5046 H       
  30 H30            0.8754     2.8531    -1.9726 H       
  31 H31            2.7219     4.1611    -0.9586 H       
  32 H32            3.7381     2.7001    -0.9245 H       
  33 H33            2.5590     3.9901    -3.4270 H       
  34 H34            4.2572     4.0991    -2.9049 H       
  35 H35            4.4644     1.6333    -3.0638 H       
  36 H36            1.6017     1.7863    -4.1120 H       
  37 H37            2.6179     0.3253    -4.0778 H       
  38 H38            2.7808     0.4963    -1.6094 H       
  39 H39            1.0827     0.3873    -2.1316 H       
  40 H40           -4.2809    -0.0157     1.9887 H       
  41 H41           -6.4347    -1.1990     1.9968 H       
  42 H42           -5.6031    -2.7634    -1.8962 H       
  43 H43           -3.4501    -1.5788    -1.9197 H       
  44 H44           -7.6895    -2.8373    -1.9733 H       
  45 H45           -6.9064    -4.2558    -1.2363 H       
  46 H46           -8.6382    -3.9512    -0.9596 H       
  47 H47            4.9835     3.0323    -5.0442 H       
  48 H48            4.3015     1.4623    -5.5322 H       
  49 H49            3.2853     2.9232    -5.5663 H       
@<TRIPOS>BOND
   1    1    2 am
   2    1   10 1
   3    1    6 1
   4    2    3 1
   5    2    7 2
   6    3    4 2
   7    3    8 1
   8    4    5 1
   9    4   11 1
  10    5    6 2
  11    5   26 1
  12    6   27 1
  13    8    9 3
  14   10   12 1
  15   10   28 1
  16   10   29 1
  17   11   18 ar
  18   11   22 ar
  19   12   13 1
  20   12   17 1
  21   12   30 1
  22   13   14 1
  23   13   31 1
  24   13   32 1
  25   14   15 1
  26   14   33 1
  27   14   34 1
  28   15   16 1
  29   15   25 1
  30   15   35 1
  31   16   17 1
  32   16   36 1
  33   16   37 1
  34   17   38 1
  35   17   39 1
  36   18   19 ar
  37   18   40 1
  38   19   20 ar
  39   19   41 1
  40   20   21 ar
  41   20   23 1
  42   21   22 ar
  43   21   42 1
  44   22   43 1
  45   23   24 1
  46   24   44 1
  47   24   45 1
  48   24   46 1
  49   25   47 1
  50   25   48 1
  51   25   49 1

#	End of record

