#	Name: ASD01708001
#	Creating user name:	WinNT
#	Creation time:	15. 06. 2019 19:22

#	Modifying user name:	WinNT
#	Modification time:	15. 06. 2019 19:22

#	Program:	/corina/corina34_cracker 3.40 0067  02.08.2006

@<TRIPOS>MOLECULE
ASD01708001
  93   97    0    0    0
SMALL
NO_CHARGES


@<TRIPOS>ATOM
   1 C1             0.1085     1.5599     1.3122 C.2     
   2 C2             0.2703     0.0617     1.3005 C.3     
   3 C3             1.6693    -0.3041     1.8004 C.3     
   4 C4             1.8002    -1.8264     1.8811 C.3     
   5 O5             0.9937     2.2598     1.7441 O.2     
   6 O6            -1.0167     2.1172     0.8378 O.3     
   7 C7             0.0859    -0.4600    -0.1260 C.3     
   8 C8            -1.1480     3.5567     0.9751 C.3     
   9 C9            -0.4521     4.2334    -0.2040 C.3     
  10 C10           -0.6254     5.7521    -0.0609 C.3     
  11 C11           -2.1017     6.0506    -0.1162 C.2     
  12 C12           -2.9837     5.1954     0.3668 C.2     
  13 C13           -4.4291     5.4936     0.2419 C.2     
  14 C14           -5.3152     4.5340     0.4460 C.2     
  15 C15           -4.9615     3.1276     0.8222 C.3     
  16 C16           -3.5051     2.8007     0.4877 C.3     
  17 C17           -2.6134     3.9109     1.0474 C.3     
  18 C18           -5.1817     2.9429     2.3250 C.3     
  19 C19            0.0918     6.4666    -1.2081 C.3     
  20 C20           -3.1200     1.4634     1.1236 C.3     
  21 C21           -4.2787     0.4754     0.9747 C.3     
  22 N22           -5.0383    -1.7672     1.5518 N.am    
  23 C23           -3.9420    -0.8207     1.7148 C.3     
  24 C24           -3.7161    -0.5131     3.1956 C.3     
  25 C25           -3.6026    -1.8374     3.9604 C.3     
  26 C26           -4.9662    -2.5322     3.9297 C.3     
  27 C27           -5.4959    -2.5562     2.5247 C.2     
  28 O28           -6.3876    -3.3347     2.2606 O.2     
  29 C29           -5.6818    -1.8530     0.2385 C.3     
  30 C30           -5.4638    -4.2315    -0.4251 C.ar    
  31 C31           -5.0330    -2.9480    -0.5683 C.ar    
  32 C32           -4.0014    -2.6316    -1.4498 C.ar    
  33 C33           -3.3942    -3.5968    -2.1932 C.ar    
  34 C34           -3.8115    -4.9333    -2.0722 C.ar    
  35 C35           -3.2080    -5.9558    -2.8227 C.ar    
  36 C36           -3.6394    -7.2435    -2.6786 C.ar    
  37 C37           -4.6750    -7.5585    -1.7930 C.ar    
  38 C38           -5.2800    -6.5917    -1.0526 C.ar    
  39 C39           -4.8611    -5.2551    -1.1751 C.ar    
  40 O40           -3.0551    -8.2317    -3.4056 O.3     
  41 C41           -3.5491    -9.5585    -3.2118 C.3     
  42 C42           -2.0912    -5.6336    -3.7819 C.3     
  43 O43           -0.8380    -5.7228    -3.1010 O.3     
  44 O44           -3.2240    -1.5803     5.3141 O.3     
  45 H45           -2.8700     4.0179     2.1014 H       
  46 H46           -0.4779    -0.3897     1.9520 H       
  47 H47            2.4160     0.0887     1.1103 H       
  48 H48            1.8260     0.1269     2.7892 H       
  49 H49            0.9975    -2.2278     2.4996 H       
  50 H50            1.7335    -2.2504     0.8791 H       
  51 H51            2.7628    -2.0855     2.3219 H       
  52 H52            0.1132    -1.5497    -0.1207 H       
  53 H53           -0.8748    -0.1225    -0.5149 H       
  54 H54            0.8879    -0.0795    -0.7585 H       
  55 H55           -0.6621     3.8686     1.8997 H       
  56 H56            0.6086     3.9826    -0.1975 H       
  57 H57           -0.9034     3.8987    -1.1380 H       
  58 H58           -0.2170     6.0824     0.8942 H       
  59 H59           -2.4424     6.9759    -0.5569 H       
  60 H60           -4.7575     6.4900    -0.0144 H       
  61 H61           -6.3610     4.7797     0.3349 H       
  62 H62           -5.6130     2.4407     0.2820 H       
  63 H63           -3.3823     2.7429    -0.5939 H       
  64 H64           -6.2272     3.1355     2.5654 H       
  65 H65           -4.9263     1.9213     2.6067 H       
  66 H66           -4.5483     3.6401     2.8734 H       
  67 H67           -0.3323     6.1437    -2.1589 H       
  68 H68           -0.0348     7.5439    -1.1009 H       
  69 H69            1.1535     6.2211    -1.1818 H       
  70 H70           -2.2364     1.0650     0.6249 H       
  71 H71           -2.9037     1.6130     2.1814 H       
  72 H72           -5.1840     0.9108     1.3978 H       
  73 H73           -4.4387     0.2596    -0.0816 H       
  74 H74           -3.0321    -1.2471     1.2925 H       
  75 H75           -2.7952     0.0577     3.3142 H       
  76 H76           -4.5577     0.0615     3.5823 H       
  77 H77           -2.8560    -2.4732     3.4844 H       
  78 H78           -4.8602    -3.5540     4.2941 H       
  79 H79           -5.6627    -1.9912     4.5701 H       
  80 H80           -6.7412    -2.0752     0.3668 H       
  81 H81           -5.5706    -0.9025    -0.2834 H       
  82 H82           -6.2618    -4.4622     0.2651 H       
  83 H83           -3.6791    -1.6053    -1.5450 H       
  84 H84           -2.5961    -3.3368    -2.8728 H       
  85 H85           -4.9991    -8.5842    -1.6961 H       
  86 H86           -6.0785    -6.8495    -0.3726 H       
  87 H87           -4.6079    -9.5931    -3.4684 H       
  88 H88           -2.9977   -10.2485    -3.8506 H       
  89 H89           -3.4185    -9.8461    -2.1685 H       
  90 H90           -2.1066    -6.3433    -4.6091 H       
  91 H91           -2.2240    -4.6229    -4.1678 H       
  92 H92           -0.0726    -5.5275    -3.6588 H       
  93 H93           -3.1340    -2.3766     5.8554 H       
@<TRIPOS>BOND
   1    1    2 1
   2    1    5 2
   3    1    6 1
   4    2    3 1
   5    2    7 1
   6    2   46 1
   7    3    4 1
   8    3   47 1
   9    3   48 1
  10    4   49 1
  11    4   50 1
  12    4   51 1
  13    6    8 1
  14    7   52 1
  15    7   53 1
  16    7   54 1
  17    8    9 1
  18    8   17 1
  19    8   55 1
  20    9   10 1
  21    9   56 1
  22    9   57 1
  23   10   11 1
  24   10   19 1
  25   10   58 1
  26   11   12 2
  27   11   59 1
  28   12   13 1
  29   12   17 1
  30   13   14 2
  31   13   60 1
  32   14   15 1
  33   14   61 1
  34   15   16 1
  35   15   18 1
  36   15   62 1
  37   16   17 1
  38   16   20 1
  39   16   63 1
  40   17   45 1
  41   18   64 1
  42   18   65 1
  43   18   66 1
  44   19   67 1
  45   19   68 1
  46   19   69 1
  47   20   21 1
  48   20   70 1
  49   20   71 1
  50   21   23 1
  51   21   72 1
  52   21   73 1
  53   22   23 1
  54   22   27 am
  55   22   29 1
  56   23   24 1
  57   23   74 1
  58   24   25 1
  59   24   75 1
  60   24   76 1
  61   25   26 1
  62   25   44 1
  63   25   77 1
  64   26   27 1
  65   26   78 1
  66   26   79 1
  67   27   28 2
  68   29   31 1
  69   29   80 1
  70   29   81 1
  71   30   31 ar
  72   30   39 ar
  73   30   82 1
  74   31   32 ar
  75   32   33 ar
  76   32   83 1
  77   33   34 ar
  78   33   84 1
  79   34   35 ar
  80   34   39 ar
  81   35   36 ar
  82   35   42 1
  83   36   37 ar
  84   36   40 1
  85   37   38 ar
  86   37   85 1
  87   38   39 ar
  88   38   86 1
  89   40   41 1
  90   41   87 1
  91   41   88 1
  92   41   89 1
  93   42   43 1
  94   42   90 1
  95   42   91 1
  96   43   92 1
  97   44   93 1

#	End of record

