#	Name: ASD05060053
#	Creating user name:	WinNT
#	Creation time:	15. 06. 2019 20:56

#	Modifying user name:	WinNT
#	Modification time:	15. 06. 2019 20:56

#	Program:	/corina/corina34_cracker 3.40 0067  02.08.2006

@<TRIPOS>MOLECULE
ASD05060053
  49   51    0    0    0
SMALL
NO_CHARGES


@<TRIPOS>ATOM
   1 O1             0.2729     1.2065     0.2663 O.3     
   2 C2             0.1299    -0.1217     0.1354 C.2     
   3 O3             1.1052    -0.8343     0.1046 O.2     
   4 C4            -1.2472    -0.7242     0.0268 C.3     
   5 C5            -1.9971    -0.4987     1.3143 C.ar    
   6 C6            -1.6482    -1.2047     2.4590 C.ar    
   7 C7            -0.5135    -2.1941     2.3912 C.3     
   8 N8            -2.2778    -1.0344     3.5971 N.ar    
   9 C9            -3.2913    -0.1711     3.7187 C.ar    
  10 C10           -3.7114     0.5893     2.6005 C.ar    
  11 C11           -3.0373     0.4204     1.3648 C.ar    
  12 C12           -3.4359     1.1909     0.1647 C.ar    
  13 C13           -3.2878     2.5778     0.1421 C.ar    
  14 C14           -3.6608     3.2906    -0.9784 C.ar    
  15 C15           -4.1819     2.6319    -2.0794 C.ar    
  16 C16           -4.3312     1.2553    -2.0625 C.ar    
  17 C17           -3.9556     0.5319    -0.9496 C.ar    
  18 Cl18          -4.6503     3.5353    -3.4859 Cl      
  19 C19           -4.7747     1.4917     2.7339 C.ar    
  20 C20           -5.3951     1.6289     3.9402 C.ar    
  21 C21           -4.9843     0.8821     5.0431 C.ar    
  22 C22           -3.9547    -0.0025     4.9472 C.ar    
  23 Br23          -6.8298     2.8477     4.1194 Br      
  24 O24           -1.1351    -2.1274    -0.2196 O.3     
  25 C25           -1.0870    -2.4720    -1.6056 C.3     
  26 C26            0.1244    -1.8012    -2.2562 C.3     
  27 C27           -0.9676    -3.9906    -1.7497 C.3     
  28 C28           -2.3663    -1.9934    -2.2949 C.3     
  29 H29            1.1758     1.5464     0.3323 H       
  30 H30           -1.7862    -0.2529    -0.7950 H       
  31 H31            0.4339    -1.6695     2.5148 H       
  32 H32           -0.6266    -2.9317     3.1857 H       
  33 H33           -0.5270    -2.6968     1.4242 H       
  34 H34           -2.8822     3.0926     1.0005 H       
  35 H35           -3.5466     4.3643    -0.9970 H       
  36 H36           -4.7384     0.7467    -2.9238 H       
  37 H37           -4.0724    -0.5417    -0.9375 H       
  38 H38           -5.1009     2.0757     1.8860 H       
  39 H39           -5.4909     1.0077     5.9887 H       
  40 H40           -3.6488    -0.5739     5.8111 H       
  41 H41            1.0359    -2.1423    -1.7652 H       
  42 H42            0.1611    -2.0642    -3.3134 H       
  43 H43            0.0394    -0.7194    -2.1536 H       
  44 H44           -1.8307    -4.4685    -1.2861 H       
  45 H45           -0.9309    -4.2535    -2.8068 H       
  46 H46           -0.0562    -4.3316    -1.2586 H       
  47 H47           -2.4514    -0.9116    -2.1923 H       
  48 H48           -2.3297    -2.2563    -3.3521 H       
  49 H49           -3.2294    -2.4713    -1.8314 H       
@<TRIPOS>BOND
   1    1    2 1
   2    1   29 1
   3    2    3 2
   4    2    4 1
   5    4    5 1
   6    4   24 1
   7    4   30 1
   8    5    6 ar
   9    5   11 ar
  10    6    7 1
  11    6    8 ar
  12    7   31 1
  13    7   32 1
  14    7   33 1
  15    8    9 ar
  16    9   10 ar
  17    9   22 ar
  18   10   11 ar
  19   10   19 ar
  20   11   12 1
  21   12   13 ar
  22   12   17 ar
  23   13   14 ar
  24   13   34 1
  25   14   15 ar
  26   14   35 1
  27   15   16 ar
  28   15   18 1
  29   16   17 ar
  30   16   36 1
  31   17   37 1
  32   19   20 ar
  33   19   38 1
  34   20   21 ar
  35   20   23 1
  36   21   22 ar
  37   21   39 1
  38   22   40 1
  39   24   25 1
  40   25   26 1
  41   25   27 1
  42   25   28 1
  43   26   41 1
  44   26   42 1
  45   26   43 1
  46   27   44 1
  47   27   45 1
  48   27   46 1
  49   28   47 1
  50   28   48 1
  51   28   49 1

#	End of record

