#	Name: ASD03550004
#	Creating user name:	WinNT
#	Creation time:	15. 06. 2019 20:43

#	Modifying user name:	WinNT
#	Modification time:	15. 06. 2019 20:43

#	Program:	/corina/corina34_cracker 3.40 0067  02.08.2006

@<TRIPOS>MOLECULE
ASD03550004
  54   55    0    0    0
SMALL
NO_CHARGES


@<TRIPOS>ATOM
   1 C1            -0.0184     1.5028     0.0103 C.2     
   2 N2             1.3055    -0.4734    -0.4867 N.3     
   3 C3             0.0021    -0.0041     0.0020 C.3     
   4 C4            -0.2279    -0.5251     1.4221 C.3     
   5 C5            -0.3300    -2.0284     1.3953 C.ar    
   6 C6             0.8066    -2.8010     1.5441 C.ar    
   7 C7             0.7129    -4.1800     1.5194 C.ar    
   8 C8            -0.5173    -4.7863     1.3464 C.ar    
   9 C9            -1.6539    -4.0136     1.1985 C.ar    
  10 C10           -1.5609    -2.6347     1.2275 C.ar    
  11 O11            1.0236     2.1234     0.0037 O.2     
  12 N12           -1.1946     2.1607     0.0195 N.am    
  13 C13           -1.2145     3.6256     0.0275 C.3     
  14 C14           -1.0907     4.1218     1.4451 C.2     
  15 N15           -1.0861     5.4457     1.6976 N.am    
  16 C16           -2.5315     4.1210    -0.5732 C.3     
  17 C17           -2.5994     3.7294    -2.0268 C.ar    
  18 C18           -3.1571     2.5174    -2.3897 C.ar    
  19 C19           -3.2205     2.1561    -3.7216 C.ar    
  20 C20           -2.7240     3.0105    -4.6953 C.ar    
  21 C21           -2.1649     4.2260    -4.3286 C.ar    
  22 C22           -2.1090     4.5852    -2.9958 C.ar    
  23 O23           -0.9954     3.3299     2.3587 O.2     
  24 O24           -2.7848     2.6571    -6.0061 O.3     
  25 C25           -0.9658     5.9282     3.0756 C.3     
  26 C26           -0.3826     7.3177     3.0723 C.2     
  27 O27           -0.1807     7.9636     4.2315 O.3     
  28 O28           -0.0968     7.8504     2.0262 O.2     
  29 C29           -2.3493     5.9573     3.7284 C.3     
  30 H30            1.4531    -0.1967    -1.4457 H       
  31 H31            2.0536    -0.1430     0.1043 H       
  32 H32           -0.7864    -0.3745    -0.6531 H       
  33 H33            0.6068    -0.2288     2.0574 H       
  34 H34           -1.1526    -0.1051     1.8179 H       
  35 H35            1.7677    -2.3274     1.6792 H       
  36 H36            1.6010    -4.7837     1.6349 H       
  37 H37           -0.5903    -5.8636     1.3264 H       
  38 H38           -2.6150    -4.4872     1.0630 H       
  39 H39           -2.4494    -2.0310     1.1156 H       
  40 H40           -2.0280     1.6644     0.0207 H       
  41 H41           -0.3805     4.0035    -0.5638 H       
  42 H42           -1.1624     6.0791     0.9669 H       
  43 H43           -3.3673     3.6721    -0.0365 H       
  44 H44           -2.5849     5.2063    -0.4864 H       
  45 H45           -3.5432     1.8524    -1.6313 H       
  46 H46           -3.6559     1.2091    -4.0045 H       
  47 H47           -1.7777     4.8929    -5.0847 H       
  48 H48           -1.6738     5.5313    -2.7098 H       
  49 H49           -3.5950     2.9392    -6.4523 H       
  50 H50           -0.3125     5.2613     3.6383 H       
  51 H51            0.1955     8.8529     4.1788 H       
  52 H52           -3.0026     6.6241     3.1657 H       
  53 H53           -2.7711     4.9522     3.7308 H       
  54 H54           -2.2598     6.3162     4.7537 H       
@<TRIPOS>BOND
   1    1    3 1
   2    1   11 2
   3    1   12 am
   4    2    3 1
   5    2   30 1
   6    2   31 1
   7    3    4 1
   8    3   32 1
   9    4    5 1
  10    4   33 1
  11    4   34 1
  12    5    6 ar
  13    5   10 ar
  14    6    7 ar
  15    6   35 1
  16    7    8 ar
  17    7   36 1
  18    8    9 ar
  19    8   37 1
  20    9   10 ar
  21    9   38 1
  22   10   39 1
  23   12   13 1
  24   12   40 1
  25   13   14 1
  26   13   16 1
  27   13   41 1
  28   14   15 am
  29   14   23 2
  30   15   25 1
  31   15   42 1
  32   16   17 1
  33   16   43 1
  34   16   44 1
  35   17   18 ar
  36   17   22 ar
  37   18   19 ar
  38   18   45 1
  39   19   20 ar
  40   19   46 1
  41   20   21 ar
  42   20   24 1
  43   21   22 ar
  44   21   47 1
  45   22   48 1
  46   24   49 1
  47   25   26 1
  48   25   29 1
  49   25   50 1
  50   26   27 1
  51   26   28 2
  52   27   51 1
  53   29   52 1
  54   29   53 1
  55   29   54 1

#	End of record

