#	Name: ASD01884691
#	Creating user name:	WinNT
#	Creation time:	15. 06. 2019 19:48

#	Modifying user name:	WinNT
#	Modification time:	15. 06. 2019 19:48

#	Program:	/corina/corina34_cracker 3.40 0067  02.08.2006

@<TRIPOS>MOLECULE
ASD01884691
  34   35    0    0    0
SMALL
NO_CHARGES


@<TRIPOS>ATOM
   1 C1            -0.0164     1.3598     0.0095 C.2     
   2 C2             0.0021    -0.0041     0.0020 C.2     
   3 C3             1.2342    -0.6727    -0.0133 C.2     
   4 C4             2.3874     0.0358    -0.0205 C.2     
   5 N5             2.3670     1.3933    -0.0126 N.am    
   6 C6             1.1996     2.0643     0.0017 C.2     
   7 O7             1.1975     3.2849     0.0083 O.2     
   8 C8             1.2747    -2.1791    -0.0213 C.3     
   9 C9             3.6294     2.1366    -0.0197 C.3     
  10 C10            4.0495     2.3996    -1.4429 C.ar    
  11 C11            3.4737     3.4386    -2.1538 C.ar    
  12 C12            3.8603     3.6796    -3.4614 C.ar    
  13 C13            4.8211     2.8820    -4.0556 C.ar    
  14 C14            5.3956     1.8438    -3.3435 C.ar    
  15 C15            5.0138     1.6069    -2.0365 C.ar    
  16 C16            0.5795    -2.7146     1.2321 C.3     
  17 Cl17           5.3062     3.1828    -5.6951 Cl      
  18 F18            2.5349     4.2168    -1.5723 F       
  19 C19            0.5552    -2.7020    -1.2663 C.3     
  20 H20           -0.9557     1.8927     0.0169 H       
  21 H21           -0.9222    -0.5627     0.0082 H       
  22 H22            3.3339    -0.4842    -0.0324 H       
  23 H23            2.3117    -2.5147    -0.0331 H       
  24 H24            3.4957     3.0849     0.5008 H       
  25 H25            4.3986     1.5511     0.4839 H       
  26 H26            3.4115     4.4897    -4.0170 H       
  27 H27            6.1460     1.2211    -3.8079 H       
  28 H28            5.4628     0.7964    -1.4816 H       
  29 H29           -0.4574    -2.3790     1.2438 H       
  30 H30            0.6088    -3.8042     1.2263 H       
  31 H31            1.0921    -2.3421     2.1190 H       
  32 H32           -0.4818    -2.3665    -1.2545 H       
  33 H33            1.0504    -2.3205    -2.1592 H       
  34 H34            0.5845    -3.7916    -1.2720 H       
@<TRIPOS>BOND
   1    1    2 2
   2    1    6 1
   3    1   20 1
   4    2    3 1
   5    2   21 1
   6    3    4 2
   7    3    8 1
   8    4    5 1
   9    4   22 1
  10    5    6 am
  11    5    9 1
  12    6    7 2
  13    8   16 1
  14    8   19 1
  15    8   23 1
  16    9   10 1
  17    9   24 1
  18    9   25 1
  19   10   11 ar
  20   10   15 ar
  21   11   12 ar
  22   11   18 1
  23   12   13 ar
  24   12   26 1
  25   13   14 ar
  26   13   17 1
  27   14   15 ar
  28   14   27 1
  29   15   28 1
  30   16   29 1
  31   16   30 1
  32   16   31 1
  33   19   32 1
  34   19   33 1
  35   19   34 1

#	End of record

