#	Name: ASD01230354
#	Creating user name:	WinNT
#	Creation time:	15. 06. 2019 19:14

#	Modifying user name:	WinNT
#	Modification time:	15. 06. 2019 19:14

#	Program:	/corina/corina34_cracker 3.40 0067  02.08.2006

@<TRIPOS>MOLECULE
ASD01230354
  37   39    0    0    0
SMALL
NO_CHARGES


@<TRIPOS>ATOM
   1 C1            -0.2107     1.3424     1.5481 C.ar    
   2 C2            -0.1489     0.1191     0.8654 C.ar    
   3 C3             1.0861    -0.3286     0.3970 C.ar    
   4 C4             2.2036     0.4589     0.6277 C.ar    
   5 C5             2.0644     1.6527     1.3082 C.ar    
   6 N6             0.8853     2.0570     1.7427 N.ar    
   7 N7            -1.4309     1.8093     2.0177 N.pl3   
   8 C8            -1.3753    -0.6849     0.6458 C.ar    
   9 C9            -1.6790    -1.1618    -0.6286 C.ar    
  10 C10           -2.8201    -1.9096    -0.8296 C.ar    
  11 C11           -3.6662    -2.1877     0.2357 C.ar    
  12 C12           -3.3664    -1.7142     1.5061 C.ar    
  13 C13           -2.2240    -0.9703     1.7144 C.ar    
  14 O14           -4.7899    -2.9244     0.0345 O.3     
  15 C15           -5.9411    -2.2647    -0.2608 C.ar    
  16 C16           -7.1357    -2.9634    -0.3615 C.ar    
  17 C17           -8.3046    -2.2917    -0.6616 C.ar    
  18 C18           -8.2848    -0.9215    -0.8619 C.ar    
  19 C19           -7.0936    -0.2232    -0.7622 C.ar    
  20 C20           -5.9238    -0.8915    -0.4560 C.ar    
  21 C21           -7.1576    -4.4545    -0.1441 C.3     
  22 F22           -9.4289    -0.2658    -1.1554 F       
  23 H23            1.1699    -1.2662    -0.1324 H       
  24 H24            3.1750     0.1412     0.2786 H       
  25 H25            2.9351     2.2658     1.4881 H       
  26 H26           -2.2372     1.2897     1.8732 H       
  27 H27           -1.4772     2.6551     2.4903 H       
  28 H28           -1.0215    -0.9454    -1.4576 H       
  29 H29           -3.0561    -2.2790    -1.8166 H       
  30 H30           -4.0264    -1.9322     2.3327 H       
  31 H31           -1.9891    -0.6060     2.7036 H       
  32 H32           -9.2345    -2.8353    -0.7404 H       
  33 H33           -7.0796     0.8452    -0.9194 H       
  34 H34           -4.9955    -0.3457    -0.3736 H       
  35 H35           -7.3344    -4.6653     0.9106 H       
  36 H36           -7.9546    -4.8971    -0.7416 H       
  37 H37           -6.1997    -4.8795    -0.4440 H       
@<TRIPOS>BOND
   1    1    2 ar
   2    1    6 ar
   3    1    7 1
   4    2    3 ar
   5    2    8 1
   6    3    4 ar
   7    3   23 1
   8    4    5 ar
   9    4   24 1
  10    5    6 ar
  11    5   25 1
  12    7   26 1
  13    7   27 1
  14    8    9 ar
  15    8   13 ar
  16    9   10 ar
  17    9   28 1
  18   10   11 ar
  19   10   29 1
  20   11   12 ar
  21   11   14 1
  22   12   13 ar
  23   12   30 1
  24   13   31 1
  25   14   15 1
  26   15   16 ar
  27   15   20 ar
  28   16   17 ar
  29   16   21 1
  30   17   18 ar
  31   17   32 1
  32   18   19 ar
  33   18   22 1
  34   19   20 ar
  35   19   33 1
  36   20   34 1
  37   21   35 1
  38   21   36 1
  39   21   37 1

#	End of record

