#	Name: ASD01001013
#	Creating user name:	WinNT
#	Creation time:	15. 06. 2019 18:54

#	Modifying user name:	WinNT
#	Modification time:	15. 06. 2019 18:54

#	Program:	/corina/corina34_cracker 3.40 0067  02.08.2006

@<TRIPOS>MOLECULE
ASD01001013
  57   60    0    0    0
SMALL
NO_CHARGES


@<TRIPOS>ATOM
   1 C1             1.4554     0.8606     2.1945 C.ar    
   2 C2             1.6456    -0.4138     1.6940 C.ar    
   3 C3             0.6332     1.7495     1.5276 C.ar    
   4 C4             1.0135    -0.7994     0.5266 C.ar    
   5 C5             0.0011     1.3640     0.3603 C.ar    
   6 C6             0.1909     0.0894    -0.1400 C.ar    
   7 C7             1.2216    -2.1884    -0.0196 C.3     
   8 C8             0.6504    -2.2716    -1.4116 C.ar    
   9 C9             2.6963    -2.4956    -0.0625 C.ar    
  10 S10            0.3845    -3.3905     1.0504 S.3     
  11 C11            1.0702    -1.3846    -2.3852 C.ar    
  12 C12           -0.2893    -3.2386    -1.7164 C.ar    
  13 C13            3.1322    -3.8019     0.0667 C.ar    
  14 C14            3.6088    -1.4707    -0.2368 C.ar    
  15 C15            0.5462    -1.4610    -3.6621 C.ar    
  16 C16           -0.8133    -3.3149    -2.9933 C.ar    
  17 C17            4.4816    -4.0890     0.0276 C.ar    
  18 C18            4.9606    -1.7463    -0.2774 C.ar    
  19 C19           -0.3973    -2.4245    -3.9655 C.ar    
  20 C20            5.4055    -3.0599    -0.1424 C.ar    
  21 C21           -1.3118    -2.7529     1.1316 C.3     
  22 C22           -2.1288    -3.6000     2.1091 C.3     
  23 N23           -1.5883    -3.4404     3.4657 N.3     
  24 C24            6.8576    -3.3623    -0.1848 C.ar    
  25 C25            7.3023    -4.6760    -0.0498 C.ar    
  26 C26            8.6537    -4.9521    -0.0903 C.ar    
  27 C27            9.5670    -3.9267    -0.2647 C.ar    
  28 C28            9.1304    -2.6202    -0.3993 C.ar    
  29 C29            7.7808    -2.3343    -0.3654 C.ar    
  30 Br30          11.4175    -4.3122    -0.3187 Br      
  31 C31           -3.5664    -3.1487     2.0849 C.2     
  32 O32           -3.9850    -2.4181     2.9515 O.2     
  33 O33           -4.3820    -3.5583     1.1006 O.3     
  34 H34            1.9457     1.1604     3.1089 H       
  35 H35            2.2883    -1.1081     2.2148 H       
  36 H36            0.4844     2.7451     1.9188 H       
  37 H37           -0.6418     2.0582    -0.1604 H       
  38 H38           -0.3024    -0.2116    -1.0524 H       
  39 H39            1.8074    -0.6318    -2.1481 H       
  40 H40           -0.6139    -3.9346    -0.9571 H       
  41 H41            2.4152    -4.5988     0.1988 H       
  42 H42            3.2629    -0.4530    -0.3417 H       
  43 H43            0.8737    -0.7675    -4.4225 H       
  44 H44           -1.5472    -4.0706    -3.2316 H       
  45 H45            4.8208    -5.1093     0.1289 H       
  46 H46            5.6722    -0.9454    -0.4132 H       
  47 H47           -0.8070    -2.4839    -4.9630 H       
  48 H48           -1.2949    -1.7181     1.4737 H       
  49 H49           -1.7657    -2.8010     0.1418 H       
  50 H50           -2.0722    -4.6485     1.8165 H       
  51 H51           -1.6297    -2.4762     3.7603 H       
  52 H52           -2.0698    -4.0392     4.1196 H       
  53 H53            6.5905    -5.4767     0.0867 H       
  54 H54            8.9994    -5.9699     0.0146 H       
  55 H55            9.8470    -1.8236    -0.5348 H       
  56 H56            7.4410    -1.3146    -0.4709 H       
  57 H57           -5.2955    -3.2425     1.1274 H       
@<TRIPOS>BOND
   1    1    2 ar
   2    1    3 ar
   3    1   34 1
   4    2    4 ar
   5    2   35 1
   6    3    5 ar
   7    3   36 1
   8    4    6 ar
   9    4    7 1
  10    5    6 ar
  11    5   37 1
  12    6   38 1
  13    7    8 1
  14    7    9 1
  15    7   10 1
  16    8   11 ar
  17    8   12 ar
  18    9   13 ar
  19    9   14 ar
  20   10   21 1
  21   11   15 ar
  22   11   39 1
  23   12   16 ar
  24   12   40 1
  25   13   17 ar
  26   13   41 1
  27   14   18 ar
  28   14   42 1
  29   15   19 ar
  30   15   43 1
  31   16   19 ar
  32   16   44 1
  33   17   20 ar
  34   17   45 1
  35   18   20 ar
  36   18   46 1
  37   19   47 1
  38   20   24 1
  39   21   22 1
  40   21   48 1
  41   21   49 1
  42   22   23 1
  43   22   31 1
  44   22   50 1
  45   23   51 1
  46   23   52 1
  47   24   25 ar
  48   24   29 ar
  49   25   26 ar
  50   25   53 1
  51   26   27 ar
  52   26   54 1
  53   27   28 ar
  54   27   30 1
  55   28   29 ar
  56   28   55 1
  57   29   56 1
  58   31   32 2
  59   31   33 1
  60   33   57 1

#	End of record

