#	Name: ASD05430724
#	Creating user name:	WinNT
#	Creation time:	15. 06. 2019 21:00

#	Modifying user name:	WinNT
#	Modification time:	15. 06. 2019 21:00

#	Program:	/corina/corina34_cracker 3.40 0067  02.08.2006

@<TRIPOS>MOLECULE
ASD05430724
  55   59    0    0    0
SMALL
NO_CHARGES


@<TRIPOS>ATOM
   1 C1            -0.0169     1.3982     0.0097 C.2     
   2 C2             0.0021    -0.0041     0.0020 C.2     
   3 C3            -1.2670    -0.7272     0.0107 C.2     
   4 N4            -2.3858    -0.0589     0.0253 N.2     
   5 N5            -2.4011     1.3377     0.0330 N.am    
   6 C6            -1.2627     2.0575     0.0303 C.2     
   7 O7            -1.3097     3.2771     0.0376 O.2     
   8 C8            -3.6881     2.0374     0.0494 C.3     
   9 C9            -4.4930     1.6540    -1.1940 C.3     
  10 C10           -4.4566     1.6466     1.2855 C.ar    
  11 C11           -5.1758     2.5996     1.9815 C.ar    
  12 C12           -5.8823     2.2417     3.1174 C.ar    
  13 C13           -5.8680     0.9288     3.5556 C.ar    
  14 C14           -5.1474    -0.0249     2.8577 C.ar    
  15 C15           -4.4462     0.3343     1.7189 C.ar    
  16 N16            1.2876     1.8272    -0.0004 N.pl3   
  17 C17            2.1127     0.7335    -0.0142 C.2     
  18 C18            1.3539    -0.3974    -0.0130 C.2     
  19 C19            3.5905     0.7744    -0.0288 C.ar    
  20 C20            4.3225    -0.4137    -0.0421 C.ar    
  21 C21            5.7046    -0.3708    -0.0557 C.ar    
  22 C22            6.3634     0.8577    -0.0562 C.ar    
  23 C23            5.6341     2.0391    -0.0429 C.ar    
  24 C24            4.2560     2.0017    -0.0351 C.ar    
  25 N25            7.7648     0.9003    -0.0695 N.pl3   
  26 C26            8.6012     0.2188     0.7555 C.2     
  27 N27            9.8319     0.5160     0.4378 N.2     
  28 C28            9.8295     1.3839    -0.5848 C.2     
  29 C29            8.5496     1.6333    -0.9216 C.2     
  30 C30           11.0484     1.9736    -1.2463 C.3     
  31 F31           -5.1322    -1.3066     3.2845 F       
  32 F32           -6.5849     3.1736     3.7979 F       
  33 O33            6.4207    -1.5264    -0.0682 O.3     
  34 C34            5.6802    -2.7486    -0.0665 C.3     
  35 H35           -1.2781    -1.8071     0.0046 H       
  36 H36           -3.5165     3.1138     0.0535 H       
  37 H37           -4.6647     0.5776    -1.1981 H       
  38 H38           -5.4506     2.1746    -1.1817 H       
  39 H39           -3.9372     1.9367    -2.0880 H       
  40 H40           -5.1865     3.6240     1.6397 H       
  41 H41           -6.4185     0.6488     4.4417 H       
  42 H42           -3.8841    -0.4097     1.1739 H       
  43 H43            1.5774     2.7529     0.0013 H       
  44 H44            1.7224    -1.4125    -0.0213 H       
  45 H45            3.8106    -1.3647    -0.0414 H       
  46 H46            6.1475     2.9893    -0.0429 H       
  47 H47            3.6910     2.9221    -0.0252 H       
  48 H48            8.2987    -0.4556     1.5429 H       
  49 H49            8.2072     2.2901    -1.7075 H       
  50 H50           11.3602     1.3327    -2.0709 H       
  51 H51           10.8102     2.9665    -1.6278 H       
  52 H52           11.8565     2.0483    -0.5185 H       
  53 H53            6.3708    -3.5918    -0.0773 H       
  54 H54            5.0614    -2.7972     0.8295 H       
  55 H55            5.0436    -2.7889    -0.9504 H       
@<TRIPOS>BOND
   1    1    2 2
   2    1   16 1
   3    1    6 1
   4    2    3 1
   5    2   18 1
   6    3    4 2
   7    3   35 1
   8    4    5 1
   9    5    6 am
  10    5    8 1
  11    6    7 2
  12    8    9 1
  13    8   10 1
  14    8   36 1
  15    9   37 1
  16    9   38 1
  17    9   39 1
  18   10   11 ar
  19   10   15 ar
  20   11   12 ar
  21   11   40 1
  22   12   13 ar
  23   12   32 1
  24   13   14 ar
  25   13   41 1
  26   14   15 ar
  27   14   31 1
  28   15   42 1
  29   16   17 1
  30   16   43 1
  31   17   18 2
  32   17   19 1
  33   18   44 1
  34   19   20 ar
  35   19   24 ar
  36   20   21 ar
  37   20   45 1
  38   21   22 ar
  39   21   33 1
  40   22   23 ar
  41   22   25 1
  42   23   24 ar
  43   23   46 1
  44   24   47 1
  45   25   26 1
  46   25   29 1
  47   26   27 2
  48   26   48 1
  49   27   28 1
  50   28   29 2
  51   28   30 1
  52   29   49 1
  53   30   50 1
  54   30   51 1
  55   30   52 1
  56   33   34 1
  57   34   53 1
  58   34   54 1
  59   34   55 1

#	End of record

