#	Name: ASD05740220
#	Creating user name:	WinNT
#	Creation time:	15. 06. 2019 21:03

#	Modifying user name:	WinNT
#	Modification time:	15. 06. 2019 21:03

#	Program:	/corina/corina34_cracker 3.40 0067  02.08.2006

@<TRIPOS>MOLECULE
ASD05740220
  65   70    0    0    0
SMALL
NO_CHARGES


@<TRIPOS>ATOM
   1 C1             1.6227    -2.8710     0.7573 C.3     
   2 N2             0.7765    -2.0289     1.6142 N.3     
   3 C3            -0.5804    -2.2757     1.3768 C.ar    
   4 C4            -1.5479    -1.5785     2.0885 C.ar    
   5 C5            -2.8866    -1.8220     1.8543 C.ar    
   6 C6            -3.2656    -2.7644     0.9073 C.ar    
   7 C7            -2.2982    -3.4619     0.1959 C.ar    
   8 C8            -0.9595    -3.2137     0.4254 C.ar    
   9 N9            -4.6238    -3.0118     0.6700 N.pl3   
  10 C10           -5.5386    -1.9804     0.7545 C.ar    
  11 N11           -5.0920    -0.7443     0.9484 N.ar    
  12 N12           -6.8279    -2.2607     0.6336 N.ar    
  13 C13           -7.7344    -1.2949     0.7095 C.ar    
  14 C14           -7.2969     0.0312     0.9208 C.ar    
  15 C15           -5.9242     0.2778     1.0366 C.ar    
  16 N16           -9.0754    -1.5534     0.5879 N.am    
  17 C17           -9.9807    -0.5620     0.6669 C.2     
  18 C18           -9.5984     0.7784     0.8762 C.2     
  19 C19           -8.2851     1.1021     1.0060 C.2     
  20 C20           -9.5285    -2.9291     0.3682 C.3     
  21 O21          -11.1643    -0.8300     0.5541 O.2     
  22 C22           -9.6747    -3.6278     1.6954 C.ar    
  23 C23           -9.9660    -4.9919     1.7393 C.ar    
  24 C24            1.1072    -2.2257     3.0325 C.3     
  25 C25            2.5776    -1.8700     3.2647 C.3     
  26 N26            3.4239    -2.7121     2.4078 N.3     
  27 C27            3.0931    -2.5154     0.9895 C.3     
  28 C28            4.8482    -2.4531     2.6570 C.3     
  29 C29          -10.0994    -5.6316     2.9728 C.ar    
  30 C30           -9.9427    -4.9127     4.1396 C.ar    
  31 C31           -9.6543    -3.5602     4.0891 C.ar    
  32 C32           -9.5153    -2.9215     2.8699 C.ar    
  33 C33          -10.1331    -5.7560     0.4848 C.2     
  34 S34          -11.2717    -5.3662    -0.7979 S.3     
  35 C35          -10.7302    -6.7481    -1.7410 C.2     
  36 C36           -9.7702    -7.3993    -1.0780 C.2     
  37 C37           -9.4325    -6.8561     0.1444 C.2     
  38 H38            1.4591    -3.9202     1.0032 H       
  39 H39            1.3675    -2.6982    -0.2882 H       
  40 H40           -1.2532    -0.8461     2.8255 H       
  41 H41           -3.6390    -1.2799     2.4078 H       
  42 H42           -2.5930    -4.1953    -0.5400 H       
  43 H43           -0.2071    -3.7561    -0.1279 H       
  44 H44           -4.9218    -3.9074     0.4464 H       
  45 H45           -5.5543     1.2794     1.1989 H       
  46 H46          -10.3515     1.5504     0.9340 H       
  47 H47           -7.9802     2.1256     1.1670 H       
  48 H48          -10.4905    -2.9174    -0.1442 H       
  49 H49           -8.7978    -3.4591    -0.2428 H       
  50 H50            0.4762    -1.5824     3.6457 H       
  51 H51            0.9378    -3.2676     3.3042 H       
  52 H52            2.7412    -0.8208     3.0188 H       
  53 H53            2.8328    -2.0429     4.3102 H       
  54 H54            3.7241    -3.1587     0.3763 H       
  55 H55            3.2625    -1.4735     0.7178 H       
  56 H56            5.0801    -2.6710     3.6995 H       
  57 H57            5.4519    -3.0894     2.0099 H       
  58 H58            5.0695    -1.4067     2.4466 H       
  59 H59          -10.3251    -6.6869     3.0135 H       
  60 H60          -10.0456    -5.4064     5.0946 H       
  61 H61           -9.5333    -3.0018     5.0055 H       
  62 H62           -9.2898    -1.8658     2.8374 H       
  63 H63          -11.1159    -7.0285    -2.7101 H       
  64 H64           -9.2907    -8.2832    -1.4720 H       
  65 H65           -8.6725    -7.2832     0.7818 H       
@<TRIPOS>BOND
   1    1    2 1
   2    1   27 1
   3    1   38 1
   4    1   39 1
   5    2    3 1
   6    2   24 1
   7    3    4 ar
   8    3    8 ar
   9    4    5 ar
  10    4   40 1
  11    5    6 ar
  12    5   41 1
  13    6    7 ar
  14    6    9 1
  15    7    8 ar
  16    7   42 1
  17    8   43 1
  18    9   10 1
  19    9   44 1
  20   10   11 ar
  21   10   12 ar
  22   11   15 ar
  23   12   13 ar
  24   13   14 ar
  25   13   16 1
  26   14   15 ar
  27   14   19 1
  28   15   45 1
  29   16   17 am
  30   16   20 1
  31   17   18 1
  32   17   21 2
  33   18   19 2
  34   18   46 1
  35   19   47 1
  36   20   22 1
  37   20   48 1
  38   20   49 1
  39   22   23 ar
  40   22   32 ar
  41   23   29 ar
  42   23   33 1
  43   24   25 1
  44   24   50 1
  45   24   51 1
  46   25   26 1
  47   25   52 1
  48   25   53 1
  49   26   27 1
  50   26   28 1
  51   27   54 1
  52   27   55 1
  53   28   56 1
  54   28   57 1
  55   28   58 1
  56   29   30 ar
  57   29   59 1
  58   30   31 ar
  59   30   60 1
  60   31   32 ar
  61   31   61 1
  62   32   62 1
  63   33   34 1
  64   33   37 2
  65   34   35 1
  66   35   36 2
  67   35   63 1
  68   36   37 1
  69   36   64 1
  70   37   65 1

#	End of record

