#	Name: ASD07930810
#	Creating user name:	WinNT
#	Creation time:	15. 06. 2019 21:13

#	Modifying user name:	WinNT
#	Modification time:	15. 06. 2019 21:13

#	Program:	/corina/corina34_cracker 3.40 0067  02.08.2006

@<TRIPOS>MOLECULE
ASD07930810
  83   86    0    0    0
SMALL
NO_CHARGES


@<TRIPOS>ATOM
   1 C1            -0.0162     1.3436     0.0094 C.2     
   2 N2             0.0021    -0.0041     0.0020 N.am    
   3 C3            -1.1558    -0.6938     0.0094 C.2     
   4 O4             1.0272     1.9650     0.0028 O.2     
   5 O5            -1.1906     2.0005     0.0186 O.3     
   6 O6            -1.1394    -1.9081     0.0027 O.2     
   7 O7            -2.3302    -0.0368     0.0241 O.3     
   8 S8             2.7036     0.2556    -0.0224 S.3     
   9 C9             1.2124    -0.6811    -0.0132 C.2     
  10 N10            1.1996    -1.9551    -0.0195 N.2     
  11 C11            2.2835    -2.9077    -0.0450 C.3     
  12 C12            3.6808    -2.2831    -0.1633 C.3     
  13 C13            3.8270    -1.0039     0.6367 C.3     
  14 O14            3.1154    -3.1335    -2.2921 O.3     
  15 C15            2.1834    -3.7104    -1.3689 C.3     
  16 C16            3.7888    -2.0195    -1.6788 C.3     
  17 C17            5.2563    -1.9806    -2.1100 C.3     
  18 C18            2.1989    -3.8324     1.1419 C.ar    
  19 C19            3.1398    -4.8384     1.3044 C.ar    
  20 C20            3.0667    -5.6921     2.3946 C.ar    
  21 C21            2.0575    -5.5440     3.3220 C.ar    
  22 C22            1.1094    -4.5339     3.1625 C.ar    
  23 C23            1.1900    -3.6738     2.0673 C.ar    
  24 O24           -0.2732    -5.1455     5.3950 O.3     
  25 B25           -0.0421    -4.3616     4.2158 Du      
  26 O26           -1.0935    -3.3854     4.2101 O.3     
  27 C27           -1.2373    -2.9954     5.5921 C.3     
  28 C28           -0.6811    -4.1887     6.3955 C.3     
  29 C29           -1.7709    -4.7840     7.2893 C.3     
  30 C30            0.5201    -3.7518     7.2364 C.3     
  31 C31           -0.4206    -1.7335     5.8777 C.3     
  32 C32           -2.7116    -2.7657     5.9306 C.3     
  33 F33            4.1302    -4.9873     0.3976 F       
  34 C34           -1.1343     3.4514     0.0262 C.3     
  35 C35           -0.3998     3.9398    -1.2239 C.3     
  36 C36           -2.5560     4.0169     0.0360 C.3     
  37 C37           -0.3879     3.9263     1.2745 C.3     
  38 C38           -3.5371    -0.8441     0.0313 C.3     
  39 C39           -3.5481    -1.7339     1.2759 C.3     
  40 C40           -4.7629     0.0713     0.0479 C.3     
  41 C41           -3.5719    -1.7205    -1.2224 C.3     
  42 H42            4.4366    -3.0037     0.1491 H       
  43 H43            4.8544    -0.6468     0.5660 H       
  44 H44            3.5817    -1.1986     1.6808 H       
  45 H45            2.4388    -4.7546    -1.1889 H       
  46 H46            1.1724    -3.6386    -1.7699 H       
  47 H47            3.2909    -1.0852    -1.9383 H       
  48 H48            5.7276    -2.9364    -1.8814 H       
  49 H49            5.3151    -1.7937    -3.1822 H       
  50 H50            5.7715    -1.1839    -1.5735 H       
  51 H51            3.8012    -6.4743     2.5171 H       
  52 H52            2.0011    -6.2096     4.1707 H       
  53 H53            0.4605    -2.8872     1.9425 H       
  54 H54           -1.3788    -5.6602     7.8057 H       
  55 H55           -2.0857    -4.0410     8.0221 H       
  56 H56           -2.6244    -5.0748     6.6769 H       
  57 H57            1.2792    -3.3160     6.5867 H       
  58 H58            0.2004    -3.0110     7.9693 H       
  59 H59            0.9365    -4.6170     7.7522 H       
  60 H60           -0.7891    -0.9147     5.2598 H       
  61 H61           -0.5191    -1.4674     6.9301 H       
  62 H62            0.6283    -1.9195     5.6466 H       
  63 H63           -3.2753    -3.6783     5.7368 H       
  64 H64           -2.8052    -2.4974     6.9829 H       
  65 H65           -3.1045    -1.9579     5.3133 H       
  66 H66           -0.9315     3.6015    -2.1132 H       
  67 H67           -0.3575     5.0290    -1.2182 H       
  68 H68            0.6130     3.5370    -1.2309 H       
  69 H69           -3.0793     3.6689     0.9266 H       
  70 H70           -2.5137     5.1061     0.0417 H       
  71 H71           -3.0877     3.6786    -0.8533 H       
  72 H72            0.6249     3.5234     1.2675 H       
  73 H73           -0.3457     5.0154     1.2802 H       
  74 H74           -0.9112     3.5783     2.1651 H       
  75 H75           -3.5233    -1.1096     2.1691 H       
  76 H76           -4.4541    -2.3399     1.2813 H       
  77 H77           -2.6748    -2.3860     1.2641 H       
  78 H78           -4.7551     0.7051    -0.8388 H       
  79 H79           -5.6689    -0.5348     0.0533 H       
  80 H80           -4.7381     0.6956     0.9411 H       
  81 H81           -2.6986    -2.3726    -1.2342 H       
  82 H82           -4.4779    -2.3265    -1.2170 H       
  83 H83           -3.5641    -1.0866    -2.1091 H       
@<TRIPOS>BOND
   1    1    2 am
   2    1    4 2
   3    1    5 1
   4    2    3 am
   5    2    9 1
   6    3    6 2
   7    3    7 1
   8    5   34 1
   9    7   38 1
  10    8    9 1
  11    8   13 1
  12    9   10 2
  13   10   11 1
  14   11   15 1
  15   11   18 1
  16   11   12 1
  17   12   13 1
  18   12   16 1
  19   12   42 1
  20   13   43 1
  21   13   44 1
  22   14   15 1
  23   14   16 1
  24   15   45 1
  25   15   46 1
  26   16   17 1
  27   16   47 1
  28   17   48 1
  29   17   49 1
  30   17   50 1
  31   18   19 ar
  32   18   23 ar
  33   19   20 ar
  34   19   33 1
  35   20   21 ar
  36   20   51 1
  37   21   22 ar
  38   21   52 1
  39   22   23 ar
  40   22   25 1
  41   23   53 1
  42   24   25 1
  43   24   28 1
  44   25   26 1
  45   26   27 1
  46   27   28 1
  47   27   31 1
  48   27   32 1
  49   28   29 1
  50   28   30 1
  51   29   54 1
  52   29   55 1
  53   29   56 1
  54   30   57 1
  55   30   58 1
  56   30   59 1
  57   31   60 1
  58   31   61 1
  59   31   62 1
  60   32   63 1
  61   32   64 1
  62   32   65 1
  63   34   35 1
  64   34   37 1
  65   34   36 1
  66   35   66 1
  67   35   67 1
  68   35   68 1
  69   36   69 1
  70   36   70 1
  71   36   71 1
  72   37   72 1
  73   37   73 1
  74   37   74 1
  75   38   39 1
  76   38   41 1
  77   38   40 1
  78   39   75 1
  79   39   76 1
  80   39   77 1
  81   40   78 1
  82   40   79 1
  83   40   80 1
  84   41   81 1
  85   41   82 1
  86   41   83 1

#	End of record

