#	Name: ASD04882148
#	Creating user name:	WinNT
#	Creation time:	15. 06. 2019 20:54

#	Modifying user name:	WinNT
#	Modification time:	15. 06. 2019 20:54

#	Program:	/corina/corina34_cracker 3.40 0067  02.08.2006

@<TRIPOS>MOLECULE
ASD04882148
  74   78    0    0    0
SMALL
NO_CHARGES


@<TRIPOS>ATOM
   1 C1             0.1691     1.1605    -0.9399 C.2     
   2 C2             0.1006    -0.1097    -0.4417 C.2     
   3 C3            -1.0728    -0.9866    -0.4781 C.2     
   4 N4            -1.0062    -2.2239     0.0522 N.am    
   5 C5            -2.1582    -3.0177     0.1250 C.ar    
   6 C6            -2.0622    -4.4046    -0.0195 C.ar    
   7 C7            -3.2045    -5.1936     0.0525 C.ar    
   8 C8            -4.4345    -4.6120     0.2664 C.ar    
   9 C9            -4.5376    -3.2257     0.4118 C.ar    
  10 C10           -3.3899    -2.4307     0.3455 C.ar    
  11 N11           -0.8207    -4.9968    -0.2363 N.3     
  12 C12           -0.2712    -4.6051    -1.5418 C.3     
  13 C13           -0.9077    -6.4593    -0.1222 C.3     
  14 C14            0.4880    -7.0652    -0.2877 C.3     
  15 N15            1.0375    -6.6735    -1.5932 N.3     
  16 C16            1.1245    -5.2110    -1.7074 C.3     
  17 C17            2.2828    -7.2675    -1.8107 C.ar    
  18 C18            2.4709    -8.1119    -2.8973 C.ar    
  19 C19            3.3377    -7.0105    -0.9439 C.ar    
  20 C20            4.5675    -7.5994    -1.1619 C.ar    
  21 C21            4.7499    -8.4440    -2.2418 C.ar    
  22 C22            3.7036    -8.6977    -3.1094 C.ar    
  23 C23           -5.8553    -2.6030     0.6409 C.2     
  24 N24           -6.9606    -3.3710     0.7102 N.am    
  25 O25           -5.9440    -1.3969     0.7673 O.2     
  26 O26            1.3030    -0.4157     0.0895 O.3     
  27 C27            2.1321     0.6260    -0.0584 C.2     
  28 C28            1.4700     1.6224    -0.6907 C.2     
  29 O29           -2.1078    -0.5976    -0.9874 O.2     
  30 Br30           3.9306     0.6934     0.5218 Br      
  31 C31            1.3311    -8.3891    -3.8434 C.3     
  32 C32           -8.2691    -2.7527     0.9377 C.3     
  33 C33           -9.3469    -3.8380     0.9732 C.3     
  34 C34          -10.7134    -3.1923     1.2108 C.3     
  35 N35          -11.7454    -4.2315     1.2448 N.am    
  36 C36          -12.1388    -4.8737     2.3582 C.2     
  37 C37          -12.4869    -4.7009     0.0685 C.3     
  38 C38          -13.1143    -6.0489     0.4876 C.3     
  39 C39          -13.2119    -5.8861     2.0233 C.3     
  40 O40          -11.6972    -4.6713     3.4695 O.2     
  41 H41           -0.6236     1.7024    -1.4343 H       
  42 H42           -0.1606    -2.5647     0.3835 H       
  43 H43           -3.1274    -6.2649    -0.0599 H       
  44 H44           -5.3201    -5.2276     0.3215 H       
  45 H45           -3.4665    -1.3593     0.4578 H       
  46 H46           -0.9229    -4.9709    -2.3353 H       
  47 H47           -0.2049    -3.5185    -1.5972 H       
  48 H48           -1.3054    -6.7246     0.8574 H       
  49 H49           -1.5666    -6.8462    -0.8995 H       
  50 H50            1.1397    -6.6994     0.5057 H       
  51 H51            0.4217    -8.1518    -0.2323 H       
  52 H52            1.5222    -4.9457    -2.6869 H       
  53 H53            1.7835    -4.8241    -0.9301 H       
  54 H54            3.1961    -6.3506    -0.1008 H       
  55 H55            5.3879    -7.4001    -0.4884 H       
  56 H56            5.7130    -8.9027    -2.4104 H       
  57 H57            3.8494    -9.3578    -3.9518 H       
  58 H58           -6.8898    -4.3332     0.6094 H       
  59 H59            1.8683     2.5910    -0.9544 H       
  60 H60            1.3386    -7.6527    -4.6470 H       
  61 H61            1.4436    -9.3880    -4.2650 H       
  62 H62            0.3868    -8.3272    -3.3026 H       
  63 H63           -8.2587    -2.2197     1.8885 H       
  64 H64           -8.4852    -2.0523     0.1310 H       
  65 H65           -9.3573    -4.3710     0.0224 H       
  66 H66           -9.1308    -4.5384     1.7799 H       
  67 H67          -10.7030    -2.6593     2.1616 H       
  68 H68          -10.9295    -2.4919     0.4041 H       
  69 H69          -13.2676    -3.9872    -0.1948 H       
  70 H70          -11.8083    -4.8459    -0.7721 H       
  71 H71          -14.1033    -6.1729     0.0465 H       
  72 H72          -12.4631    -6.8817     0.2219 H       
  73 H73          -13.0103    -6.8346     2.5211 H       
  74 H74          -14.1944    -5.5075     2.3051 H       
@<TRIPOS>BOND
   1    1    2 2
   2    1   28 1
   3    1   41 1
   4    2    3 1
   5    2   26 1
   6    3    4 am
   7    3   29 2
   8    4    5 1
   9    4   42 1
  10    5    6 ar
  11    5   10 ar
  12    6    7 ar
  13    6   11 1
  14    7    8 ar
  15    7   43 1
  16    8    9 ar
  17    8   44 1
  18    9   10 ar
  19    9   23 1
  20   10   45 1
  21   11   12 1
  22   11   13 1
  23   12   16 1
  24   12   46 1
  25   12   47 1
  26   13   14 1
  27   13   48 1
  28   13   49 1
  29   14   15 1
  30   14   50 1
  31   14   51 1
  32   15   16 1
  33   15   17 1
  34   16   52 1
  35   16   53 1
  36   17   18 ar
  37   17   19 ar
  38   18   31 1
  39   18   22 ar
  40   19   20 ar
  41   19   54 1
  42   20   21 ar
  43   20   55 1
  44   21   22 ar
  45   21   56 1
  46   22   57 1
  47   23   24 am
  48   23   25 2
  49   24   32 1
  50   24   58 1
  51   26   27 1
  52   27   28 2
  53   27   30 1
  54   28   59 1
  55   31   60 1
  56   31   61 1
  57   31   62 1
  58   32   33 1
  59   32   63 1
  60   32   64 1
  61   33   34 1
  62   33   65 1
  63   33   66 1
  64   34   35 1
  65   34   67 1
  66   34   68 1
  67   35   36 am
  68   35   37 1
  69   36   40 2
  70   36   39 1
  71   37   38 1
  72   37   69 1
  73   37   70 1
  74   38   39 1
  75   38   71 1
  76   38   72 1
  77   39   73 1
  78   39   74 1

#	End of record

