#	Name: ASD01120256
#	Creating user name:	WinNT
#	Creation time:	15. 06. 2019 18:59

#	Modifying user name:	WinNT
#	Modification time:	15. 06. 2019 18:59

#	Program:	/corina/corina34_cracker 3.40 0067  02.08.2006

@<TRIPOS>MOLECULE
ASD01120256
  60   61    0    0    0
SMALL
NO_CHARGES


@<TRIPOS>ATOM
   1 C1            -0.0167     1.3779     0.0096 C.ar    
   2 C2             0.0021    -0.0041     0.0020 C.ar    
   3 C3            -1.1857    -0.7116     0.0095 C.ar    
   4 C4            -2.3919    -0.0369     0.0251 C.ar    
   5 C5            -2.4106     1.3455     0.0336 C.ar    
   6 C6            -1.2232     2.0528     0.0305 C.ar    
   7 S7            -3.9483     2.2057     0.0529 S.o2    
   8 N8            -4.3616     2.4354     1.6399 N.am    
   9 C9            -3.6009     3.2212     2.4274 C.2     
  10 N10           -3.9372     3.4082     3.7191 N.am    
  11 O11           -3.6934     3.4955    -0.4862 O.2     
  12 O12           -4.9136     1.3142    -0.4882 O.2     
  13 O13           -2.6111     3.7615     1.9726 O.2     
  14 C14           -3.3354    11.7470    13.5151 C.ar    
  15 C15           -3.8960    13.0099    13.4819 C.ar    
  16 C16           -5.2556    13.1577    13.2791 C.ar    
  17 C17           -6.0542    12.0425    13.1095 C.ar    
  18 C18           -5.4935    10.7791    13.1427 C.ar    
  19 C19           -4.1335    10.6317    13.3398 C.ar    
  20 S20           -6.5116     9.3574    12.9266 S.o2    
  21 N21           -6.5547     9.0274    11.3044 N.am    
  22 C22           -5.4295     8.6560    10.6621 C.2     
  23 N23           -5.4645     8.3874     9.3419 N.am    
  24 O24           -5.8240     8.2747    13.5382 O.2     
  25 O25           -7.8283     9.7475    13.2918 O.2     
  26 O26           -4.3828     8.5632    11.2738 O.2     
  27 C27           -1.8535    11.5860    13.7363 C.3     
  28 C28            1.2780     2.1491     0.0014 C.3     
  29 C29           -4.2415     7.9837     8.6438 C.3     
  30 C30           -4.5543     7.7407     7.1659 C.3     
  31 S31           -3.0398     7.2408     6.3015 S.3     
  32 C32           -3.7082     4.3052     5.9828 C.3     
  33 C33           -3.1103     4.2624     4.5751 C.3     
  34 S34           -2.6843     5.3629     7.0427 S.3     
  35 H35            0.9446    -0.5313    -0.0101 H       
  36 H36           -1.1711    -1.7915     0.0029 H       
  37 H37           -3.3198    -0.5895     0.0302 H       
  38 H38           -1.2378     3.1327     0.0372 H       
  39 H39           -5.1512     2.0044     2.0027 H       
  40 H40           -4.7269     2.9772     4.0819 H       
  41 H41           -3.2720    13.8814    13.6147 H       
  42 H42           -5.6937    14.1445    13.2538 H       
  43 H43           -7.1164    12.1578    12.9518 H       
  44 H44           -3.6954     9.6448    13.3658 H       
  45 H45           -7.3897     9.1014    10.8164 H       
  46 H46           -6.2996     8.4614     8.8539 H       
  47 H47           -1.6523    11.5046    14.8044 H       
  48 H48           -1.5067    10.6843    13.2315 H       
  49 H49           -1.3296    12.4526    13.3329 H       
  50 H50            1.5804     2.3405    -1.0282 H       
  51 H51            1.1397     3.0969     0.5217 H       
  52 H52            2.0505     1.5677     0.5048 H       
  53 H53           -3.4952     8.7732     8.7321 H       
  54 H54           -3.8549     7.0669     9.0888 H       
  55 H55           -5.3005     6.9512     7.0776 H       
  56 H56           -4.9409     8.6575     6.7209 H       
  57 H57           -4.7198     4.7085     5.9357 H       
  58 H58           -3.7379     3.2969     6.3958 H       
  59 H59           -2.0987     3.8591     4.6222 H       
  60 H60           -3.0806     5.2707     4.1621 H       
@<TRIPOS>BOND
   1    1    2 ar
   2    1   28 1
   3    1    6 ar
   4    2    3 ar
   5    2   35 1
   6    3    4 ar
   7    3   36 1
   8    4    5 ar
   9    4   37 1
  10    5    6 ar
  11    5    7 1
  12    6   38 1
  13    7    8 am
  14    7   11 2
  15    7   12 2
  16    8    9 am
  17    8   39 1
  18    9   10 am
  19    9   13 2
  20   10   33 1
  21   10   40 1
  22   14   15 ar
  23   14   27 1
  24   14   19 ar
  25   15   16 ar
  26   15   41 1
  27   16   17 ar
  28   16   42 1
  29   17   18 ar
  30   17   43 1
  31   18   19 ar
  32   18   20 1
  33   19   44 1
  34   20   21 am
  35   20   24 2
  36   20   25 2
  37   21   22 am
  38   21   45 1
  39   22   23 am
  40   22   26 2
  41   23   29 1
  42   23   46 1
  43   27   47 1
  44   27   48 1
  45   27   49 1
  46   28   50 1
  47   28   51 1
  48   28   52 1
  49   29   30 1
  50   29   53 1
  51   29   54 1
  52   30   31 1
  53   30   55 1
  54   30   56 1
  55   31   34 1
  56   32   33 1
  57   32   34 1
  58   32   57 1
  59   32   58 1
  60   33   59 1
  61   33   60 1

#	End of record

