#	Name: ASD01140270
#	Creating user name:	WinNT
#	Creation time:	15. 06. 2019 19:00

#	Modifying user name:	WinNT
#	Modification time:	15. 06. 2019 19:00

#	Program:	/corina/corina34_cracker 3.40 0067  02.08.2006

@<TRIPOS>MOLECULE
ASD01140270
  70   76    0    0    0
SMALL
NO_CHARGES


@<TRIPOS>ATOM
   1 C1             0.0770     1.3287     0.2695 C.ar    
   2 C2             0.0892    -0.0553     0.1997 C.ar    
   3 C3             1.2832    -0.7340     0.1107 C.ar    
   4 C4             2.5019    -0.0351     0.0893 C.ar    
   5 C5             2.4787     1.3600     0.1361 C.ar    
   6 C6             1.2636     2.0308     0.2374 C.ar    
   7 C7             3.7375    -0.8198     0.0497 C.2     
   8 N8             4.8345    -0.5546    -0.6585 N.am    
   9 C9             4.9115     0.6069    -1.5513 C.3     
  10 C10            4.7281     1.8439    -0.7109 C.2     
  11 N11            3.6436     2.1265     0.0520 N.pl3   
  12 Cl12          -1.4067    -0.9359     0.2251 Cl      
  13 C13            3.8888     3.3033     0.6915 C.2     
  14 O14            3.7657    -1.8217     0.7379 O.2     
  15 C15            5.6021     2.8763    -0.5649 C.2     
  16 N16            5.0511     3.7538     0.3134 N.2     
  17 C17            6.9064     3.0169    -1.2353 C.2     
  18 N18            7.6152     4.1550    -1.0984 N.am    
  19 O19            7.3435     2.1059    -1.9124 O.2     
  20 N20            8.4645     6.6318    -1.8828 N.am    
  21 C21            9.1734     7.7698    -1.7459 C.2     
  22 C22            8.5386     8.9683    -1.1705 C.2     
  23 O23           10.3371     7.8074    -2.0974 O.2     
  24 N24            7.2824     9.0464    -0.6562 N.2     
  25 C25            9.1030    10.2003    -1.0500 C.2     
  26 N26            8.1742    11.0153    -0.4930 N.pl3   
  27 C27            7.0653    10.2639    -0.2467 C.2     
  28 C28           10.5045    10.6017    -1.4328 C.3     
  29 N29           11.1811    11.0750    -0.2207 N.am    
  30 C30           10.7295    12.1244     0.4676 C.2     
  31 C31            9.5412    12.9294     0.1753 C.ar    
  32 C32            8.3287    12.3800    -0.2431 C.ar    
  33 C33            9.6369    14.3218     0.3335 C.ar    
  34 C34            8.5441    15.1277     0.1073 C.ar    
  35 C35            7.3346    14.5701    -0.2758 C.ar    
  36 C36            7.2283    13.2077    -0.4486 C.ar    
  37 Cl37           8.6813    16.8471     0.3031 Cl      
  38 O38           11.3752    12.4483     1.4456 O.2     
  39 C39            8.9764     4.2584    -1.6428 C.3     
  40 C40            9.0391     5.4718    -2.5787 C.3     
  41 C41            5.9924    -1.4446    -0.5424 C.3     
  42 C42            7.0386     5.3168    -0.4075 C.3     
  43 C43            7.1053     6.5280    -1.3460 C.3     
  44 C44           12.3821    10.3777     0.2458 C.3     
  45 H45           -0.8617     1.8575     0.3445 H       
  46 H46            1.2835    -1.8127     0.0572 H       
  47 H47            1.2497     3.1094     0.2913 H       
  48 H48            5.8855     0.6333    -2.0400 H       
  49 H49            4.1225     0.5494    -2.3012 H       
  50 H50            3.2275     3.7848     1.3966 H       
  51 H51            6.1548    10.6193     0.2127 H       
  52 H52           11.0363     9.7422    -1.8409 H       
  53 H53           10.4705    11.4012    -2.1729 H       
  54 H54           10.5750    14.7635     0.6354 H       
  55 H55            6.4756    15.2040    -0.4392 H       
  56 H56            6.2833    12.7774    -0.7455 H       
  57 H57            9.6877     4.3884    -0.8271 H       
  58 H58            9.2171     3.3534    -2.2005 H       
  59 H59            8.4656     5.2666    -3.4826 H       
  60 H60           10.0768     5.6791    -2.8400 H       
  61 H61            5.7641    -2.2483     0.1576 H       
  62 H62            6.2242    -1.8686    -1.5195 H       
  63 H63            6.8503    -0.8790    -0.1790 H       
  64 H64            5.9998     5.1106    -0.1496 H       
  65 H65            7.6087     5.5239     0.4982 H       
  66 H66            6.8627     7.4318    -0.7870 H       
  67 H67            6.3973     6.4003    -2.1649 H       
  68 H68           13.2640    10.8295    -0.2084 H       
  69 H69           12.4506    10.4581     1.3307 H       
  70 H70           12.3253     9.3268    -0.0378 H       
@<TRIPOS>BOND
   1    1    2 ar
   2    1    6 ar
   3    1   45 1
   4    2    3 ar
   5    2   12 1
   6    3    4 ar
   7    3   46 1
   8    4    5 ar
   9    4    7 1
  10    5    6 ar
  11    5   11 1
  12    6   47 1
  13    7    8 am
  14    7   14 2
  15    8    9 1
  16    8   41 1
  17    9   10 1
  18    9   48 1
  19    9   49 1
  20   10   11 1
  21   10   15 2
  22   11   13 1
  23   13   16 2
  24   13   50 1
  25   15   16 1
  26   15   17 1
  27   17   18 am
  28   17   19 2
  29   18   39 1
  30   18   42 1
  31   20   21 am
  32   20   40 1
  33   20   43 1
  34   21   22 1
  35   21   23 2
  36   22   24 1
  37   22   25 2
  38   24   27 2
  39   25   26 1
  40   25   28 1
  41   26   27 1
  42   26   32 1
  43   27   51 1
  44   28   29 1
  45   28   52 1
  46   28   53 1
  47   29   30 am
  48   29   44 1
  49   30   31 1
  50   30   38 2
  51   31   32 ar
  52   31   33 ar
  53   32   36 ar
  54   33   34 ar
  55   33   54 1
  56   34   35 ar
  57   34   37 1
  58   35   36 ar
  59   35   55 1
  60   36   56 1
  61   39   40 1
  62   39   57 1
  63   39   58 1
  64   40   59 1
  65   40   60 1
  66   41   61 1
  67   41   62 1
  68   41   63 1
  69   42   43 1
  70   42   64 1
  71   42   65 1
  72   43   66 1
  73   43   67 1
  74   44   68 1
  75   44   69 1
  76   44   70 1

#	End of record

