#	Name: ASD01816471
#	Creating user name:	WinNT
#	Creation time:	15. 06. 2019 19:35

#	Modifying user name:	WinNT
#	Modification time:	15. 06. 2019 19:35

#	Program:	/corina/corina34_cracker 3.40 0067  02.08.2006

@<TRIPOS>MOLECULE
ASD01816471
  54   59    0    0    0
SMALL
NO_CHARGES


@<TRIPOS>ATOM
   1 C1            -0.0167     1.3813     0.0096 C.ar    
   2 C2             0.0021    -0.0041     0.0020 C.ar    
   3 C3             1.1983    -0.6909    -0.0131 C.ar    
   4 C4             2.4015     0.0059    -0.0209 C.ar    
   5 C5             2.3790     1.4106    -0.0132 C.ar    
   6 C6             1.1663     2.0917     0.0022 C.ar    
   7 N7             3.6052    -0.6771    -0.0356 N.pl3   
   8 C8             4.7970    -0.0585    -0.0432 C.2     
   9 C9             4.8999     1.3103    -0.0373 C.2     
  10 C10            3.6670     2.1302    -0.0217 C.2     
  11 C11            5.9971     2.2731    -0.0424 C.2     
  12 N12            5.4245     3.4962    -0.0311 N.am    
  13 N13            4.0322     3.3800    -0.0188 N.2     
  14 C14            6.1227     4.7019    -0.0307 C.ar    
  15 O15            7.1911     2.0231    -0.0538 O.2     
  16 C16            3.5778    -2.1419    -0.0427 C.3     
  17 C17            3.5551    -2.6370    -1.4659 C.ar    
  18 C18            4.7428    -2.8860    -2.1288 C.ar    
  19 C19            4.7252    -3.3394    -3.4333 C.ar    
  20 C20            3.5134    -3.5456    -4.0788 C.ar    
  21 C21            2.3226    -3.2951    -3.4104 C.ar    
  22 C22            2.3466    -2.8467    -2.1042 C.ar    
  23 N23            3.4923    -4.0053    -5.4030 N.pl3   
  24 C24            2.3873    -4.2462    -6.1443 C.2     
  25 C25            2.7936    -4.6752    -7.3616 C.2     
  26 C26            4.1927    -4.6976    -7.3656 C.2     
  27 N27            4.6123    -4.2906    -6.1946 N.2     
  28 C28            7.0597     4.9660    -1.0204 C.ar    
  29 C29            7.7503     6.1613    -1.0180 C.ar    
  30 C30            7.5155     7.1052    -0.0314 C.ar    
  31 C31            6.5894     6.8608     0.9597 C.ar    
  32 C32            5.8780     5.6585     0.9674 C.ar    
  33 C33            4.8859     5.3907     2.0238 C.2     
  34 O34            4.2691     4.3437     2.0269 O.2     
  35 O35            4.6626     6.3070     2.9864 O.3     
  36 H36           -0.9602     1.9068     0.0170 H       
  37 H37           -0.9289    -0.5515     0.0083 H       
  38 H38            1.2003    -1.7709    -0.0186 H       
  39 H39            1.1506     3.1715     0.0077 H       
  40 H40            5.6982    -0.6535    -0.0540 H       
  41 H41            4.4656    -2.5243     0.4609 H       
  42 H42            2.6861    -2.4911     0.4778 H       
  43 H43            5.6851    -2.7255    -1.6262 H       
  44 H44            5.6531    -3.5331    -3.9509 H       
  45 H45            1.3784    -3.4541    -3.9101 H       
  46 H46            1.4206    -2.6517    -1.5838 H       
  47 H47            1.3642    -4.1197    -5.8223 H       
  48 H48            2.1515    -4.9516    -8.1848 H       
  49 H49            4.8186    -4.9950    -8.1939 H       
  50 H50            7.2488     4.2353    -1.7929 H       
  51 H51            8.4785     6.3618    -1.7900 H       
  52 H52            8.0613     8.0371    -0.0387 H       
  53 H53            6.4105     7.5998     1.7267 H       
  54 H54            4.0026     6.0865     3.6579 H       
@<TRIPOS>BOND
   1    1    2 ar
   2    1    6 ar
   3    1   36 1
   4    2    3 ar
   5    2   37 1
   6    3    4 ar
   7    3   38 1
   8    4    5 ar
   9    4    7 1
  10    5    6 ar
  11    5   10 1
  12    6   39 1
  13    7    8 1
  14    7   16 1
  15    8    9 2
  16    8   40 1
  17    9   10 1
  18    9   11 1
  19   10   13 2
  20   11   12 am
  21   11   15 2
  22   12   13 1
  23   12   14 1
  24   14   28 ar
  25   14   32 ar
  26   16   17 1
  27   16   41 1
  28   16   42 1
  29   17   18 ar
  30   17   22 ar
  31   18   19 ar
  32   18   43 1
  33   19   20 ar
  34   19   44 1
  35   20   21 ar
  36   20   23 1
  37   21   22 ar
  38   21   45 1
  39   22   46 1
  40   23   24 1
  41   23   27 1
  42   24   25 2
  43   24   47 1
  44   25   26 1
  45   25   48 1
  46   26   27 2
  47   26   49 1
  48   28   29 ar
  49   28   50 1
  50   29   30 ar
  51   29   51 1
  52   30   31 ar
  53   30   52 1
  54   31   32 ar
  55   31   53 1
  56   32   33 1
  57   33   34 2
  58   33   35 1
  59   35   54 1

#	End of record

