#	Name: ASD01810653
#	Creating user name:	WinNT
#	Creation time:	15. 06. 2019 19:25

#	Modifying user name:	WinNT
#	Modification time:	15. 06. 2019 19:25

#	Program:	/corina/corina34_cracker 3.40 0067  02.08.2006

@<TRIPOS>MOLECULE
ASD01810653
  70   74    0    0    0
SMALL
NO_CHARGES


@<TRIPOS>ATOM
   1 C1            -0.1652     1.9468     0.4802 C.ar    
   2 C2             0.0728     0.5712     0.4931 C.ar    
   3 C3            -0.9785    -0.3158     0.3686 C.ar    
   4 C4            -2.2704     0.1504     0.2302 C.ar    
   5 C5            -2.5224     1.5243     0.2157 C.ar    
   6 C6            -1.4670     2.4242     0.3466 C.ar    
   7 C7            -3.9067     2.0222     0.0668 C.2     
   8 C8             1.4800     0.0530     0.6428 C.3     
   9 C9            -3.4112    -0.8248     0.0939 C.3     
  10 N10           -4.4238     2.8607     0.9866 N.am    
  11 O11           -4.5783     1.6753    -0.8850 O.2     
  12 C12           -5.8241     3.2968     0.8987 C.3     
  13 C13           -3.5997     3.3512     2.0997 C.3     
  14 C14           -4.3228     3.0536     3.4170 C.3     
  15 C15           -5.7312     3.6501     3.3673 C.3     
  16 C16           -6.5176     2.9999     2.2320 C.3     
  17 C17           -6.4336     3.3888     4.6747 C.ar    
  18 C18           -6.8749     4.4510     5.4438 C.ar    
  19 C19           -7.5190     4.2189     6.6414 C.ar    
  20 C20           -7.7252     2.9084     7.0769 C.ar    
  21 C21           -7.2773     1.8412     6.2958 C.ar    
  22 C22           -6.6393     2.0876     5.0978 C.ar    
  23 C23           -8.3926     2.6600     8.3193 C.1     
  24 C24            0.9621     2.8953     0.6142 C.2     
  25 N25            2.2158     2.5727     0.8529 N.2     
  26 C26            2.9524     3.6835     0.9095 C.2     
  27 C27            2.1365     4.7410     0.6952 C.2     
  28 N28            0.8799     4.2552     0.5054 N.pl3   
  29 C29            4.4348     3.7922     1.1693 C.3     
  30 C30            4.9190     5.1712     0.7052 C.3     
  31 N31            3.9819     6.1987     1.1831 N.am    
  32 C32            2.5996     6.1766     0.6708 C.3     
  33 C33            4.3765     7.1367     2.0669 C.2     
  34 C34            3.4001     8.1807     2.5439 C.3     
  35 O35            5.5174     7.1404     2.4782 O.2     
  36 C36            4.0969     9.1163     3.5339 C.3     
  37 N37           -8.9221     2.4630     9.3049 N.1     
  38 H38           -0.7889    -1.3790     0.3792 H       
  39 H39           -1.6564     3.4874     0.3364 H       
  40 H40            1.7434     0.0170     1.6999 H       
  41 H41            1.5455    -0.9485     0.2176 H       
  42 H42            2.1688     0.7158     0.1191 H       
  43 H43           -3.7431    -1.1364     1.0843 H       
  44 H44           -4.2373    -0.3464    -0.4322 H       
  45 H45           -3.0784    -1.6969    -0.4688 H       
  46 H46           -5.8614     4.3675     0.6978 H       
  47 H47           -6.3260     2.7549     0.0971 H       
  48 H48           -2.6344     2.8451     2.0903 H       
  49 H49           -3.4519     4.4264     1.9988 H       
  50 H50           -4.3893     1.9750     3.5599 H       
  51 H51           -3.7688     3.4972     4.2443 H       
  52 H52           -5.6646     4.7251     3.1997 H       
  53 H53           -7.5286     3.4069     2.2100 H       
  54 H54           -6.5621     1.9225     2.3907 H       
  55 H55           -6.7144     5.4641     5.1058 H       
  56 H56           -7.8626     5.0489     7.2408 H       
  57 H57           -7.4332     0.8251     6.6271 H       
  58 H58           -6.2923     1.2631     4.4926 H       
  59 H59            0.0790     4.7744     0.3328 H       
  60 H60            4.6281     3.6771     2.2358 H       
  61 H61            4.9607     3.0148     0.6149 H       
  62 H62            5.9110     5.3651     1.1131 H       
  63 H63            4.9611     5.1950    -0.3837 H       
  64 H64            2.5763     6.5567    -0.3505 H       
  65 H65            1.9577     6.7843     1.3086 H       
  66 H66            3.0392     8.7569     1.6919 H       
  67 H67            2.5582     7.6932     3.0356 H       
  68 H68            3.3907     9.8714     3.8789 H       
  69 H69            4.4578     8.5401     4.3859 H       
  70 H70            4.9387     9.6038     3.0422 H       
@<TRIPOS>BOND
   1    1    2 ar
   2    1   24 1
   3    1    6 ar
   4    2    3 ar
   5    2    8 1
   6    3    4 ar
   7    3   38 1
   8    4    5 ar
   9    4    9 1
  10    5    6 ar
  11    5    7 1
  12    6   39 1
  13    7   10 am
  14    7   11 2
  15    8   40 1
  16    8   41 1
  17    8   42 1
  18    9   43 1
  19    9   44 1
  20    9   45 1
  21   10   12 1
  22   10   13 1
  23   12   16 1
  24   12   46 1
  25   12   47 1
  26   13   14 1
  27   13   48 1
  28   13   49 1
  29   14   15 1
  30   14   50 1
  31   14   51 1
  32   15   16 1
  33   15   17 1
  34   15   52 1
  35   16   53 1
  36   16   54 1
  37   17   18 ar
  38   17   22 ar
  39   18   19 ar
  40   18   55 1
  41   19   20 ar
  42   19   56 1
  43   20   21 ar
  44   20   23 1
  45   21   22 ar
  46   21   57 1
  47   22   58 1
  48   23   37 3
  49   24   25 2
  50   24   28 1
  51   25   26 1
  52   26   27 2
  53   26   29 1
  54   27   28 1
  55   27   32 1
  56   28   59 1
  57   29   30 1
  58   29   60 1
  59   29   61 1
  60   30   31 1
  61   30   62 1
  62   30   63 1
  63   31   32 1
  64   31   33 am
  65   32   64 1
  66   32   65 1
  67   33   34 1
  68   33   35 2
  69   34   36 1
  70   34   66 1
  71   34   67 1
  72   36   68 1
  73   36   69 1
  74   36   70 1

#	End of record

