#	Name: ASD03092084
#	Creating user name:	WinNT
#	Creation time:	15. 06. 2019 20:31

#	Modifying user name:	WinNT
#	Modification time:	15. 06. 2019 20:31

#	Program:	/corina/corina34_cracker 3.40 0067  02.08.2006

@<TRIPOS>MOLECULE
ASD03092084
  40   42    0    0    0
SMALL
NO_CHARGES


@<TRIPOS>ATOM
   1 N1             0.3309     0.9968    -0.2182 N.pl3   
   2 C2             0.0511    -0.3089     0.0572 C.2     
   3 C3            -1.3077    -0.4467     0.0490 C.2     
   4 C4            -1.8634     0.8063    -0.2384 C.2     
   5 N5            -0.8855     1.6691    -0.3919 N.2     
   6 N6            -3.2305     1.0920    -0.3387 N.pl3   
   7 C7            -3.6573     2.4101    -0.5176 C.ar    
   8 C8            -4.8427     2.6719    -1.1926 C.ar    
   9 C9            -5.2636     3.9778    -1.3680 C.ar    
  10 C10           -4.5039     5.0239    -0.8718 C.ar    
  11 C11           -2.8997     3.4607    -0.0156 C.ar    
  12 C12            1.0382    -1.3798     0.3167 C.ar    
  13 C13            1.6664     1.5921    -0.3100 C.3     
  14 C14            0.7046    -2.7260     0.1288 C.ar    
  15 C15            1.6550    -3.6926     0.3825 C.ar    
  16 N16            2.8635    -3.3628     0.7972 N.ar    
  17 C17            3.2199    -2.1056     0.9874 C.ar    
  18 C18            2.3325    -1.0744     0.7513 C.ar    
  19 Cl19           4.8271    -1.7442     1.5349 Cl      
  20 C20           -3.3217     4.7653    -0.1985 C.ar    
  21 F21           -6.4165     4.2330    -2.0245 F       
  22 O22            1.6811     2.5706    -1.3513 O.3     
  23 C23            2.0203     2.2583     1.0211 C.3     
  24 C24            3.4609     2.7708     0.9677 C.3     
  25 F25           -2.5823     5.7878     0.2842 F       
  26 H26           -1.8558    -1.3592     0.2313 H       
  27 H27           -3.8812     0.3747    -0.2841 H       
  28 H28           -5.4352     1.8564    -1.5804 H       
  29 H29           -4.8337     6.0429    -1.0103 H       
  30 H30           -1.9798     3.2593     0.5131 H       
  31 H31            2.3965     0.8139    -0.5323 H       
  32 H32           -0.2826    -3.0038    -0.2097 H       
  33 H33            1.4065    -4.7340     0.2402 H       
  34 H34            2.6301    -0.0482     0.9089 H       
  35 H35            1.0543     3.2950    -1.2192 H       
  36 H36            1.3438     3.0939     1.2003 H       
  37 H37            1.9226     1.5322     1.8281 H       
  38 H38            3.7131     3.2455     1.9160 H       
  39 H39            4.1374     1.9352     0.7884 H       
  40 H40            3.5586     3.4969     0.1607 H       
@<TRIPOS>BOND
   1    1    2 1
   2    1   13 1
   3    1    5 1
   4    2    3 2
   5    2   12 1
   6    3    4 1
   7    3   26 1
   8    4    5 2
   9    4    6 1
  10    6    7 1
  11    6   27 1
  12    7    8 ar
  13    7   11 ar
  14    8    9 ar
  15    8   28 1
  16    9   10 ar
  17    9   21 1
  18   10   20 ar
  19   10   29 1
  20   11   20 ar
  21   11   30 1
  22   12   14 ar
  23   12   18 ar
  24   13   22 1
  25   13   23 1
  26   13   31 1
  27   14   15 ar
  28   14   32 1
  29   15   16 ar
  30   15   33 1
  31   16   17 ar
  32   17   18 ar
  33   17   19 1
  34   18   34 1
  35   20   25 1
  36   22   35 1
  37   23   24 1
  38   23   36 1
  39   23   37 1
  40   24   38 1
  41   24   39 1
  42   24   40 1

#	End of record

