#	Name: ASD03330849
#	Creating user name:	WinNT
#	Creation time:	15. 06. 2019 20:38

#	Modifying user name:	WinNT
#	Modification time:	15. 06. 2019 20:38

#	Program:	/corina/corina34_cracker 3.40 0067  02.08.2006

@<TRIPOS>MOLECULE
ASD03330849
  62   64    0    0    0
SMALL
NO_CHARGES


@<TRIPOS>ATOM
   1 N1             0.0326     0.9339    -0.1528 N.pl3   
   2 C2            -0.1125    -0.3900     0.1191 C.2     
   3 C3             0.9899    -1.3249     0.5433 C.3     
   4 N4             1.7729    -0.6919     1.6161 N.3     
   5 C5             2.8665     0.1138     1.0697 C.3     
   6 C6             2.4650     0.7503    -0.2579 C.3     
   7 C7             1.2799     1.6954    -0.0422 C.3     
   8 C8            -1.1892     1.4097    -0.5301 C.2     
   9 N9            -2.0566     0.4266    -0.4763 N.2     
  10 C10           -1.4246    -0.6981    -0.0762 C.2     
  11 C11           -2.0438    -2.0218     0.1140 C.2     
  12 O12           -1.3660    -2.9635     0.4786 O.2     
  13 N13           -3.3612    -2.1888    -0.1162 N.am    
  14 C14           -2.2443     3.0638    -2.0744 C.ar    
  15 C15           -1.4865     2.8021    -0.9327 C.ar    
  16 C16           -1.0127     3.8782    -0.1745 C.ar    
  17 C17           -1.3190     5.1613    -0.5937 C.ar    
  18 C18           -2.0761     5.3371    -1.7375 C.ar    
  19 N19           -2.5091     4.3029    -2.4330 N.ar    
  20 C20           -2.7587     1.9187    -2.9082 C.3     
  21 C21            2.2799    -1.6962     2.5606 C.3     
  22 C22           -5.2115    -3.6096    -0.7849 C.2     
  23 C23           -3.9768    -3.5047     0.0728 C.3     
  24 C24           -4.3607    -3.6816     1.5433 C.3     
  25 C25           -5.4034    -2.6302     1.9282 C.3     
  26 O26           -5.8263    -2.6090    -1.0876 O.2     
  27 N27           -5.6325    -4.8153    -1.2154 N.am    
  28 C28           -6.8908    -4.9300    -1.9569 C.3     
  29 C29           -4.9451    -5.0800     1.7531 C.3     
  30 C30           -3.1177    -3.5117     2.4190 C.3     
  31 H31            0.5574    -2.2562     0.9088 H       
  32 H32            1.6389    -1.5326    -0.3075 H       
  33 H33            3.1225     0.8993     1.7806 H       
  34 H34            3.7369    -0.5234     0.9126 H       
  35 H35            3.3081     1.3121    -0.6600 H       
  36 H36            2.1818    -0.0309    -0.9633 H       
  37 H37            1.2966     2.4794    -0.7992 H       
  38 H38            1.3468     2.1433     0.9493 H       
  39 H39           -3.9018    -1.4377    -0.4070 H       
  40 H40           -0.4235     3.7120     0.7152 H       
  41 H41           -0.9706     6.0163    -0.0332 H       
  42 H42           -2.3166     6.3371    -2.0670 H       
  43 H43           -3.7413     1.6176    -2.5451 H       
  44 H44           -2.8366     2.2334    -3.9489 H       
  45 H45           -2.0701     1.0770    -2.8337 H       
  46 H46            2.8619    -2.4425     2.0198 H       
  47 H47            2.9127    -1.2100     3.3031 H       
  48 H48            1.4412    -2.1815     3.0599 H       
  49 H49           -3.2682    -4.2818    -0.2137 H       
  50 H50           -6.2890    -2.7513     1.3043 H       
  51 H51           -5.6770    -2.7563     2.9758 H       
  52 H52           -4.9872    -1.6340     1.7787 H       
  53 H53           -5.1023    -5.6072    -1.0344 H       
  54 H54           -7.7119    -4.5704    -1.3368 H       
  55 H55           -6.8327    -4.3313    -2.8659 H       
  56 H56           -7.0639    -5.9736    -2.2196 H       
  57 H57           -4.1818    -5.8284     1.5401 H       
  58 H58           -5.2774    -5.1837     2.7860 H       
  59 H59           -5.7923    -5.2241     1.0826 H       
  60 H60           -2.7014    -2.5154     2.2695 H       
  61 H61           -3.3912    -3.6377     3.4665 H       
  62 H62           -2.3749    -4.2607     2.1447 H       
@<TRIPOS>BOND
   1    1    2 1
   2    1    7 1
   3    1    8 1
   4    2    3 1
   5    2   10 2
   6    3    4 1
   7    3   31 1
   8    3   32 1
   9    4    5 1
  10    4   21 1
  11    5    6 1
  12    5   33 1
  13    5   34 1
  14    6    7 1
  15    6   35 1
  16    6   36 1
  17    7   37 1
  18    7   38 1
  19    8    9 2
  20    8   15 1
  21    9   10 1
  22   10   11 1
  23   11   12 2
  24   11   13 am
  25   13   23 1
  26   13   39 1
  27   14   15 ar
  28   14   19 ar
  29   14   20 1
  30   15   16 ar
  31   16   17 ar
  32   16   40 1
  33   17   18 ar
  34   17   41 1
  35   18   19 ar
  36   18   42 1
  37   20   43 1
  38   20   44 1
  39   20   45 1
  40   21   46 1
  41   21   47 1
  42   21   48 1
  43   22   26 2
  44   22   27 am
  45   22   23 1
  46   23   24 1
  47   23   49 1
  48   24   25 1
  49   24   29 1
  50   24   30 1
  51   25   50 1
  52   25   51 1
  53   25   52 1
  54   27   28 1
  55   27   53 1
  56   28   54 1
  57   28   55 1
  58   28   56 1
  59   29   57 1
  60   29   58 1
  61   29   59 1
  62   30   60 1
  63   30   61 1
  64   30   62 1

#	End of record

