#	Name: ASD01940316
#	Creating user name:	WinNT
#	Creation time:	15. 06. 2019 20:12

#	Modifying user name:	WinNT
#	Modification time:	15. 06. 2019 20:12

#	Program:	/corina/corina34_cracker 3.40 0067  02.08.2006

@<TRIPOS>MOLECULE
ASD01940316
  17   17    0    0    0
SMALL
NO_CHARGES


@<TRIPOS>ATOM
   1 C1            -0.0167     1.3820     0.0096 C.ar    
   2 C2             0.0021    -0.0041     0.0020 C.ar    
   3 C3             1.2125    -0.6787    -0.0132 C.ar    
   4 C4             2.4003     0.0326    -0.0207 C.ar    
   5 C5             2.3794     1.4145    -0.0131 C.ar    
   6 C6             1.1729     2.0893     0.0021 C.ar    
   7 N7             3.6934    -0.6875    -0.0364 N.pl3   
   8 O8             4.2156    -0.9784    -1.0976 O.2     
   9 O9             4.2353    -0.9890     1.0119 O.2     
  10 C10            3.6735     2.1867    -0.0208 C.3     
  11 F11            1.2334    -2.0295    -0.0202 F       
  12 F12           -1.1581    -0.6963     0.0098 F       
  13 F13           -1.1955     2.0420     0.0188 F       
  14 H14            1.1587     3.1692     0.0077 H       
  15 H15            3.9761     2.3783    -1.0502 H       
  16 H16            3.5342     3.1343     0.4995 H       
  17 H17            4.4462     1.6058     0.4829 H       
@<TRIPOS>BOND
   1    1    2 ar
   2    1    6 ar
   3    1   13 1
   4    2    3 ar
   5    2   12 1
   6    3    4 ar
   7    3   11 1
   8    4    5 ar
   9    4    7 1
  10    5    6 ar
  11    5   10 1
  12    6   14 1
  13    7    8 2
  14    7    9 2
  15   10   15 1
  16   10   16 1
  17   10   17 1

#	End of record

