#	Name: ASD00431164
#	Creating user name:	WinNT
#	Creation time:	15. 06. 2019 18:35

#	Modifying user name:	WinNT
#	Modification time:	15. 06. 2019 18:35

#	Program:	/corina/corina34_cracker 3.40 0067  02.08.2006

@<TRIPOS>MOLECULE
ASD00431164
  48   50    0    0    0
SMALL
NO_CHARGES


@<TRIPOS>ATOM
   1 C1             0.2512     1.9134    -0.0541 C.2     
   2 C2             0.2658     0.4112    -0.1741 C.3     
   3 O3             1.2947     2.5245     0.0385 O.2     
   4 N4            -0.9213     2.5781    -0.0552 N.am    
   5 C5            -0.9355     4.0384     0.0615 C.3     
   6 C6            -0.7484     4.6624    -1.3229 C.3     
   7 O7            -3.4642     3.9818     0.3497 O.3     
   8 N8            -4.3424     4.5372     0.9680 N.2     
   9 C9            -3.8575     5.4756     1.7483 C.2     
  10 C10           -2.4461     5.4640     1.5482 C.2     
  11 C11           -2.2544     4.4833     0.6389 C.2     
  12 S12           -3.9425     7.6163     3.6859 S.3     
  13 C13           -5.5072     8.0107     4.2500 C.2     
  14 N14           -6.3949     7.2509     3.6855 N.2     
  15 C15           -5.9587     6.3578     2.8240 C.2     
  16 C16           -4.6193     6.3628     2.6493 C.2     
  17 O17           -5.7814     8.9783     5.1568 O.3     
  18 C18           -7.0861     9.2438     5.4323 C.ar    
  19 C19           -7.8645     8.2969     6.0819 C.ar    
  20 C20           -9.1897     8.5669     6.3621 C.ar    
  21 C21           -9.7423     9.7847     5.9940 C.ar    
  22 C22           -8.9643    10.7314     5.3440 C.ar    
  23 C23           -7.6375    10.4638     5.0688 C.ar    
  24 O24          -11.0470    10.0504     6.2699 O.3     
  25 C25          -11.5288    11.3532     5.9344 C.3     
  26 C26          -13.0494    11.3083     5.7712 C.3     
  27 C27          -11.1644    12.3347     7.0501 C.3     
  28 Cl28          -7.0143     5.2654     1.9836 Cl      
  29 H29            1.2961     0.0556    -0.1597 H       
  30 H30           -0.2809    -0.0254     0.6617 H       
  31 H31           -0.2071     0.1170    -1.1110 H       
  32 H32           -1.7557     2.0896    -0.1332 H       
  33 H33           -0.1255     4.3584     0.7168 H       
  34 H34            0.2056     4.3406    -1.7406 H       
  35 H35           -1.5584     4.3424    -1.9782 H       
  36 H36           -0.7590     5.7489    -1.2361 H       
  37 H37           -1.7027     6.0933     2.0148 H       
  38 H38           -7.4344     7.3486     6.3683 H       
  39 H39           -9.7958     7.8296     6.8676 H       
  40 H40           -9.3947    11.6794     5.0571 H       
  41 H41           -7.0305    11.2026     4.5667 H       
  42 H42          -11.0726    11.6798     4.9999 H       
  43 H43          -13.5056    10.9817     6.7057 H       
  44 H44          -13.4169    12.3021     5.5153 H       
  45 H45          -13.3090    10.6091     4.9763 H       
  46 H46          -11.6206    12.0081     7.9846 H       
  47 H47          -10.0811    12.3667     7.1664 H       
  48 H48          -11.5319    13.3284     6.7943 H       
@<TRIPOS>BOND
   1    1    2 1
   2    1    3 2
   3    1    4 am
   4    2   29 1
   5    2   30 1
   6    2   31 1
   7    4    5 1
   8    4   32 1
   9    5    6 1
  10    5   11 1
  11    5   33 1
  12    6   34 1
  13    6   35 1
  14    6   36 1
  15    7    8 1
  16    7   11 1
  17    8    9 2
  18    9   10 1
  19    9   16 1
  20   10   11 2
  21   10   37 1
  22   12   13 1
  23   12   16 1
  24   13   14 2
  25   13   17 1
  26   14   15 1
  27   15   16 2
  28   15   28 1
  29   17   18 1
  30   18   19 ar
  31   18   23 ar
  32   19   20 ar
  33   19   38 1
  34   20   21 ar
  35   20   39 1
  36   21   22 ar
  37   21   24 1
  38   22   23 ar
  39   22   40 1
  40   23   41 1
  41   24   25 1
  42   25   26 1
  43   25   27 1
  44   25   42 1
  45   26   43 1
  46   26   44 1
  47   26   45 1
  48   27   46 1
  49   27   47 1
  50   27   48 1

#	End of record

