#	Name: ASD01180058
#	Creating user name:	WinNT
#	Creation time:	15. 06. 2019 19:06

#	Modifying user name:	WinNT
#	Modification time:	15. 06. 2019 19:06

#	Program:	/corina/corina34_cracker 3.40 0067  02.08.2006

@<TRIPOS>MOLECULE
ASD01180058
  62   64    0    0    0
SMALL
NO_CHARGES


@<TRIPOS>ATOM
   1 C1             0.4028     1.3085    -0.6357 C.2     
   2 C2             0.3556    -0.1637    -0.5233 C.ar    
   3 C3             1.5388    -0.9051    -0.5205 C.ar    
   4 C4             1.4876    -2.2795    -0.4147 C.ar    
   5 C5             0.2672    -2.9236    -0.3120 C.ar    
   6 C6            -0.9091    -2.1950    -0.3146 C.ar    
   7 C7            -0.8721    -0.8196    -0.4135 C.ar    
   8 O8             1.4726     1.8768    -0.7260 O.2     
   9 O9            -0.7408     2.0204    -0.6438 O.3     
  10 C10            0.2191    -4.4254    -0.1972 C.3     
  11 C11            0.0158    -4.8187     1.2673 C.3     
  12 C12            1.2466    -4.4120     2.0802 C.3     
  13 C13            0.9901    -4.6829     3.5640 C.3     
  14 N14           -0.8924    -4.9412    -1.0002 N.pl3   
  15 N15            0.2026    -6.9863    -1.2449 N.ar    
  16 C16           -0.8233    -6.2157    -1.5423 C.ar    
  17 C17           -1.8477    -6.6541    -2.3941 C.ar    
  18 C18           -1.7936    -7.9036    -2.9336 C.ar    
  19 C19           -0.6925    -8.7236    -2.6112 C.ar    
  20 C20           -0.5735   -10.0207    -3.1326 C.ar    
  21 C21            0.5047   -10.7843    -2.8001 C.ar    
  22 C22            1.4912   -10.2942    -1.9483 C.ar    
  23 C23            1.4068    -9.0401    -1.4246 C.ar    
  24 C24            0.3098    -8.2229    -1.7449 C.ar    
  25 C25           -3.0066    -5.7445    -2.7114 C.3     
  26 C26            2.4564    -5.2249     1.6151 C.3     
  27 C27           -0.6186     3.4628    -0.7570 C.3     
  28 C28            0.0929     3.8133    -2.0653 C.3     
  29 C29           -2.0120     4.0949    -0.7490 C.3     
  30 C30            0.1919     4.0003     0.4242 C.3     
  31 H31            2.4920    -0.4036    -0.6013 H       
  32 H32            2.4020    -2.8542    -0.4123 H       
  33 H33           -1.8583    -2.7041    -0.2348 H       
  34 H34           -1.7908    -0.2518    -0.4106 H       
  35 H35            1.1561    -4.8477    -0.5601 H       
  36 H36           -0.8641    -4.3103     1.6613 H       
  37 H37           -0.1258    -5.8972     1.3376 H       
  38 H38            1.4442    -3.3501     1.9336 H       
  39 H39            0.7925    -5.7447     3.7107 H       
  40 H40            1.8668    -4.3931     4.1431 H       
  41 H41            0.1281    -4.1037     3.8954 H       
  42 H42           -1.6767    -4.3912    -1.1526 H       
  43 H43           -2.5739    -8.2574    -3.5911 H       
  44 H44           -1.3327   -10.4118    -3.7937 H       
  45 H45            0.5953   -11.7826    -3.2021 H       
  46 H46            2.3363   -10.9187    -1.6987 H       
  47 H47            2.1803    -8.6750    -0.7650 H       
  48 H48           -2.7726    -5.1533    -3.5968 H       
  49 H49           -3.8977    -6.3434    -2.8995 H       
  50 H50           -3.1877    -5.0788    -1.8675 H       
  51 H51            2.2233    -6.2881     1.6717 H       
  52 H52            2.6980    -4.9602     0.5857 H       
  53 H53            3.3099    -5.0054     2.2566 H       
  54 H54           -0.4845     3.4304    -2.9068 H       
  55 H55            0.1847     4.8961    -2.1503 H       
  56 H56            1.0856     3.3630    -2.0710 H       
  57 H57           -2.5189     3.8452     0.1831 H       
  58 H58           -1.9202     5.1777    -0.8340 H       
  59 H59           -2.5894     3.7120    -1.5905 H       
  60 H60            1.1845     3.5500     0.4185 H       
  61 H61            0.2836     5.0831     0.3392 H       
  62 H62           -0.3150     3.7506     1.3563 H       
@<TRIPOS>BOND
   1    1    2 1
   2    1    8 2
   3    1    9 1
   4    2    3 ar
   5    2    7 ar
   6    3    4 ar
   7    3   31 1
   8    4    5 ar
   9    4   32 1
  10    5    6 ar
  11    5   10 1
  12    6    7 ar
  13    6   33 1
  14    7   34 1
  15    9   27 1
  16   10   11 1
  17   10   14 1
  18   10   35 1
  19   11   12 1
  20   11   36 1
  21   11   37 1
  22   12   13 1
  23   12   26 1
  24   12   38 1
  25   13   39 1
  26   13   40 1
  27   13   41 1
  28   14   16 1
  29   14   42 1
  30   15   16 ar
  31   15   24 ar
  32   16   17 ar
  33   17   18 ar
  34   17   25 1
  35   18   19 ar
  36   18   43 1
  37   19   20 ar
  38   19   24 ar
  39   20   21 ar
  40   20   44 1
  41   21   22 ar
  42   21   45 1
  43   22   23 ar
  44   22   46 1
  45   23   24 ar
  46   23   47 1
  47   25   48 1
  48   25   49 1
  49   25   50 1
  50   26   51 1
  51   26   52 1
  52   26   53 1
  53   27   28 1
  54   27   30 1
  55   27   29 1
  56   28   54 1
  57   28   55 1
  58   28   56 1
  59   29   57 1
  60   29   58 1
  61   29   59 1
  62   30   60 1
  63   30   61 1
  64   30   62 1

#	End of record

