#	Name: ASD03430187
#	Creating user name:	WinNT
#	Creation time:	15. 06. 2019 20:40

#	Modifying user name:	WinNT
#	Modification time:	15. 06. 2019 20:40

#	Program:	/corina/corina34_cracker 3.40 0067  02.08.2006

@<TRIPOS>MOLECULE
ASD03430187
  61   67    0    0    0
SMALL
NO_CHARGES


@<TRIPOS>ATOM
   1 C1            -0.0166     1.3734     0.0096 C.ar    
   2 C2             0.0021    -0.0041     0.0020 C.ar    
   3 C3             1.2047    -0.6792    -0.0032 C.ar    
   4 C4             2.4071     0.0229     0.0082 C.ar    
   5 C5             2.3795     1.4121     0.0050 C.ar    
   6 C6             1.1702     2.0967     0.0021 C.ar    
   7 O7             3.4737    -0.8263     0.0364 O.3     
   8 C8             1.5610    -2.1407    -0.0313 C.3     
   9 C9             3.0518    -2.1329    -0.3990 C.3     
  10 C10            0.4415    -3.8680     1.0077 C.ar    
  11 C11            1.3128    -2.8173     1.2838 C.ar    
  12 C12            0.7475    -2.9072    -1.0344 C.2     
  13 N13            0.1319    -3.8945    -0.3543 N.am    
  14 O14            0.6609    -2.6816    -2.2229 O.2     
  15 C15            1.7539    -2.5933     2.5690 C.ar    
  16 C16            1.3342    -3.4155     3.5996 C.ar    
  17 C17            0.4709    -4.4635     3.3363 C.ar    
  18 C18            0.0258    -4.6918     2.0510 C.ar    
  19 C19           -0.7588    -4.8806    -0.9713 C.3     
  20 C20           -1.1508     2.3790     0.0370 C.3     
  21 C21           -0.4153     3.6813     0.4327 C.3     
  22 O22            0.9282     3.4370    -0.0165 O.3     
  23 C23           -2.1741    -4.3636    -0.9472 C.ar    
  24 C24           -2.6507    -3.6114    -2.0062 C.ar    
  25 C25           -3.9452    -3.1348    -1.9902 C.ar    
  26 C26           -4.7747    -3.4132    -0.9027 C.ar    
  27 C27           -4.2878    -4.1729     0.1621 C.ar    
  28 C28           -2.9930    -4.6479     0.1312 C.ar    
  29 C29           -6.1630    -2.9052    -0.8787 C.2     
  30 N30           -6.9614    -3.1758     0.1729 N.am    
  31 O31           -6.5842    -2.2435    -1.8072 O.2     
  32 C32           -8.3370    -2.6724     0.1967 C.3     
  33 C33           -9.0104    -3.1110     1.4715 C.2     
  34 S34           -9.9133    -4.6062     1.6788 S.3     
  35 C35          -10.2524    -4.2038     3.3570 C.2     
  36 C36           -9.6976    -3.0282     3.6561 C.2     
  37 C37           -9.0080    -2.4275     2.6170 C.2     
  38 H38           -0.9262    -0.5560     0.0005 H       
  39 H39            3.3071     1.9654     0.0053 H       
  40 H40            3.1857    -2.2442    -1.4750 H       
  41 H41            3.5879    -2.9129     0.1416 H       
  42 H42            2.4281    -1.7745     2.7728 H       
  43 H43            1.6803    -3.2396     4.6074 H       
  44 H44            0.1443    -5.1061     4.1405 H       
  45 H45           -0.6483    -5.5120     1.8529 H       
  46 H46           -0.4520    -5.0517    -2.0032 H       
  47 H47           -0.7045    -5.8169    -0.4160 H       
  48 H48           -1.6102     2.4748    -0.9468 H       
  49 H49           -1.8936     2.1079     0.7873 H       
  50 H50           -0.8451     4.5397    -0.0837 H       
  51 H51           -0.4410     3.8264     1.5127 H       
  52 H52           -2.0078    -3.3967    -2.8470 H       
  53 H53           -4.3159    -2.5472    -2.8171 H       
  54 H54           -4.9246    -4.3919     1.0065 H       
  55 H55           -2.6149    -5.2359     0.9545 H       
  56 H56           -6.6253    -3.7038     0.9139 H       
  57 H57           -8.3264    -1.5835     0.1475 H       
  58 H58           -8.8841    -3.0694    -0.6584 H       
  59 H59          -10.8230    -4.8149     4.0408 H       
  60 H60           -9.7772    -2.5808     4.6358 H       
  61 H61           -8.5115    -1.4743     2.7236 H       
@<TRIPOS>BOND
   1    1    2 ar
   2    1    6 ar
   3    1   20 1
   4    2    3 ar
   5    2   38 1
   6    3    4 ar
   7    3    8 1
   8    4    5 ar
   9    4    7 1
  10    5    6 ar
  11    5   39 1
  12    6   22 1
  13    7    9 1
  14    8    9 1
  15    8   11 1
  16    8   12 1
  17    9   40 1
  18    9   41 1
  19   10   11 ar
  20   10   13 1
  21   10   18 ar
  22   11   15 ar
  23   12   13 am
  24   12   14 2
  25   13   19 1
  26   15   16 ar
  27   15   42 1
  28   16   17 ar
  29   16   43 1
  30   17   18 ar
  31   17   44 1
  32   18   45 1
  33   19   23 1
  34   19   46 1
  35   19   47 1
  36   20   21 1
  37   20   48 1
  38   20   49 1
  39   21   22 1
  40   21   50 1
  41   21   51 1
  42   23   24 ar
  43   23   28 ar
  44   24   25 ar
  45   24   52 1
  46   25   26 ar
  47   25   53 1
  48   26   27 ar
  49   26   29 1
  50   27   28 ar
  51   27   54 1
  52   28   55 1
  53   29   30 am
  54   29   31 2
  55   30   32 1
  56   30   56 1
  57   32   33 1
  58   32   57 1
  59   32   58 1
  60   33   34 1
  61   33   37 2
  62   34   35 1
  63   35   36 2
  64   35   59 1
  65   36   37 1
  66   36   60 1
  67   37   61 1

#	End of record

