#	Name: ASD01816620
#	Creating user name:	WinNT
#	Creation time:	15. 06. 2019 19:35

#	Modifying user name:	WinNT
#	Modification time:	15. 06. 2019 19:35

#	Program:	/corina/corina34_cracker 3.40 0067  02.08.2006

@<TRIPOS>MOLECULE
ASD01816620
  54   58    0    0    0
SMALL
NO_CHARGES


@<TRIPOS>ATOM
   1 C1            -0.5546     0.7237     0.2440 C.ar    
   2 C2            -0.2944    -0.6371     0.2296 C.ar    
   3 C3             1.0002    -1.1044     0.1355 C.ar    
   4 C4             2.0600    -0.2081     0.0543 C.ar    
   5 C5             1.7928     1.1711     0.0691 C.ar    
   6 C6             0.4831     1.6298     0.1640 C.ar    
   7 N7             3.3613    -0.6704    -0.0394 N.pl3   
   8 C8             4.4236     0.1469    -0.1204 C.2     
   9 C9             4.2858     1.5127    -0.1156 C.2     
  10 C10            2.9320     2.1046    -0.0181 C.2     
  11 C11            5.1951     2.6522    -0.1871 C.2     
  12 N12            4.4193     3.7565    -0.1346 N.am    
  13 N13            3.0725     3.3989    -0.0338 N.2     
  14 O14            6.4115     2.6147    -0.2759 O.2     
  15 C15            4.8967     5.0717    -0.1746 C.ar    
  16 C16            4.5597     5.9655     0.8340 C.ar    
  17 C17            5.7129     5.4843    -1.2197 C.ar    
  18 C18            6.1826     6.7827    -1.2560 C.ar    
  19 C19            5.8414     7.6712    -0.2530 C.ar    
  20 C20            5.0326     7.2621     0.7918 C.ar    
  21 C21            3.5901    -2.1174    -0.0501 C.3     
  22 C22            3.5644    -2.6195    -1.4708 C.ar    
  23 C23            4.7331    -2.6621    -2.2087 C.ar    
  24 C24            4.7129    -3.1217    -3.5109 C.ar    
  25 C25            3.5173    -3.5418    -4.0790 C.ar    
  26 C26            2.3455    -3.4982    -3.3350 C.ar    
  27 C27            2.3732    -3.0420    -2.0317 C.ar    
  28 N28            3.4934    -4.0076    -5.3982 N.am    
  29 C29            4.5341    -4.7140    -5.8824 C.2     
  30 O30            5.5267    -4.8738    -5.2040 O.2     
  31 C31            4.4644    -5.3052    -7.2668 C.3     
  32 C32            3.6785     5.5207     1.9728 C.3     
  33 H33           -1.5730     1.0763     0.3136 H       
  34 H34           -1.1129    -1.3388     0.2931 H       
  35 H35            1.1906    -2.1674     0.1252 H       
  36 H36            0.2792     2.6903     0.1749 H       
  37 H37            5.4125    -0.2815    -0.1910 H       
  38 H38            5.9803     4.7905    -2.0030 H       
  39 H39            6.8174     7.1041    -2.0685 H       
  40 H40            6.2106     8.6857    -0.2834 H       
  41 H41            4.7676     7.9587     1.5734 H       
  42 H42            4.5612    -2.3350     0.3947 H       
  43 H43            2.8079    -2.6132     0.5247 H       
  44 H44            5.6626    -2.3352    -1.7664 H       
  45 H45            5.6259    -3.1541    -4.0870 H       
  46 H46            1.4141    -3.8242    -3.7740 H       
  47 H47            1.4623    -3.0082    -1.4525 H       
  48 H48            2.7278    -3.8221    -5.9642 H       
  49 H49            3.5039    -5.0586    -7.7194 H       
  50 H50            5.2694    -4.8963    -7.8775 H       
  51 H51            4.5695    -6.3884    -7.2051 H       
  52 H52            4.2976     5.1271     2.7789 H       
  53 H53            3.1018     6.3700     2.3391 H       
  54 H54            2.9988     4.7433     1.6239 H       
@<TRIPOS>BOND
   1    1    2 ar
   2    1    6 ar
   3    1   33 1
   4    2    3 ar
   5    2   34 1
   6    3    4 ar
   7    3   35 1
   8    4    5 ar
   9    4    7 1
  10    5    6 ar
  11    5   10 1
  12    6   36 1
  13    7    8 1
  14    7   21 1
  15    8    9 2
  16    8   37 1
  17    9   10 1
  18    9   11 1
  19   10   13 2
  20   11   12 am
  21   11   14 2
  22   12   13 1
  23   12   15 1
  24   15   16 ar
  25   15   17 ar
  26   16   32 1
  27   16   20 ar
  28   17   18 ar
  29   17   38 1
  30   18   19 ar
  31   18   39 1
  32   19   20 ar
  33   19   40 1
  34   20   41 1
  35   21   22 1
  36   21   42 1
  37   21   43 1
  38   22   23 ar
  39   22   27 ar
  40   23   24 ar
  41   23   44 1
  42   24   25 ar
  43   24   45 1
  44   25   26 ar
  45   25   28 1
  46   26   27 ar
  47   26   46 1
  48   27   47 1
  49   28   29 am
  50   28   48 1
  51   29   30 2
  52   29   31 1
  53   31   49 1
  54   31   50 1
  55   31   51 1
  56   32   52 1
  57   32   53 1
  58   32   54 1

#	End of record

