#	Name: ASD03090278
#	Creating user name:	WinNT
#	Creation time:	15. 06. 2019 20:28

#	Modifying user name:	WinNT
#	Modification time:	15. 06. 2019 20:28

#	Program:	/corina/corina34_cracker 3.40 0067  02.08.2006

@<TRIPOS>MOLECULE
ASD03090278
  57   60    0    0    0
SMALL
NO_CHARGES


@<TRIPOS>ATOM
   1 N1            -0.7724     1.0590     1.2329 N.ar    
   2 C2            -0.6418    -0.2475     1.4071 C.ar    
   3 C3             0.5574    -0.8855     1.1170 C.ar    
   4 C4             1.6272    -0.1273     0.6373 C.ar    
   5 C5             1.4404     1.2506     0.4697 C.ar    
   6 C6             0.2178     1.8057     0.7814 C.ar    
   7 C7             2.9246    -0.7629     0.3148 C.2     
   8 N8             4.9960    -3.5086    -0.4093 N.pl3   
   9 C9             4.1894    -4.6470    -0.5087 C.ar    
  10 C10            2.8632    -4.5274    -0.9029 C.ar    
  11 C11            2.0687    -5.6531    -1.0009 C.ar    
  12 C12            2.5936    -6.9000    -0.7064 C.ar    
  13 C13            3.9159    -7.0216    -0.3131 C.ar    
  14 C14            4.7154    -5.8996    -0.2189 C.ar    
  15 N15            3.1301    -2.0500     0.1205 N.2     
  16 C16            4.4183    -2.2643    -0.1499 C.2     
  17 N17            5.0563    -1.1162    -0.1325 N.2     
  18 N18            4.1062    -0.1248     0.1619 N.pl3   
  19 C19            4.3492     1.3144     0.2870 C.3     
  20 F20            1.8146    -7.9995    -0.8025 F       
  21 C21            4.2387     1.9719    -1.0901 C.3     
  22 C22            4.4887     3.4524    -0.9615 C.2     
  23 N23            4.4426     4.2410    -2.0535 N.am    
  24 O24            4.7314     3.9343     0.1247 O.2     
  25 C25            4.6856     5.6803    -1.9284 C.3     
  26 C26            4.1494     3.6589    -3.3655 C.3     
  27 N27           -1.7165    -0.9882     1.8861 N.pl3   
  28 C28           -1.6235    -2.4482     1.9632 C.3     
  29 C29           -2.4545    -3.1533     3.0371 C.3     
  30 C30           -2.8600    -3.2569     1.5655 C.3     
  31 C31            4.4844    -8.3802     0.0067 C.3     
  32 F32            5.8271    -8.2486     0.3766 F       
  33 F33            3.7638    -8.9506     1.0615 F       
  34 F34            4.3898    -9.2025    -1.1211 F       
  35 H35            0.6608    -1.9509     1.2605 H       
  36 H36            2.2444     1.8705     0.1013 H       
  37 H37            0.0679     2.8677     0.6543 H       
  38 H38            5.9567    -3.5836    -0.5206 H       
  39 H39            2.4533    -3.5550    -1.1324 H       
  40 H40            1.0372    -5.5605    -1.3071 H       
  41 H41            5.7465    -5.9950     0.0879 H       
  42 H42            3.6097     1.7508     0.9584 H       
  43 H43            5.3484     1.4805     0.6898 H       
  44 H44            4.9783     1.5355    -1.7615 H       
  45 H45            3.2396     1.8058    -1.4929 H       
  46 H46            5.7497     5.8812    -2.0525 H       
  47 H47            4.1236     6.2117    -2.6964 H       
  48 H48            4.3644     6.0188    -0.9434 H       
  49 H49            3.9986     2.5845    -3.2608 H       
  50 H50            3.2464     4.1147    -3.7717 H       
  51 H51            4.9851     3.8445    -4.0403 H       
  52 H52           -2.5279    -0.5383     2.1692 H       
  53 H53           -0.6474    -2.8704     1.7243 H       
  54 H54           -2.0252    -4.0395     3.5044 H       
  55 H55           -3.0703    -2.5309     3.6863 H       
  56 H56           -3.7426    -2.7026     1.2464 H       
  57 H57           -2.6975    -4.2112     1.0646 H       
@<TRIPOS>BOND
   1    1    2 ar
   2    1    6 ar
   3    2    3 ar
   4    2   27 1
   5    3    4 ar
   6    3   35 1
   7    4    5 ar
   8    4    7 1
   9    5    6 ar
  10    5   36 1
  11    6   37 1
  12    7   15 2
  13    7   18 1
  14    8    9 1
  15    8   16 1
  16    8   38 1
  17    9   10 ar
  18    9   14 ar
  19   10   11 ar
  20   10   39 1
  21   11   12 ar
  22   11   40 1
  23   12   13 ar
  24   12   20 1
  25   13   14 ar
  26   13   31 1
  27   14   41 1
  28   15   16 1
  29   16   17 2
  30   17   18 1
  31   18   19 1
  32   19   21 1
  33   19   42 1
  34   19   43 1
  35   21   22 1
  36   21   44 1
  37   21   45 1
  38   22   23 am
  39   22   24 2
  40   23   25 1
  41   23   26 1
  42   25   46 1
  43   25   47 1
  44   25   48 1
  45   26   49 1
  46   26   50 1
  47   26   51 1
  48   27   28 1
  49   27   52 1
  50   28   29 1
  51   28   30 1
  52   28   53 1
  53   29   30 1
  54   29   54 1
  55   29   55 1
  56   30   56 1
  57   30   57 1
  58   31   32 1
  59   31   33 1
  60   31   34 1

#	End of record

