#	Name: ASD02690069
#	Creating user name:	WinNT
#	Creation time:	15. 06. 2019 20:26

#	Modifying user name:	WinNT
#	Modification time:	15. 06. 2019 20:26

#	Program:	/corina/corina34_cracker 3.40 0067  02.08.2006

@<TRIPOS>MOLECULE
ASD02690069
  47   48    0    0    0
SMALL
NO_CHARGES


@<TRIPOS>ATOM
   1 N1            -0.0178     1.4650     0.0101 N.am    
   2 C2             0.0021    -0.0041     0.0020 C.3     
   3 C3             0.8803    -0.4916     1.1586 C.3     
   4 C4             2.2627     0.1563     1.0525 C.3     
   5 C5             2.1248     1.6768     1.1584 C.3     
   6 C6             1.2607     2.1889     0.0018 C.3     
   7 C7            -1.1868     2.1359     0.0193 C.2     
   8 O8            -2.2375     1.5256     0.0210 O.2     
   9 O9            -1.1902     3.4822     0.0266 O.3     
  10 C10            3.1403    -0.3472     2.1693 C.2     
  11 O11            2.6425    -0.7539     3.1922 O.2     
  12 C12            6.8268    -0.7859     2.8472 C.2     
  13 C13            5.4287    -0.8037     3.0321 C.2     
  14 C14            4.6112    -0.3435     2.0131 C.2     
  15 C15            5.2061     0.1291     0.8214 C.2     
  16 C16            6.5523     0.1257     0.6937 C.2     
  17 N17            7.3490    -0.3266     1.6949 N.am    
  18 O18            7.5639    -1.1823     3.7348 O.2     
  19 C19            8.8033    -0.3143     1.5185 C.3     
  20 C20           -2.4856     4.1381     0.0364 C.3     
  21 C21           -3.2605     3.7182     1.2870 C.3     
  22 C22           -2.2890     5.6554     0.0437 C.3     
  23 C23           -3.2723     3.7317    -1.2114 C.3     
  24 H24           -1.0118    -0.3840     0.1278 H       
  25 H25            0.4128    -0.3587    -0.9433 H       
  26 H26            0.4202    -0.2139     2.1069 H       
  27 H27            0.9816    -1.5757     1.1066 H       
  28 H28            2.7120    -0.1016     0.0934 H       
  29 H29            1.6530     1.9341     2.1067 H       
  30 H30            3.1119     2.1361     1.1062 H       
  31 H31            1.7740     2.0131    -0.9436 H       
  32 H32            1.0772     3.2560     0.1274 H       
  33 H33            5.0022    -1.1710     3.9538 H       
  34 H34            4.5868     0.4920     0.0144 H       
  35 H35            7.0005     0.4882    -0.2196 H       
  36 H36            9.1240    -1.2588     1.0789 H       
  37 H37            9.0823     0.5070     0.8583 H       
  38 H38            9.2857    -0.1819     2.4869 H       
  39 H39           -2.7000     4.0076     2.1759 H       
  40 H40           -4.2329     4.2105     1.2943 H       
  41 H41           -3.4005     2.6372     1.2818 H       
  42 H42           -1.7370     5.9545    -0.8473 H       
  43 H43           -3.2615     6.1477     0.0510 H       
  44 H44           -1.7286     5.9448     0.9326 H       
  45 H45           -3.4124     2.6508    -1.2166 H       
  46 H46           -4.2448     4.2241    -1.2041 H       
  47 H47           -2.7203     4.0309    -2.1024 H       
@<TRIPOS>BOND
   1    1    2 1
   2    1    6 1
   3    1    7 am
   4    2    3 1
   5    2   24 1
   6    2   25 1
   7    3    4 1
   8    3   26 1
   9    3   27 1
  10    4    5 1
  11    4   10 1
  12    4   28 1
  13    5    6 1
  14    5   29 1
  15    5   30 1
  16    6   31 1
  17    6   32 1
  18    7    8 2
  19    7    9 1
  20    9   20 1
  21   10   11 2
  22   10   14 1
  23   12   13 1
  24   12   17 am
  25   12   18 2
  26   13   14 2
  27   13   33 1
  28   14   15 1
  29   15   16 2
  30   15   34 1
  31   16   17 1
  32   16   35 1
  33   17   19 1
  34   19   36 1
  35   19   37 1
  36   19   38 1
  37   20   21 1
  38   20   23 1
  39   20   22 1
  40   21   39 1
  41   21   40 1
  42   21   41 1
  43   22   42 1
  44   22   43 1
  45   22   44 1
  46   23   45 1
  47   23   46 1
  48   23   47 1

#	End of record

