#	Name: ASD07300696
#	Creating user name:	WinNT
#	Creation time:	15. 06. 2019 21:10

#	Modifying user name:	WinNT
#	Modification time:	15. 06. 2019 21:10

#	Program:	/corina/corina34_cracker 3.40 0067  02.08.2006

@<TRIPOS>MOLECULE
ASD07300696
  43   46    0    0    0
SMALL
NO_CHARGES


@<TRIPOS>ATOM
   1 C1            -0.0173     1.4133    -0.0101 C.2     
   2 C2             0.0021    -0.0041     0.0020 C.2     
   3 N3             1.1763     2.0865    -0.0173 N.pl3   
   4 N4             1.1569    -0.6390     0.0061 N.2     
   5 C5             2.3148     0.0278    -0.0010 C.2     
   6 C6             2.3463     1.3762    -0.0126 C.2     
   7 N7            -0.9999     2.3007    -0.0113 N.2     
   8 C8            -0.4911     3.5279    -0.0253 C.2     
   9 C9             0.8847     3.4244    -0.0284 C.2     
  10 C10            2.6215     6.6577    -0.8704 C.ar    
  11 C11            1.6833     5.6299    -0.8963 C.ar    
  12 C12            1.8533     4.5385    -0.0384 C.ar    
  13 C13            2.9682     4.5308     0.8124 C.ar    
  14 C14            3.8509     5.5892     0.7752 C.ar    
  15 N15            3.6623     6.6043    -0.0453 N.ar    
  16 C16            2.4625     7.8164    -1.7737 C.2     
  17 C17            3.3525     8.7991    -1.7543 C.2     
  18 N18           -1.1861    -0.7177     0.0100 N.pl3   
  19 C19           -1.1896    -2.1845    -0.1073 C.3     
  20 C20           -2.0522    -2.7579     1.0227 C.3     
  21 O21           -3.3301    -2.1171     1.0109 O.3     
  22 C22           -3.2811    -0.7092     1.2547 C.3     
  23 C23           -2.4811    -0.0314     0.1422 C.3     
  24 C24           -1.2805     4.8116    -0.0312 C.3     
  25 H25            3.2434    -0.5236     0.0027 H       
  26 H26            3.2936     1.8949    -0.0185 H       
  27 H27            0.8379     5.6747    -1.5670 H       
  28 H28            3.1331     3.7055     1.4893 H       
  29 H29            4.7107     5.5872     1.4288 H       
  30 H30            1.6215     7.8628    -2.4496 H       
  31 H31            3.2364     9.6459    -2.4144 H       
  32 H32            4.1936     8.7526    -1.0784 H       
  33 H33           -1.6073    -2.4747    -1.0714 H       
  34 H34           -0.1709    -2.5622    -0.0194 H       
  35 H35           -2.1812    -3.8300     0.8742 H       
  36 H36           -1.5638    -2.5785     1.9805 H       
  37 H37           -4.2942    -0.3074     1.2730 H       
  38 H38           -2.7971    -0.5223     2.2133 H       
  39 H39           -2.3172     1.0161     0.3953 H       
  40 H40           -3.0310    -0.1011    -0.7963 H       
  41 H41           -1.4637     5.1302     0.9949 H       
  42 H42           -0.7164     5.5826    -0.5559 H       
  43 H43           -2.2325     4.6503    -0.5371 H       
@<TRIPOS>BOND
   1    1    2 1
   2    1    3 1
   3    1    7 2
   4    2    4 2
   5    2   18 1
   6    3    6 1
   7    3    9 1
   8    4    5 1
   9    5    6 2
  10    5   25 1
  11    6   26 1
  12    7    8 1
  13    8    9 2
  14    8   24 1
  15    9   12 1
  16   10   11 ar
  17   10   15 ar
  18   10   16 1
  19   11   12 ar
  20   11   27 1
  21   12   13 ar
  22   13   14 ar
  23   13   28 1
  24   14   15 ar
  25   14   29 1
  26   16   17 2
  27   16   30 1
  28   17   31 1
  29   17   32 1
  30   18   19 1
  31   18   23 1
  32   19   20 1
  33   19   33 1
  34   19   34 1
  35   20   21 1
  36   20   35 1
  37   20   36 1
  38   21   22 1
  39   22   23 1
  40   22   37 1
  41   22   38 1
  42   23   39 1
  43   23   40 1
  44   24   41 1
  45   24   42 1
  46   24   43 1

#	End of record

