#	Name: ASD05430078
#	Creating user name:	WinNT
#	Creation time:	15. 06. 2019 20:59

#	Modifying user name:	WinNT
#	Modification time:	15. 06. 2019 20:59

#	Program:	/corina/corina34_cracker 3.40 0067  02.08.2006

@<TRIPOS>MOLECULE
ASD05430078
  60   66    0    0    0
SMALL
NO_CHARGES


@<TRIPOS>ATOM
   1 C1             0.0527     1.1864     0.3876 C.ar    
   2 C2             0.0200    -0.0133    -0.3258 C.ar    
   3 C3             1.1713    -0.4982    -0.9271 C.ar    
   4 C4             2.3632     0.1933    -0.8307 C.ar    
   5 C5             2.4232     1.3946    -0.1238 C.ar    
   6 C6             1.2557     1.8971     0.4920 C.ar    
   7 C7             4.8817    -0.0499     0.2302 C.3     
   8 C8             4.8558     1.4566     0.0677 C.2     
   9 C9             3.6897     2.1300    -0.0203 C.2     
  10 C10            5.9565    -0.3808     1.2743 C.3     
  11 C11            7.3326     0.1461     0.8715 C.3     
  12 N12            7.2752     1.5763     0.5761 N.pl3   
  13 C13            6.1461     2.1580     0.0097 C.2     
  14 N14           -1.1794    -0.7294    -0.4338 N.pl3   
  15 C15           -1.7371    -1.2157    -1.5879 C.2     
  16 C16           -2.8801    -1.8357    -1.2377 C.2     
  17 N17           -3.0213    -1.7339     0.0922 N.2     
  18 C18           -2.0064    -1.0781     0.5858 C.2     
  19 C19           -3.8358    -2.5243    -2.1777 C.3     
  20 N20           -0.2925     3.0532     1.6007 N.2     
  21 O21           -0.8836     1.8902     1.0564 O.3     
  22 C22            8.4234     2.4295     0.9155 C.3     
  23 C23            8.5538     3.5170    -0.1204 C.2     
  24 N24            7.4618     3.9378    -0.7913 N.am    
  25 N25            6.2280     3.3051    -0.6098 N.2     
  26 C26            8.2070     3.0492     2.2721 C.ar    
  27 C27            9.2639     3.1629     3.1560 C.ar    
  28 C28            6.9531     3.5086     2.6294 C.ar    
  29 C29            6.7536     4.0779     3.8728 C.ar    
  30 C30            7.8102     4.1876     4.7609 C.ar    
  31 C31            9.0667     3.7315     4.4001 C.ar    
  32 F32            7.6164     4.7440     5.9767 F       
  33 C33            0.9676     3.0895     1.2876 C.2     
  34 C34            5.5490     0.0034     2.6971 C.3     
  35 S35            6.5063    -1.3953     3.3448 S.3     
  36 C36            5.9649    -1.8568     1.6757 C.3     
  37 O37            9.6375     4.0126    -0.3497 O.2     
  38 H38            1.1359    -1.4272    -1.4768 H       
  39 H39            3.2519    -0.1975    -1.3040 H       
  40 H40            3.9094    -0.4021     0.5750 H       
  41 H41            5.1314    -0.5209    -0.7206 H       
  42 H42            3.6880     3.2100    -0.0147 H       
  43 H43            8.0346    -0.0236     1.6880 H       
  44 H44            7.6767    -0.3894    -0.0134 H       
  45 H45           -1.3366    -1.1199    -2.5864 H       
  46 H46           -1.8531    -0.8459     1.6294 H       
  47 H47           -3.5512    -3.5712    -2.2828 H       
  48 H48           -4.8477    -2.4613    -1.7775 H       
  49 H49           -3.7999    -2.0383    -3.1527 H       
  50 H50            9.3326     1.8283     0.9292 H       
  51 H51            7.5329     4.6858    -1.4047 H       
  52 H52           10.2439     2.8071     2.8743 H       
  53 H53            6.1291     3.4229     1.9365 H       
  54 H54            5.7741     4.4374     4.1515 H       
  55 H55            9.8915     3.8162     5.0921 H       
  56 H56            1.6725     3.8601     1.5625 H       
  57 H57            5.9410     0.9717     3.0084 H       
  58 H58            4.4780    -0.0907     2.8764 H       
  59 H59            4.9745    -2.3117     1.6569 H       
  60 H60            6.7047    -2.4445     1.1324 H       
@<TRIPOS>BOND
   1    1    2 ar
   2    1    6 ar
   3    1   21 1
   4    2    3 ar
   5    2   14 1
   6    3    4 ar
   7    3   38 1
   8    4    5 ar
   9    4   39 1
  10    5    6 ar
  11    5    9 1
  12    6   33 1
  13    7    8 1
  14    7   10 1
  15    7   40 1
  16    7   41 1
  17    8    9 2
  18    8   13 1
  19    9   42 1
  20   10   11 1
  21   10   34 1
  22   10   36 1
  23   11   12 1
  24   11   43 1
  25   11   44 1
  26   12   13 1
  27   12   22 1
  28   13   25 2
  29   14   15 1
  30   14   18 1
  31   15   16 2
  32   15   45 1
  33   16   17 1
  34   16   19 1
  35   17   18 2
  36   18   46 1
  37   19   47 1
  38   19   48 1
  39   19   49 1
  40   20   21 1
  41   20   33 2
  42   22   23 1
  43   22   26 1
  44   22   50 1
  45   23   24 am
  46   23   37 2
  47   24   25 1
  48   24   51 1
  49   26   27 ar
  50   26   28 ar
  51   27   31 ar
  52   27   52 1
  53   28   29 ar
  54   28   53 1
  55   29   30 ar
  56   29   54 1
  57   30   31 ar
  58   30   32 1
  59   31   55 1
  60   33   56 1
  61   34   35 1
  62   34   57 1
  63   34   58 1
  64   35   36 1
  65   36   59 1
  66   36   60 1

#	End of record

