#	Name: ASD00120016
#	Creating user name:	WinNT
#	Creation time:	15. 06. 2019 18:31

#	Modifying user name:	WinNT
#	Modification time:	15. 06. 2019 18:31

#	Program:	/corina/corina34_cracker 3.40 0067  02.08.2006

@<TRIPOS>MOLECULE
ASD00120016
  25   25    0    0    0
SMALL
NO_CHARGES


@<TRIPOS>ATOM
   1 C1            -0.0167     1.3770     0.0096 C.ar    
   2 C2             0.0021    -0.0041     0.0020 C.ar    
   3 C3             1.2093    -0.6805    -0.0131 C.ar    
   4 C4             2.3994     0.0248    -0.0203 C.ar    
   5 C5             2.3848     1.4063    -0.0127 C.ar    
   6 C6             1.1758     2.0861     0.0020 C.ar    
   7 O7             1.1594     3.4452     0.0090 O.3     
   8 C8             3.6815     2.1741    -0.0200 C.3     
   9 C9             4.4987     1.8067     1.2202 C.3     
  10 C10            4.4768     1.8201    -1.2782 C.3     
  11 C11           -1.2929    -0.7748     0.0107 C.3     
  12 Cl12           1.2302    -2.4164    -0.0227 Cl      
  13 H13           -0.9590     1.9046     0.0169 H       
  14 H14            3.3405    -0.5049    -0.0314 H       
  15 H15            1.1464     3.8429    -0.8723 H       
  16 H16            3.4706     3.2435    -0.0124 H       
  17 H17            5.4366     2.3620     1.2149 H       
  18 H18            3.9321     2.0589     2.1166 H       
  19 H19            4.7096     0.7373     1.2126 H       
  20 H20            3.8946     2.0819    -2.1617 H       
  21 H21            5.4147     2.3755    -1.2834 H       
  22 H22            4.6877     0.7507    -1.2858 H       
  23 H23           -1.6153    -0.9551    -1.0147 H       
  24 H24           -1.1449    -1.7281     0.5180 H       
  25 H25           -2.0551    -0.1986     0.5353 H       
@<TRIPOS>BOND
   1    1    2 ar
   2    1    6 ar
   3    1   13 1
   4    2    3 ar
   5    2   11 1
   6    3    4 ar
   7    3   12 1
   8    4    5 ar
   9    4   14 1
  10    5    6 ar
  11    5    8 1
  12    6    7 1
  13    7   15 1
  14    8    9 1
  15    8   10 1
  16    8   16 1
  17    9   17 1
  18    9   18 1
  19    9   19 1
  20   10   20 1
  21   10   21 1
  22   10   22 1
  23   11   23 1
  24   11   24 1
  25   11   25 1

#	End of record

