#	Name: ASD01916584
#	Creating user name:	WinNT
#	Creation time:	15. 06. 2019 20:07

#	Modifying user name:	WinNT
#	Modification time:	15. 06. 2019 20:07

#	Program:	/corina/corina34_cracker 3.40 0067  02.08.2006

@<TRIPOS>MOLECULE
ASD01916584
  44   47    0    0    0
SMALL
NO_CHARGES


@<TRIPOS>ATOM
   1 C1            -0.0171     1.4098     0.0098 C.ar    
   2 C2             0.0021    -0.0041     0.0020 C.ar    
   3 C3            -1.1917    -0.7258     0.0135 C.ar    
   4 C4            -2.3847    -0.0648     0.0345 C.ar    
   5 C5            -2.4222     1.3379     0.0422 C.ar    
   6 C6            -1.2411     2.0760     0.0308 C.ar    
   7 N7             1.1587     2.0866     0.0022 N.2     
   8 C8             2.3040     1.4744    -0.0007 C.2     
   9 N9             2.4092     0.1111    -0.0119 N.am    
  10 C10            1.3117    -0.6721    -0.0153 C.2     
  11 C11           -3.6837     2.0153     0.0633 C.1     
  12 O12            1.4017    -1.8861    -0.0320 O.2     
  13 C13           -4.7179     2.5706     0.0807 C.1     
  14 C14           -5.9793     3.2480     0.1018 C.ar    
  15 N15           -6.0148     4.5770     0.1091 N.ar    
  16 C16           -7.1545     5.2364     0.1281 C.ar    
  17 C17           -8.3641     4.5654     0.1411 C.ar    
  18 C18           -8.3743     3.1771     0.1342 C.ar    
  19 C19           -7.1643     2.5075     0.1089 C.ar    
  20 C20            3.5851     2.2792     0.0201 C.3     
  21 C21            4.2176     2.1721     1.4055 C.3     
  22 C22            5.1309     0.9626     1.5002 C.3     
  23 C23            4.3672    -0.3443     1.3719 C.3     
  24 C24            3.7501    -0.4865    -0.0181 C.3     
  25 C25            5.3251    -1.5117     1.6176 C.3     
  26 H26           -1.1713    -1.8056     0.0054 H       
  27 H27           -3.3077    -0.6254     0.0449 H       
  28 H28           -1.2735     3.1555     0.0349 H       
  29 H29           -7.1448     6.3163     0.1338 H       
  30 H30           -9.2926     5.1168     0.1570 H       
  31 H31           -9.3066     2.6320     0.1441 H       
  32 H32           -7.1356     1.4279     0.1028 H       
  33 H33            4.2747     1.8863    -0.7270 H       
  34 H34            3.3633     3.3235    -0.1998 H       
  35 H35            4.7970     3.0737     1.6043 H       
  36 H36            3.4288     2.0836     2.1525 H       
  37 H37            5.8743     1.0175     0.7049 H       
  38 H38            5.6428     0.9802     2.4624 H       
  39 H39            3.5744    -0.3700     2.1194 H       
  40 H40            3.6772    -1.5425    -0.2782 H       
  41 H41            4.3748     0.0276    -0.7485 H       
  42 H42            5.7469    -1.4309     2.6194 H       
  43 H43            4.7822    -2.4525     1.5267 H       
  44 H44            6.1287    -1.4834     0.8816 H       
@<TRIPOS>BOND
   1    1    2 ar
   2    1    7 1
   3    1    6 ar
   4    2    3 ar
   5    2   10 1
   6    3    4 ar
   7    3   26 1
   8    4    5 ar
   9    4   27 1
  10    5    6 ar
  11    5   11 1
  12    6   28 1
  13    7    8 2
  14    8    9 1
  15    8   20 1
  16    9   10 am
  17    9   24 1
  18   10   12 2
  19   11   13 3
  20   13   14 1
  21   14   15 ar
  22   14   19 ar
  23   15   16 ar
  24   16   17 ar
  25   16   29 1
  26   17   18 ar
  27   17   30 1
  28   18   19 ar
  29   18   31 1
  30   19   32 1
  31   20   21 1
  32   20   33 1
  33   20   34 1
  34   21   22 1
  35   21   35 1
  36   21   36 1
  37   22   23 1
  38   22   37 1
  39   22   38 1
  40   23   24 1
  41   23   25 1
  42   23   39 1
  43   24   40 1
  44   24   41 1
  45   25   42 1
  46   25   43 1
  47   25   44 1

#	End of record

