#	Name: ASD01001016
#	Creating user name:	WinNT
#	Creation time:	15. 06. 2019 18:54

#	Modifying user name:	WinNT
#	Modification time:	15. 06. 2019 18:54

#	Program:	/corina/corina34_cracker 3.40 0067  02.08.2006

@<TRIPOS>MOLECULE
ASD01001016
  61   64    0    0    0
SMALL
NO_CHARGES


@<TRIPOS>ATOM
   1 C1             1.4553     0.8606     2.1946 C.ar    
   2 C2             1.6455    -0.4139     1.6941 C.ar    
   3 C3             0.6331     1.7495     1.5278 C.ar    
   4 C4             1.0135    -0.7994     0.5267 C.ar    
   5 C5             0.0011     1.3640     0.3604 C.ar    
   6 C6             0.1909     0.0894    -0.1399 C.ar    
   7 C7             1.2216    -2.1884    -0.0196 C.3     
   8 C8             0.6505    -2.2715    -1.4117 C.ar    
   9 C9             2.6964    -2.4955    -0.0625 C.ar    
  10 S10            0.3845    -3.3906     1.0503 S.3     
  11 C11            1.0704    -1.3845    -2.3852 C.ar    
  12 C12           -0.2892    -3.2384    -1.7166 C.ar    
  13 C13            3.1322    -3.8019     0.0668 C.ar    
  14 C14            3.6088    -1.4706    -0.2367 C.ar    
  15 C15            0.5464    -1.4607    -3.6621 C.ar    
  16 C16           -0.8131    -3.3147    -2.9935 C.ar    
  17 C17            4.4816    -4.0889     0.0286 C.ar    
  18 C18            4.9606    -1.7461    -0.2772 C.ar    
  19 C19           -0.3971    -2.4243    -3.9656 C.ar    
  20 C20            5.4057    -3.0596    -0.1409 C.ar    
  21 C21           -1.3118    -2.7530     1.1314 C.3     
  22 C22           -2.1289    -3.6002     2.1089 C.3     
  23 N23           -1.5884    -3.4406     3.4655 N.3     
  24 C24            6.8575    -3.3620    -0.1837 C.ar    
  25 C25            7.3013    -4.6762    -0.0472 C.ar    
  26 C26            8.6515    -4.9542    -0.0873 C.ar    
  27 C27            9.5683    -3.9267    -0.2633 C.ar    
  28 C28            9.1292    -2.6166    -0.3991 C.ar    
  29 C29            7.7800    -2.3332    -0.3660 C.ar    
  30 C30           -3.5665    -3.1489     2.0846 C.2     
  31 O31           -3.9851    -2.4184     2.9512 O.2     
  32 O32           -4.3820    -3.5585     1.1002 O.3     
  33 O33           10.8979    -4.2036    -0.3024 O.3     
  34 C34           11.7855    -3.0989    -0.4863 C.3     
  35 H35            1.9455     1.1603     3.1091 H       
  36 H36            2.2882    -1.1082     2.2149 H       
  37 H37            0.4842     2.7450     1.9191 H       
  38 H38           -0.6419     2.0582    -0.1602 H       
  39 H39           -0.3023    -0.2116    -1.0524 H       
  40 H40            1.8075    -0.6316    -2.1480 H       
  41 H41           -0.6137    -3.9345    -0.9573 H       
  42 H42            2.4152    -4.5988     0.1981 H       
  43 H43            3.2628    -0.4529    -0.3415 H       
  44 H44            0.8740    -0.7672    -4.4225 H       
  45 H45           -1.5470    -4.0704    -3.2319 H       
  46 H46            4.8208    -5.1092     0.1304 H       
  47 H47            5.6721    -0.9452    -0.4140 H       
  48 H48           -0.8067    -2.4836    -4.9632 H       
  49 H49           -1.2950    -1.7182     1.4736 H       
  50 H50           -1.7657    -2.8010     0.1416 H       
  51 H51           -2.0722    -4.6486     1.8162 H       
  52 H52           -0.6459    -3.7962     3.5234 H       
  53 H53           -1.6299    -2.4764     3.7601 H       
  54 H54            6.5886    -5.4759     0.0901 H       
  55 H55            8.9960    -5.9723     0.0187 H       
  56 H56            9.8447    -1.8192    -0.5356 H       
  57 H57            7.4390    -1.3139    -0.4717 H       
  58 H58           -5.2956    -3.2427     1.1270 H       
  59 H59           11.5611    -2.6060    -1.4323 H       
  60 H60           11.6579    -2.3902     0.3319 H       
  61 H61           12.8146    -3.4579    -0.4989 H       
@<TRIPOS>BOND
   1    1    2 ar
   2    1    3 ar
   3    1   35 1
   4    2    4 ar
   5    2   36 1
   6    3    5 ar
   7    3   37 1
   8    4    6 ar
   9    4    7 1
  10    5    6 ar
  11    5   38 1
  12    6   39 1
  13    7    8 1
  14    7    9 1
  15    7   10 1
  16    8   11 ar
  17    8   12 ar
  18    9   13 ar
  19    9   14 ar
  20   10   21 1
  21   11   15 ar
  22   11   40 1
  23   12   16 ar
  24   12   41 1
  25   13   17 ar
  26   13   42 1
  27   14   18 ar
  28   14   43 1
  29   15   19 ar
  30   15   44 1
  31   16   19 ar
  32   16   45 1
  33   17   20 ar
  34   17   46 1
  35   18   20 ar
  36   18   47 1
  37   19   48 1
  38   20   24 1
  39   21   22 1
  40   21   49 1
  41   21   50 1
  42   22   23 1
  43   22   30 1
  44   22   51 1
  45   23   52 1
  46   23   53 1
  47   24   25 ar
  48   24   29 ar
  49   25   26 ar
  50   25   54 1
  51   26   27 ar
  52   26   55 1
  53   27   28 ar
  54   27   33 1
  55   28   29 ar
  56   28   56 1
  57   29   57 1
  58   30   31 2
  59   30   32 1
  60   32   58 1
  61   33   34 1
  62   34   59 1
  63   34   60 1
  64   34   61 1

#	End of record

