#	Name: ASD01148718
#	Creating user name:	WinNT
#	Creation time:	15. 06. 2019 19:03

#	Modifying user name:	WinNT
#	Modification time:	15. 06. 2019 19:03

#	Program:	/corina/corina34_cracker 3.40 0067  02.08.2006

@<TRIPOS>MOLECULE
ASD01148718
  54   57    0    0    0
SMALL
NO_CHARGES


@<TRIPOS>ATOM
   1 N1            -0.0158     1.3412     0.0807 N.pl3   
   2 C2             0.0024     0.0051    -0.1114 C.2     
   3 C3             1.3180    -0.4070    -0.1550 C.2     
   4 C4             2.1212     0.7504     0.0213 C.2     
   5 C5             1.2768     1.8045     0.1629 C.2     
   6 C6             1.7980    -1.7846    -0.3468 C.2     
   7 O7             1.0013    -2.6919    -0.4863 O.2     
   8 O8             3.1212    -2.0405    -0.3679 O.3     
   9 C9             1.6786     3.2117     0.3695 C.ar    
  10 C10            0.7786     4.1202     0.9308 C.ar    
  11 C11            1.1538     5.4310     1.1229 C.ar    
  12 C12            2.4323     5.8518     0.7566 C.ar    
  13 C13            3.3320     4.9451     0.1959 C.ar    
  14 C14            2.9606     3.6325     0.0088 C.ar    
  15 C15            2.0131     8.1855     1.4988 C.2     
  16 C16            2.8352     7.2639     0.9630 C.2     
  17 C17            4.0967     7.7468     0.6186 C.2     
  18 C18            4.2908     9.0383     0.8722 C.2     
  19 S19            2.8413     9.7344     1.5830 S.3     
  20 C20           -1.1687     2.1317     0.1753 C.ar    
  21 C21           -2.0119     2.0037     1.2710 C.ar    
  22 C22           -3.1477     2.7844     1.3615 C.ar    
  23 C23           -3.4457     3.6923     0.3620 C.ar    
  24 C24           -2.6080     3.8221    -0.7305 C.ar    
  25 C25           -1.4674     3.0486    -0.8236 C.ar    
  26 S26           -4.8963     4.6856     0.4804 S.o2    
  27 O27           -5.2287     5.0701    -0.8466 O.2     
  28 O28           -5.7919     3.9877     1.3348 O.2     
  29 N29           -4.4756     6.0744     1.2782 N.am    
  30 C30           -1.2065    -0.8834    -0.2534 C.3     
  31 C31            3.5224    -3.4225    -0.5612 C.3     
  32 C32            5.0495    -3.5157    -0.5566 C.3     
  33 H33            3.2004     0.7858     0.0398 H       
  34 H34           -0.2116     3.7948     1.2138 H       
  35 H35            0.4579     6.1337     1.5569 H       
  36 H36            4.3217     5.2717    -0.0874 H       
  37 H37            3.6589     2.9295    -0.4208 H       
  38 H38            0.9992     8.0027     1.8229 H       
  39 H39            4.8588     7.1201     0.1796 H       
  40 H40            5.2039     9.5791     0.6715 H       
  41 H41           -1.7801     1.2943     2.0516 H       
  42 H42           -3.8040     2.6853     2.2135 H       
  43 H43           -2.8434     4.5321    -1.5095 H       
  44 H44           -0.8110     3.1538    -1.6747 H       
  45 H45           -3.5622     6.2038     1.5782 H       
  46 H46           -5.1425     6.7586     1.4456 H       
  47 H47           -1.4862    -0.9512    -1.3047 H       
  48 H48           -0.9726    -1.8784     0.1253 H       
  49 H49           -2.0352    -0.4632     0.3166 H       
  50 H50            3.1185    -4.0344     0.2454 H       
  51 H51            3.1393    -3.7818    -1.5164 H       
  52 H52            5.4533    -2.9039    -1.3632 H       
  53 H53            5.4325    -3.1565     0.3986 H       
  54 H54            5.3507    -4.5532    -0.7017 H       
@<TRIPOS>BOND
   1    1    2 1
   2    1    5 1
   3    1   20 1
   4    2    3 2
   5    2   30 1
   6    3    4 1
   7    3    6 1
   8    4    5 2
   9    4   33 1
  10    5    9 1
  11    6    7 2
  12    6    8 1
  13    8   31 1
  14    9   10 ar
  15    9   14 ar
  16   10   11 ar
  17   10   34 1
  18   11   12 ar
  19   11   35 1
  20   12   13 ar
  21   12   16 1
  22   13   14 ar
  23   13   36 1
  24   14   37 1
  25   15   16 2
  26   15   19 1
  27   15   38 1
  28   16   17 1
  29   17   18 2
  30   17   39 1
  31   18   19 1
  32   18   40 1
  33   20   21 ar
  34   20   25 ar
  35   21   22 ar
  36   21   41 1
  37   22   23 ar
  38   22   42 1
  39   23   24 ar
  40   23   26 1
  41   24   25 ar
  42   24   43 1
  43   25   44 1
  44   26   27 2
  45   26   28 2
  46   26   29 am
  47   29   45 1
  48   29   46 1
  49   30   47 1
  50   30   48 1
  51   30   49 1
  52   31   32 1
  53   31   50 1
  54   31   51 1
  55   32   52 1
  56   32   53 1
  57   32   54 1

#	End of record

