#	Name: ASD01382004
#	Creating user name:	WinNT
#	Creation time:	15. 06. 2019 19:16

#	Modifying user name:	WinNT
#	Modification time:	15. 06. 2019 19:16

#	Program:	/corina/corina34_cracker 3.40 0067  02.08.2006

@<TRIPOS>MOLECULE
ASD01382004
  58   60    0    0    0
SMALL
NO_CHARGES


@<TRIPOS>ATOM
   1 C1            -2.3487     3.7921     0.9782 C.ar    
   2 C2            -3.5784     4.2690     0.5483 C.ar    
   3 C3            -4.6409     3.4005     0.3947 C.ar    
   4 C4            -4.4781     2.0493     0.6707 C.ar    
   5 C5            -3.2468     1.5726     1.1011 C.ar    
   6 C6            -2.1839     2.4416     1.2491 C.ar    
   7 O7            -1.3029     4.6479     1.1288 O.3     
   8 C8            -0.0659     4.0886     1.5748 C.3     
   9 N9            -5.5551     1.1680     0.5157 N.am    
  10 C10           -5.3345    -0.1043     0.1294 C.2     
  11 O11           -4.2179    -0.4541    -0.2031 O.2     
  12 C12           -6.4443    -1.0701     0.1099 C.2     
  13 N13           -6.3516    -2.4080    -0.1535 N.pl3   
  14 N14           -7.6394    -2.9515    -0.0683 N.2     
  15 C15           -8.4832    -1.9929     0.2331 C.2     
  16 C16           -7.7736    -0.7964     0.3599 C.2     
  17 C17           -5.1239    -3.1426    -0.4687 C.3     
  18 C18           -4.5816    -3.7766     0.7863 C.ar    
  19 C19           -5.0756    -4.9947     1.2143 C.ar    
  20 C20           -4.5783    -5.5763     2.3655 C.ar    
  21 C21           -3.5866    -4.9400     3.0884 C.ar    
  22 C22           -3.0919    -3.7224     2.6599 C.ar    
  23 C23           -3.5863    -3.1429     1.5064 C.ar    
  24 O24           -9.8249    -2.1407     0.3996 O.3     
  25 C25          -10.3585    -3.4556     0.2314 C.3     
  26 C26          -11.8716    -3.4246     0.4560 C.3     
  27 C27          -12.4429    -4.8324     0.2760 C.3     
  28 N28          -13.8957    -4.8026     0.4917 N.3     
  29 C29          -14.5669    -4.0169    -0.5524 C.3     
  30 C30          -14.4455    -6.1630     0.5620 C.3     
  31 H31           -3.7050     5.3200     0.3340 H       
  32 H32           -5.5983     3.7720     0.0603 H       
  33 H33           -3.1196     0.5220     1.3163 H       
  34 H34           -1.2262     2.0710     1.5834 H       
  35 H35            0.2712     3.3368     0.8611 H       
  36 H36            0.6825     4.8772     1.6525 H       
  37 H37           -0.2079     3.6249     2.5510 H       
  38 H38           -6.4599     1.4731     0.6863 H       
  39 H39           -8.1909     0.1697     0.6030 H       
  40 H40           -5.3429    -3.9184    -1.2023 H       
  41 H41           -4.3837    -2.4547    -0.8773 H       
  42 H42           -5.8504    -5.4918     0.6495 H       
  43 H43           -4.9647    -6.5276     2.7003 H       
  44 H44           -3.1985    -5.3941     3.9882 H       
  45 H45           -2.3174    -3.2251     3.2249 H       
  46 H46           -3.1998    -2.1916     1.1716 H       
  47 H47          -10.1483    -3.8065    -0.7790 H       
  48 H48           -9.8978    -4.1298     0.9534 H       
  49 H49          -12.0818    -3.0736     1.4664 H       
  50 H50          -12.3324    -2.7504    -0.2660 H       
  51 H51          -12.2328    -5.1833    -0.7344 H       
  52 H52          -11.9822    -5.5066     0.9980 H       
  53 H53          -14.3674    -4.4622    -1.5270 H       
  54 H54          -15.6413    -4.0112    -0.3686 H       
  55 H55          -14.1901    -2.9942    -0.5362 H       
  56 H56          -13.9804    -6.7006     1.3884 H       
  57 H57          -15.5225    -6.1118     0.7222 H       
  58 H58          -14.2416    -6.6861    -0.3722 H       
@<TRIPOS>BOND
   1    1    2 ar
   2    1    7 1
   3    1    6 ar
   4    2    3 ar
   5    2   31 1
   6    3    4 ar
   7    3   32 1
   8    4    5 ar
   9    4    9 1
  10    5    6 ar
  11    5   33 1
  12    6   34 1
  13    7    8 1
  14    8   35 1
  15    8   36 1
  16    8   37 1
  17    9   10 am
  18    9   38 1
  19   10   11 2
  20   10   12 1
  21   12   13 1
  22   12   16 2
  23   13   14 1
  24   13   17 1
  25   14   15 2
  26   15   16 1
  27   15   24 1
  28   16   39 1
  29   17   18 1
  30   17   40 1
  31   17   41 1
  32   18   19 ar
  33   18   23 ar
  34   19   20 ar
  35   19   42 1
  36   20   21 ar
  37   20   43 1
  38   21   22 ar
  39   21   44 1
  40   22   23 ar
  41   22   45 1
  42   23   46 1
  43   24   25 1
  44   25   26 1
  45   25   47 1
  46   25   48 1
  47   26   27 1
  48   26   49 1
  49   26   50 1
  50   27   28 1
  51   27   51 1
  52   27   52 1
  53   28   29 1
  54   28   30 1
  55   29   53 1
  56   29   54 1
  57   29   55 1
  58   30   56 1
  59   30   57 1
  60   30   58 1

#	End of record

