#	Name: ASD00071057
#	Creating user name:	WinNT
#	Creation time:	15. 06. 2019 18:30

#	Modifying user name:	WinNT
#	Modification time:	15. 06. 2019 18:30

#	Program:	/corina/corina34_cracker 3.40 0067  02.08.2006

@<TRIPOS>MOLECULE
ASD00071057
  40   42    0    0    0
SMALL
NO_CHARGES


@<TRIPOS>ATOM
   1 N1            -0.1105     1.1191     0.4100 N.ar    
   2 C2             0.0183    -0.1621     0.1345 C.ar    
   3 C3             1.2541    -0.7117    -0.2360 C.ar    
   4 C4             2.3549     0.0866    -0.3168 C.ar    
   5 C5             2.2098     1.4577    -0.0204 C.ar    
   6 C6             3.3035     2.3350    -0.0848 C.ar    
   7 C7             3.1334     3.6547     0.2064 C.ar    
   8 C8             1.8851     4.1517     0.5699 C.ar    
   9 C9             0.7901     3.3216     0.6442 C.ar    
  10 C10            0.9352     1.9510     0.3475 C.ar    
  11 N11           -1.0944    -0.9876     0.2131 N.pl3   
  12 C12            1.3642    -2.1828    -0.5438 C.3     
  13 C13            0.9999    -2.4229    -1.9862 C.ar    
  14 C14            1.9407    -2.2125    -2.9843 C.ar    
  15 C15            1.6022    -2.4344    -4.3110 C.ar    
  16 C16            0.3298    -2.8640    -4.6356 C.ar    
  17 C17           -0.6058    -3.0724    -3.6395 C.ar    
  18 C18           -0.2690    -2.8579    -2.3155 C.ar    
  19 O19            3.1914    -1.7895    -2.6625 O.3     
  20 C20            4.1077    -1.5938    -3.7414 C.3     
  21 O21           -0.4227     3.8195     1.0011 O.3     
  22 C22           -0.4914     5.2180     1.2868 C.3     
  23 H23            3.3144    -0.3202    -0.6002 H       
  24 H24            4.2785     1.9642    -0.3646 H       
  25 H25            3.9790     4.3246     0.1550 H       
  26 H26            1.7746     5.2018     0.7967 H       
  27 H27           -1.9722    -0.6049     0.3679 H       
  28 H28           -0.9944    -1.9472     0.1132 H       
  29 H29            2.3871    -2.5154    -0.3672 H       
  30 H30            0.6845    -2.7406     0.1003 H       
  31 H31            2.3326    -2.2710    -5.0897 H       
  32 H32            0.0658    -3.0369    -5.6685 H       
  33 H33           -1.6001    -3.4076    -3.8953 H       
  34 H34           -1.0002    -3.0260    -1.5387 H       
  35 H35            4.2450    -2.5336    -4.2764 H       
  36 H36            3.7107    -0.8421    -4.4235 H       
  37 H37            5.0664    -1.2567    -3.3472 H       
  38 H38            0.1770     5.4528     2.1152 H       
  39 H39           -0.1903     5.7841     0.4054 H       
  40 H40           -1.5132     5.4838     1.5577 H       
@<TRIPOS>BOND
   1    1    2 ar
   2    1   10 ar
   3    2    3 ar
   4    2   11 1
   5    3    4 ar
   6    3   12 1
   7    4    5 ar
   8    4   23 1
   9    5    6 ar
  10    5   10 ar
  11    6    7 ar
  12    6   24 1
  13    7    8 ar
  14    7   25 1
  15    8    9 ar
  16    8   26 1
  17    9   10 ar
  18    9   21 1
  19   11   27 1
  20   11   28 1
  21   12   13 1
  22   12   29 1
  23   12   30 1
  24   13   14 ar
  25   13   18 ar
  26   14   15 ar
  27   14   19 1
  28   15   16 ar
  29   15   31 1
  30   16   17 ar
  31   16   32 1
  32   17   18 ar
  33   17   33 1
  34   18   34 1
  35   19   20 1
  36   20   35 1
  37   20   36 1
  38   20   37 1
  39   21   22 1
  40   22   38 1
  41   22   39 1
  42   22   40 1

#	End of record

