#	Name: ASD01913431
#	Creating user name:	WinNT
#	Creation time:	15. 06. 2019 20:01

#	Modifying user name:	WinNT
#	Modification time:	15. 06. 2019 20:01

#	Program:	/corina/corina34_cracker 3.40 0067  02.08.2006

@<TRIPOS>MOLECULE
ASD01913431
  34   36    0    0    0
SMALL
NO_CHARGES


@<TRIPOS>ATOM
   1 C1             0.8874     0.0718    -1.0531 C.ar    
   2 C2             0.0350    -0.0088     0.0433 C.ar    
   3 C3             0.3922     0.6291     1.2227 C.ar    
   4 N4             1.5217     1.3031     1.3074 N.ar    
   5 C5             2.3516     1.3989     0.2869 C.ar    
   6 C6             2.0649     0.7903    -0.9204 C.ar    
   7 C7            -1.0631    -2.0518    -0.1414 C.ar    
   8 N8             0.1145    -2.6628    -0.2321 N.ar    
   9 C9             0.1905    -3.9750    -0.3261 C.ar    
  10 N10           -0.8850    -4.7355    -0.3345 N.ar    
  11 C11           -2.1003    -4.2001    -0.2475 C.ar    
  12 C12           -2.2233    -2.8178    -0.1467 C.ar    
  13 N13           -3.2302    -5.0098    -0.2576 N.am    
  14 C14           -3.1071    -6.3358    -0.4652 C.2     
  15 O15           -1.1311    -0.7020    -0.0396 O.3     
  16 C16           -4.3143    -7.1779    -0.6001 C.ar    
  17 C17           -4.1902    -8.5514    -0.8151 C.ar    
  18 C18           -5.3208    -9.3325    -0.9398 C.ar    
  19 C19           -6.5758    -8.7575    -0.8522 C.ar    
  20 C20           -6.7067    -7.3953    -0.6393 C.ar    
  21 C21           -5.5834    -6.6037    -0.5072 C.ar    
  22 O22           -2.0034    -6.8391    -0.5415 O.2     
  23 Cl23          -8.2862    -6.6830    -0.5314 Cl      
  24 H24            0.6397    -0.4174    -1.9835 H       
  25 H25           -0.2622     0.5730     2.0800 H       
  26 H26            3.2676     1.9605     0.3961 H       
  27 H27            2.7503     0.8740    -1.7508 H       
  28 H28            1.1624    -4.4402    -0.3987 H       
  29 H29           -3.1950    -2.3520    -0.0742 H       
  30 H30           -4.1071    -4.6205    -0.1152 H       
  31 H31           -3.2111    -9.0019    -0.8842 H       
  32 H32           -5.2256   -10.3952    -1.1066 H       
  33 H33           -7.4575    -9.3735    -0.9505 H       
  34 H34           -5.6861    -5.5415    -0.3412 H       
@<TRIPOS>BOND
   1    1    2 ar
   2    1    6 ar
   3    1   24 1
   4    2    3 ar
   5    2   15 1
   6    3    4 ar
   7    3   25 1
   8    4    5 ar
   9    5    6 ar
  10    5   26 1
  11    6   27 1
  12    7    8 ar
  13    7   12 ar
  14    7   15 1
  15    8    9 ar
  16    9   10 ar
  17    9   28 1
  18   10   11 ar
  19   11   12 ar
  20   11   13 1
  21   12   29 1
  22   13   14 am
  23   13   30 1
  24   14   16 1
  25   14   22 2
  26   16   17 ar
  27   16   21 ar
  28   17   18 ar
  29   17   31 1
  30   18   19 ar
  31   18   32 1
  32   19   20 ar
  33   19   33 1
  34   20   21 ar
  35   20   23 1
  36   21   34 1

#	End of record

