#	Name: ASD02562091
#	Creating user name:	WinNT
#	Creation time:	15. 06. 2019 20:25

#	Modifying user name:	WinNT
#	Modification time:	15. 06. 2019 20:25

#	Program:	/corina/corina34_cracker 3.40 0067  02.08.2006

@<TRIPOS>MOLECULE
ASD02562091
  49   52    0    0    0
SMALL
NO_CHARGES


@<TRIPOS>ATOM
   1 C1             0.3863     1.4594     1.1065 C.ar    
   2 C2             0.5074     0.0646     0.9822 C.ar    
   3 C3            -0.1528    -0.7474     1.9200 C.ar    
   4 N4            -0.8635    -0.1747     2.8858 N.ar    
   5 C5            -0.9506     1.1433     2.9665 C.ar    
   6 N6            -0.3405     1.9475     2.1056 N.ar    
   7 N7            -1.7019     1.7032     3.9887 N.pl3   
   8 N8             1.0158     2.3066     0.2100 N.pl3   
   9 C9            -2.4398     0.8836     4.8404 C.ar    
  10 C10            0.8455     3.6854     0.3173 C.ar    
  11 C11            1.9370     4.4990     0.6078 C.ar    
  12 C12           -2.6003     1.2367     6.1769 C.ar    
  13 C13           -3.3283     0.4291     7.0212 C.ar    
  14 C14           -3.9071    -0.7467     6.5344 C.ar    
  15 C15           -3.7443    -1.0981     5.1911 C.ar    
  16 C16           -3.0194    -0.2832     4.3512 C.ar    
  17 C17           -0.4145     4.2459     0.1280 C.ar    
  18 C18           -0.5870     5.6072     0.2322 C.ar    
  19 C19            0.5069     6.4285     0.5294 C.ar    
  20 C20            1.7733     5.8612     0.7142 C.ar    
  21 C21            3.2998     3.8871     0.8065 C.3     
  22 C22           -1.5914     3.3606    -0.1919 C.3     
  23 C23           -4.6647    -1.5895     7.4099 C.1     
  24 N24           -5.2657    -2.2580     8.1044 N.1     
  25 C25            0.3276     7.8832     0.6411 C.2     
  26 C26            1.3838     8.6735     0.9278 C.2     
  27 C27            1.2091    10.0907     1.0366 C.1     
  28 N28            1.0704    11.2149     1.1230 N.1     
  29 N29            1.1494    -0.7615     0.1205 N.2     
  30 C30            0.9305    -1.9979     0.4613 C.2     
  31 N31            0.1319    -2.0421     1.5665 N.pl3   
  32 H32           -1.7137     2.6654     4.1109 H       
  33 H33            1.5753     1.9403    -0.4926 H       
  34 H34           -2.1528     2.1451     6.5522 H       
  35 H35           -3.4518     0.7033     8.0584 H       
  36 H36           -4.1901    -2.0057     4.8118 H       
  37 H37           -2.8935    -0.5538     3.3132 H       
  38 H38           -1.5648     6.0413     0.0844 H       
  39 H39            2.6199     6.4913     0.9436 H       
  40 H40            3.8202     3.8408    -0.1501 H       
  41 H41            3.8740     4.4976     1.5034 H       
  42 H42            3.1907     2.8804     1.2100 H       
  43 H43           -2.1273     3.1224     0.7269 H       
  44 H44           -2.2603     3.8795    -0.8786 H       
  45 H45           -1.2379     2.4396    -0.6555 H       
  46 H46           -0.6492     8.3197     0.4938 H       
  47 H47            2.3606     8.2370     1.0751 H       
  48 H48            1.3225    -2.8617    -0.0550 H       
  49 H49           -0.1777    -2.8421     2.0193 H       
@<TRIPOS>BOND
   1    1    2 ar
   2    1    8 1
   3    1    6 ar
   4    2    3 ar
   5    2   29 1
   6    3    4 ar
   7    3   31 1
   8    4    5 ar
   9    5    6 ar
  10    5    7 1
  11    7    9 1
  12    7   32 1
  13    8   10 1
  14    8   33 1
  15    9   12 ar
  16    9   16 ar
  17   10   11 ar
  18   10   17 ar
  19   11   21 1
  20   11   20 ar
  21   12   13 ar
  22   12   34 1
  23   13   14 ar
  24   13   35 1
  25   14   15 ar
  26   14   23 1
  27   15   16 ar
  28   15   36 1
  29   16   37 1
  30   17   18 ar
  31   17   22 1
  32   18   19 ar
  33   18   38 1
  34   19   20 ar
  35   19   25 1
  36   20   39 1
  37   21   40 1
  38   21   41 1
  39   21   42 1
  40   22   43 1
  41   22   44 1
  42   22   45 1
  43   23   24 3
  44   25   26 2
  45   25   46 1
  46   26   27 1
  47   26   47 1
  48   27   28 3
  49   29   30 2
  50   30   31 1
  51   30   48 1
  52   31   49 1

#	End of record

