#	Name: ASD01410558
#	Creating user name:	WinNT
#	Creation time:	15. 06. 2019 19:18

#	Modifying user name:	WinNT
#	Modification time:	15. 06. 2019 19:18

#	Program:	/corina/corina34_cracker 3.40 0067  02.08.2006

@<TRIPOS>MOLECULE
ASD01410558
  82   85    0    0    0
SMALL
NO_CHARGES


@<TRIPOS>ATOM
   1 C1             2.8693     6.6283    -3.5581 C.ar    
   2 C2             3.7599     7.0536    -4.5340 C.ar    
   3 C3             4.7977     6.2235    -4.9095 C.ar    
   4 N4             4.9501     5.0372    -4.3529 N.ar    
   5 C5             4.1221     4.5967    -3.4197 C.ar    
   6 C6             3.0561     5.3785    -2.9934 C.ar    
   7 O7             4.3158     3.3698    -2.8744 O.3     
   8 C8             5.3058     2.5916    -3.3884 C.ar    
   9 C9             6.6253     2.7956    -2.9926 C.ar    
  10 C10            7.6386     2.0097    -3.5096 C.ar    
  11 C11            7.3459     1.0119    -4.4276 C.ar    
  12 C12            6.0175     0.8020    -4.8299 C.ar    
  13 C13            4.9987     1.5977    -4.2972 C.ar    
  14 F14            6.9168     3.7665    -2.0995 F       
  15 N15            8.3678     0.2202    -4.9494 N.am    
  16 C16            8.7008    -0.9363    -4.3428 C.2     
  17 C17            9.0798     0.6454    -6.1570 C.3     
  18 O18            9.5447    -1.6568    -4.8323 O.2     
  19 C19            8.0245    -1.3344    -3.0562 C.3     
  20 C20            3.5958     8.4064    -5.1773 C.3     
  21 C21            8.9342    -2.2841    -2.2744 C.3     
  22 C22            8.2476    -2.6882    -0.9683 C.3     
  23 C23            6.9260    -3.3919    -1.2833 C.3     
  24 C24            6.0163    -2.4421    -2.0651 C.3     
  25 C25            6.7029    -2.0380    -3.3713 C.3     
  26 C26            6.2394    -3.7960     0.0229 C.3     
  27 C27            8.3457     1.8281    -6.7921 C.3     
  28 O28            7.0625     1.4003    -7.2530 O.3     
  29 O29           11.2134    -0.0574    -5.2657 O.3     
  30 C30           10.5033     1.0675    -5.7878 C.3     
  31 C31            6.2907     2.4348    -7.8664 C.3     
  32 C32           12.5611     0.2304    -4.8879 C.3     
  33 C33            4.7102     9.4141    -4.8883 C.3     
  34 O34            4.6963     9.7547    -3.5006 O.3     
  35 C35            2.9381     8.4571    -6.5578 C.3     
  36 C36            2.1733     8.9498    -5.3267 C.3     
  37 C37            5.7037    10.6951    -3.1228 C.3     
  38 C38            2.1157     4.8729    -1.9298 C.3     
  39 F39            1.1343     5.8376    -1.6782 F       
  40 F40            1.5072     3.6920    -2.3684 F       
  41 F41            2.8327     4.6198    -0.7555 F       
  42 C42            5.6977    -0.2551    -5.8040 C.2     
  43 O43            6.5687    -1.0099    -6.1894 O.2     
  44 O44            4.4392    -0.3854    -6.2682 O.3     
  45 H45            2.0518     7.2600    -3.2434 H       
  46 H46            5.4933     6.5496    -5.6686 H       
  47 H47            8.6598     2.1731    -3.1984 H       
  48 H48            3.9746     1.4415    -4.6025 H       
  49 H49            9.1184    -0.1815    -6.8662 H       
  50 H50            7.8287    -0.4444    -2.4582 H       
  51 H51            9.1300    -3.1742    -2.8724 H       
  52 H52            9.8757    -1.7828    -2.0500 H       
  53 H53            8.8957    -3.3649    -0.4113 H       
  54 H54            8.0518    -1.7982    -0.3702 H       
  55 H55            7.1218    -4.2819    -1.8813 H       
  56 H56            5.0748    -2.9434    -2.2895 H       
  57 H57            5.8204    -1.5521    -1.4671 H       
  58 H58            6.0548    -1.3614    -3.9283 H       
  59 H59            6.8987    -2.9280    -3.9693 H       
  60 H60            6.0436    -2.9060     0.6209 H       
  61 H61            5.2979    -4.2973    -0.2016 H       
  62 H62            6.8875    -4.4726     0.5798 H       
  63 H63            8.2210     2.6183    -6.0517 H       
  64 H64            8.9263     2.2068    -7.6333 H       
  65 H65           11.0141     1.4391    -6.6762 H       
  66 H66           10.4652     1.8545    -5.0347 H       
  67 H67            6.8287     2.8261    -8.7299 H       
  68 H68            5.3315     2.0299    -8.1888 H       
  69 H69            6.1233     3.2376    -7.1483 H       
  70 H70           13.1146     0.5846    -5.7576 H       
  71 H71           12.5657     1.0001    -4.1161 H       
  72 H72           13.0312    -0.6741    -4.5018 H       
  73 H73            5.6737     8.9737    -5.1447 H       
  74 H74            4.5512    10.3126    -5.4845 H       
  75 H75            3.2990     9.2086    -7.2600 H       
  76 H76            2.6241     7.5119    -7.0007 H       
  77 H77            1.3562     8.3287    -4.9597 H       
  78 H78            2.0315    10.0252    -5.2195 H       
  79 H79            6.6879    10.2813    -3.3426 H       
  80 H80            5.5653    11.6202    -3.6824 H       
  81 H81            5.6264    10.9012    -2.0552 H       
  82 H82            4.2777    -1.0940    -6.9062 H       
@<TRIPOS>BOND
   1    1    2 ar
   2    1    6 ar
   3    1   45 1
   4    2    3 ar
   5    2   20 1
   6    3    4 ar
   7    3   46 1
   8    4    5 ar
   9    5    6 ar
  10    5    7 1
  11    6   38 1
  12    7    8 1
  13    8    9 ar
  14    8   13 ar
  15    9   10 ar
  16    9   14 1
  17   10   11 ar
  18   10   47 1
  19   11   12 ar
  20   11   15 1
  21   12   13 ar
  22   12   42 1
  23   13   48 1
  24   15   16 am
  25   15   17 1
  26   16   18 2
  27   16   19 1
  28   17   27 1
  29   17   30 1
  30   17   49 1
  31   19   21 1
  32   19   25 1
  33   19   50 1
  34   20   33 1
  35   20   35 1
  36   20   36 1
  37   21   22 1
  38   21   51 1
  39   21   52 1
  40   22   23 1
  41   22   53 1
  42   22   54 1
  43   23   24 1
  44   23   26 1
  45   23   55 1
  46   24   25 1
  47   24   56 1
  48   24   57 1
  49   25   58 1
  50   25   59 1
  51   26   60 1
  52   26   61 1
  53   26   62 1
  54   27   28 1
  55   27   63 1
  56   27   64 1
  57   28   31 1
  58   29   30 1
  59   29   32 1
  60   30   65 1
  61   30   66 1
  62   31   67 1
  63   31   68 1
  64   31   69 1
  65   32   70 1
  66   32   71 1
  67   32   72 1
  68   33   34 1
  69   33   73 1
  70   33   74 1
  71   34   37 1
  72   35   36 1
  73   35   75 1
  74   35   76 1
  75   36   77 1
  76   36   78 1
  77   37   79 1
  78   37   80 1
  79   37   81 1
  80   38   39 1
  81   38   40 1
  82   38   41 1
  83   42   43 2
  84   42   44 1
  85   44   82 1

#	End of record

