#	Name: ASD08150043
#	Creating user name:	WinNT
#	Creation time:	15. 06. 2019 21:15

#	Modifying user name:	WinNT
#	Modification time:	15. 06. 2019 21:15

#	Program:	/corina/corina34_cracker 3.40 0067  02.08.2006

@<TRIPOS>MOLECULE
ASD08150043
  45   48    0    0    0
SMALL
NO_CHARGES


@<TRIPOS>ATOM
   1 N1            -0.0155     1.2942     0.0092 N.2     
   2 C2             0.0021    -0.0041     0.0020 C.2     
   3 N3             1.1467    -0.7358    -0.0128 N.am    
   4 C4             2.3546    -0.1253    -0.0211 C.2     
   5 C5             2.3699     1.3451    -0.0133 C.ar    
   6 C6             3.5600     2.0697    -0.0212 C.ar    
   7 C7             3.5163     3.4466    -0.0139 C.ar    
   8 C8             2.2987     4.1146     0.0017 C.ar    
   9 C9             1.1117     3.4173     0.0102 C.ar    
  10 C10            1.1299     2.0210     0.0021 C.ar    
  11 O11            3.3880    -0.7684    -0.0340 O.2     
  12 C12            1.0728    -2.1989    -0.0195 C.3     
  13 C13            1.0330    -2.7009    -1.4643 C.3     
  14 C14            0.9558    -4.2290    -1.4712 C.3     
  15 C15            0.9161    -4.7310    -2.9160 C.3     
  16 C16           -1.3147    -0.7369     0.0112 C.3     
  17 N17           -3.9886     1.5415     0.7810 N.2     
  18 C18           -3.0698     0.6890     1.1311 C.2     
  19 N19           -2.4130     0.2325     0.0273 N.pl3   
  20 C20           -2.9687     0.8479    -1.0658 C.ar    
  21 N21           -2.7541     0.8057    -2.3766 N.ar    
  22 C22           -3.4765     1.5374    -3.1987 C.ar    
  23 N23           -4.4364     2.3396    -2.7761 N.ar    
  24 C24           -4.7235     2.4479    -1.4829 C.ar    
  25 C25           -3.9798     1.6861    -0.5660 C.ar    
  26 N26           -5.7312     3.2918    -1.0496 N.pl3   
  27 H27            4.5098     1.5557    -0.0326 H       
  28 H28            4.4367     4.0115    -0.0200 H       
  29 H29            2.2828     5.1944     0.0077 H       
  30 H30            0.1710     3.9476     0.0224 H       
  31 H31            1.9483    -2.6092     0.4837 H       
  32 H32            0.1707    -2.5195     0.5015 H       
  33 H33            0.1575    -2.2906    -1.9675 H       
  34 H34            1.9351    -2.3803    -1.9853 H       
  35 H35            1.8313    -4.6393    -0.9680 H       
  36 H36            0.0537    -4.5496    -0.9502 H       
  37 H37            0.0406    -4.3207    -3.4192 H       
  38 H38            1.8182    -4.4104    -3.4370 H       
  39 H39            0.8611    -5.8196    -2.9210 H       
  40 H40           -1.3912    -1.3578    -0.8814 H       
  41 H41           -1.3735    -1.3673     0.8984 H       
  42 H42           -2.8587     0.3877     2.1465 H       
  43 H43           -3.2763     1.4797    -4.2584 H       
  44 H44           -6.2374     3.8128    -1.6923 H       
  45 H45           -5.9313     3.3621    -0.1030 H       
@<TRIPOS>BOND
   1    1    2 2
   2    1   10 1
   3    2    3 1
   4    2   16 1
   5    3    4 am
   6    3   12 1
   7    4    5 1
   8    4   11 2
   9    5    6 ar
  10    5   10 ar
  11    6    7 ar
  12    6   27 1
  13    7    8 ar
  14    7   28 1
  15    8    9 ar
  16    8   29 1
  17    9   10 ar
  18    9   30 1
  19   12   13 1
  20   12   31 1
  21   12   32 1
  22   13   14 1
  23   13   33 1
  24   13   34 1
  25   14   15 1
  26   14   35 1
  27   14   36 1
  28   15   37 1
  29   15   38 1
  30   15   39 1
  31   16   19 1
  32   16   40 1
  33   16   41 1
  34   17   18 2
  35   17   25 1
  36   18   19 1
  37   18   42 1
  38   19   20 1
  39   20   21 ar
  40   20   25 ar
  41   21   22 ar
  42   22   23 ar
  43   22   43 1
  44   23   24 ar
  45   24   25 ar
  46   24   26 1
  47   26   44 1
  48   26   45 1

#	End of record

