#	Name: ASD09740526
#	Creating user name:	WinNT
#	Creation time:	15. 06. 2019 21:23

#	Modifying user name:	WinNT
#	Modification time:	15. 06. 2019 21:23

#	Program:	/corina/corina34_cracker 3.40 0067  02.08.2006

@<TRIPOS>MOLECULE
ASD09740526
  60   64    0    0    0
SMALL
NO_CHARGES


@<TRIPOS>ATOM
   1 N1             0.8534     1.9303    -0.4816 N.2     
   2 C2             0.7542     0.6446    -0.2523 C.2     
   3 C3             2.0342     2.3919    -0.7849 C.2     
   4 S4             3.1923     1.0647    -0.7914 S.3     
   5 C5             1.9035    -0.0573    -0.3593 C.2     
   6 C6             2.3509     3.8051    -1.0778 C.ar    
   7 C7             1.3438     4.7666    -1.0410 C.ar    
   8 C8             3.6625     4.1782    -1.3863 C.ar    
   9 C9             3.9636     5.4950    -1.6598 C.ar    
  10 C10            2.9675     6.4604    -1.6307 C.ar    
  11 C11            1.6485     6.0984    -1.3177 C.ar    
  12 O12            3.2698     7.7552    -1.9000 O.3     
  13 C13            4.6501     8.0738    -2.0873 C.3     
  14 C14            5.0433     7.8030    -3.5410 C.3     
  15 C15            4.8812     9.5511    -1.7633 C.3     
  16 C16            0.6183     7.0925    -1.2874 C.1     
  17 N17           -0.1989     7.8812    -1.2633 N.1     
  18 C18            2.0540    -1.5127    -0.1504 C.ar    
  19 C19            2.7114    -2.2926    -1.1063 C.ar    
  20 C20            2.8485    -3.6507    -0.9053 C.ar    
  21 C21            2.3350    -4.2356     0.2418 C.ar    
  22 C22            1.6836    -3.4686     1.1900 C.ar    
  23 C23            1.5452    -2.1090     1.0036 C.ar    
  24 C24            3.3501    -1.9012    -2.4214 C.3     
  25 C25            4.2695    -3.0846    -2.7915 C.3     
  26 C26            3.5893    -4.2687    -2.0722 C.3     
  27 N27            4.5993    -5.2196    -1.5888 N.3     
  28 C28            3.9681    -6.4638    -1.1117 C.3     
  29 C29            4.5905    -7.6278    -1.9110 C.3     
  30 C30            5.9421    -7.0378    -2.3926 C.3     
  31 C31            5.5614    -5.5600    -2.6585 C.3     
  32 N32            6.3936    -7.6951    -3.6263 N.3     
  33 H33           -0.1843     0.1765     0.0056 H       
  34 H34            0.3306     4.4814    -0.7993 H       
  35 H35            4.4427     3.4318    -1.4099 H       
  36 H36            4.9789     5.7766    -1.8974 H       
  37 H37            5.2584     7.4572    -1.4255 H       
  38 H38            4.4351     8.4196    -4.2028 H       
  39 H39            6.0963     8.0460    -3.6838 H       
  40 H40            4.8787     6.7505    -3.7718 H       
  41 H41            4.6011     9.7440    -0.7277 H       
  42 H42            5.9341     9.7941    -1.9061 H       
  43 H43            4.2730    10.1677    -2.4251 H       
  44 H44            2.4442    -5.2989     0.3959 H       
  45 H45            1.2867    -3.9340     2.0801 H       
  46 H46            1.0367    -1.5095     1.7443 H       
  47 H47            2.5862    -1.7621    -3.1863 H       
  48 H48            3.9362    -0.9901    -2.3009 H       
  49 H49            4.2830    -3.2423    -3.8699 H       
  50 H50            5.2778    -2.9263    -2.4091 H       
  51 H51            2.8897    -4.7673    -2.7430 H       
  52 H52            4.1668    -6.5962    -0.0482 H       
  53 H53            2.8932    -6.4256    -1.2884 H       
  54 H54            4.7547    -8.4925    -1.2680 H       
  55 H55            3.9609    -7.8921    -2.7606 H       
  56 H56            6.7002    -7.1115    -1.6128 H       
  57 H57            5.0921    -5.4592    -3.6371 H       
  58 H58            6.4434    -4.9230    -2.5923 H       
  59 H59            6.5439    -8.6815    -3.4763 H       
  60 H60            5.7399    -7.5393    -4.3790 H       
@<TRIPOS>BOND
   1    1    2 1
   2    1    3 2
   3    2    5 2
   4    2   33 1
   5    3    4 1
   6    3    6 1
   7    4    5 1
   8    5   18 1
   9    6    7 ar
  10    6    8 ar
  11    7   11 ar
  12    7   34 1
  13    8    9 ar
  14    8   35 1
  15    9   10 ar
  16    9   36 1
  17   10   11 ar
  18   10   12 1
  19   11   16 1
  20   12   13 1
  21   13   14 1
  22   13   15 1
  23   13   37 1
  24   14   38 1
  25   14   39 1
  26   14   40 1
  27   15   41 1
  28   15   42 1
  29   15   43 1
  30   16   17 3
  31   18   19 ar
  32   18   23 ar
  33   19   20 ar
  34   19   24 1
  35   20   21 ar
  36   20   26 1
  37   21   22 ar
  38   21   44 1
  39   22   23 ar
  40   22   45 1
  41   23   46 1
  42   24   25 1
  43   24   47 1
  44   24   48 1
  45   25   26 1
  46   25   49 1
  47   25   50 1
  48   26   27 1
  49   26   51 1
  50   27   28 1
  51   27   31 1
  52   28   29 1
  53   28   52 1
  54   28   53 1
  55   29   30 1
  56   29   54 1
  57   29   55 1
  58   30   31 1
  59   30   32 1
  60   30   56 1
  61   31   57 1
  62   31   58 1
  63   32   59 1
  64   32   60 1

#	End of record

