#	Name: ASD08178294
#	Creating user name:	WinNT
#	Creation time:	15. 06. 2019 21:18

#	Modifying user name:	WinNT
#	Modification time:	15. 06. 2019 21:18

#	Program:	/corina/corina34_cracker 3.40 0067  02.08.2006

@<TRIPOS>MOLECULE
ASD08178294
  93   97    0    0    0
SMALL
NO_CHARGES


@<TRIPOS>ATOM
   1 N1            -0.0168     1.3902     0.0097 N.am    
   2 C2            -0.2173     0.0103     0.0231 C.ar    
   3 C3             0.8683    -0.8557    -0.0926 C.ar    
   4 N4            -1.4399    -0.4832     0.1513 N.ar    
   5 N5            -1.6667    -1.7463     0.1686 N.ar    
   6 C6            -0.7002    -2.6368     0.0602 C.ar    
   7 C7             0.6159    -2.2190    -0.0733 C.ar    
   8 C8            -1.0247    -4.1082     0.0874 C.3     
   9 C9            -1.8115    -4.4335     1.3586 C.3     
  10 C10           -2.1410    -5.9273     1.3862 C.3     
  11 C11           -2.9278    -6.2527     2.6574 C.3     
  12 C12           -3.2523    -7.7241     2.6845 C.2     
  13 N13           -2.5213    -8.6581     3.2049 N.2     
  14 N14           -2.9690    -9.8359     3.1257 N.2     
  15 C15           -4.1130   -10.0077     2.5350 C.2     
  16 S16           -4.6995    -8.4828     2.0200 S.3     
  17 N17           -4.7575   -11.2270     2.3553 N.am    
  18 C18           -4.1929   -12.3617     2.8139 C.2     
  19 C19           -4.8913   -13.6828     2.6192 C.3     
  20 O20           -3.1229   -12.3195     3.3832 O.2     
  21 C21           -4.0568   -14.7853     3.2184 C.ar    
  22 C22           -1.0750     2.2250     0.0167 C.2     
  23 C23           -0.8601     3.7130     0.1198 C.3     
  24 O24           -2.2000     1.7786    -0.0599 O.2     
  25 C25           -2.1935     4.4152     0.1067 C.ar    
  26 C26           -4.2371   -15.1473     4.5402 C.ar    
  27 C27           -3.4725   -16.1586     5.0908 C.ar    
  28 C28           -2.5259   -16.8090     4.3179 C.ar    
  29 C29           -2.3461   -16.4455     2.9938 C.ar    
  30 C30           -3.1153   -15.4377     2.4441 C.ar    
  31 C31           -2.8565     4.6619     1.2943 C.ar    
  32 C32           -4.0796     5.3059     1.2822 C.ar    
  33 C33           -4.6395     5.7036     0.0825 C.ar    
  34 C34           -3.9760     5.4577    -1.1051 C.ar    
  35 C35           -2.7509     4.8175    -1.0926 C.ar    
  36 C36           -1.3157   -17.1522     2.1513 C.3     
  37 F37           -1.7777   -17.7974     4.8551 F       
  38 N38            0.0264   -16.6898     2.5289 N.3     
  39 C39            1.0646   -17.5196     1.9033 C.3     
  40 C40            2.4401   -16.9000     2.1722 C.3     
  41 N41            2.5895   -16.7056     3.6224 N.am    
  42 C42            1.5191   -16.0007     4.3439 C.3     
  43 C43            0.1799   -16.6557     3.9895 C.3     
  44 C44            3.6786   -17.1610     4.2728 C.2     
  45 O45            3.7971   -16.9733     5.6008 O.3     
  46 O46            4.5535   -17.7410     3.6607 O.2     
  47 C47            4.9965   -17.4903     6.2351 C.3     
  48 C48            6.2278   -16.8272     5.6147 C.3     
  49 C49            4.9531   -17.1845     7.7336 C.3     
  50 C50            5.0723   -19.0040     6.0255 C.3     
  51 H51            0.8842     1.7494    -0.0006 H       
  52 H52            1.8745    -0.4770    -0.1944 H       
  53 H53            1.4199    -2.9345    -0.1636 H       
  54 H54           -1.6240    -4.3643    -0.7864 H       
  55 H55           -0.0997    -4.6845     0.0751 H       
  56 H56           -1.2123    -4.1774     2.2323 H       
  57 H57           -2.7366    -3.8571     1.3708 H       
  58 H58           -2.7402    -6.1835     0.5124 H       
  59 H59           -1.2159    -6.5037     1.3739 H       
  60 H60           -2.3286    -5.9966     3.5311 H       
  61 H61           -3.8529    -5.6763     2.6696 H       
  62 H62           -5.6133   -11.2607     1.9000 H       
  63 H63           -5.8640   -13.6554     3.1104 H       
  64 H64           -5.0274   -13.8683     1.5537 H       
  65 H65           -0.3385     3.9413     1.0493 H       
  66 H66           -0.2620     4.0532    -0.7255 H       
  67 H67           -4.9754   -14.6395     5.1430 H       
  68 H68           -3.6134   -16.4411     6.1236 H       
  69 H69           -2.9752   -15.1540     1.4115 H       
  70 H70           -2.4191     4.3512     2.2316 H       
  71 H71           -4.5979     5.4981     2.2100 H       
  72 H72           -5.5954     6.2062     0.0730 H       
  73 H73           -4.4136     5.7681    -2.0424 H       
  74 H74           -2.2326     4.6254    -2.0204 H       
  75 H75           -1.3887   -18.2275     2.3141 H       
  76 H76           -1.4934   -16.9313     1.0988 H       
  77 H77            1.0298   -18.5245     2.3242 H       
  78 H78            0.8918   -17.5690     0.8282 H       
  79 H79            3.2204   -17.5694     1.8102 H       
  80 H80            2.5141   -15.9384     1.6643 H       
  81 H81            1.6905   -16.0756     5.4178 H       
  82 H82            1.5046   -14.9526     4.0448 H       
  83 H83           -0.6345   -16.0786     4.4275 H       
  84 H84            0.1574   -17.6726     4.3814 H       
  85 H85            6.1738   -15.7489     5.7641 H       
  86 H86            7.1282   -17.2153     6.0909 H       
  87 H87            6.2587   -17.0451     4.5471 H       
  88 H88            4.0759   -17.6570     8.1756 H       
  89 H89            5.8535   -17.5726     8.2098 H       
  90 H90            4.8991   -16.1062     7.8830 H       
  91 H91            5.1032   -19.2219     4.9579 H       
  92 H92            5.9727   -19.3921     6.5017 H       
  93 H93            4.1950   -19.4764     6.4675 H       
@<TRIPOS>BOND
   1    1    2 1
   2    1   22 am
   3    1   51 1
   4    2    3 ar
   5    2    4 ar
   6    3    7 ar
   7    3   52 1
   8    4    5 ar
   9    5    6 ar
  10    6    7 ar
  11    6    8 1
  12    7   53 1
  13    8    9 1
  14    8   54 1
  15    8   55 1
  16    9   10 1
  17    9   56 1
  18    9   57 1
  19   10   11 1
  20   10   58 1
  21   10   59 1
  22   11   12 1
  23   11   60 1
  24   11   61 1
  25   12   13 2
  26   12   16 1
  27   13   14 1
  28   14   15 2
  29   15   16 1
  30   15   17 1
  31   17   18 am
  32   17   62 1
  33   18   19 1
  34   18   20 2
  35   19   21 1
  36   19   63 1
  37   19   64 1
  38   21   26 ar
  39   21   30 ar
  40   22   23 1
  41   22   24 2
  42   23   25 1
  43   23   65 1
  44   23   66 1
  45   25   31 ar
  46   25   35 ar
  47   26   27 ar
  48   26   67 1
  49   27   28 ar
  50   27   68 1
  51   28   29 ar
  52   28   37 1
  53   29   30 ar
  54   29   36 1
  55   30   69 1
  56   31   32 ar
  57   31   70 1
  58   32   33 ar
  59   32   71 1
  60   33   34 ar
  61   33   72 1
  62   34   35 ar
  63   34   73 1
  64   35   74 1
  65   36   38 1
  66   36   75 1
  67   36   76 1
  68   38   39 1
  69   38   43 1
  70   39   40 1
  71   39   77 1
  72   39   78 1
  73   40   41 1
  74   40   79 1
  75   40   80 1
  76   41   42 1
  77   41   44 am
  78   42   43 1
  79   42   81 1
  80   42   82 1
  81   43   83 1
  82   43   84 1
  83   44   45 1
  84   44   46 2
  85   45   47 1
  86   47   48 1
  87   47   49 1
  88   47   50 1
  89   48   85 1
  90   48   86 1
  91   48   87 1
  92   49   88 1
  93   49   89 1
  94   49   90 1
  95   50   91 1
  96   50   92 1
  97   50   93 1

#	End of record

