#	Name: ASD05430615
#	Creating user name:	WinNT
#	Creation time:	15. 06. 2019 21:00

#	Modifying user name:	WinNT
#	Modification time:	15. 06. 2019 21:00

#	Program:	/corina/corina34_cracker 3.40 0067  02.08.2006

@<TRIPOS>MOLECULE
ASD05430615
  34   35    0    0    0
SMALL
NO_CHARGES


@<TRIPOS>ATOM
   1 C1            -0.0168     1.3886     0.0097 C.ar    
   2 C2             0.0021    -0.0041     0.0020 C.ar    
   3 C3            -1.1919    -0.7103     0.0101 C.ar    
   4 C4            -2.3955    -0.0318     0.0257 C.ar    
   5 C5            -2.4137     1.3511     0.0333 C.ar    
   6 C6            -1.2283     2.0616     0.0307 C.ar    
   7 C7            -3.7297     2.0851     0.0499 C.3     
   8 C8            -4.5384     1.7104    -1.1937 C.3     
   9 C9            -4.5145     1.6970     1.3046 C.3     
  10 O10            1.1500     2.0859     0.0023 O.3     
  11 C11            1.0538     3.5116     0.0109 C.3     
  12 N12            1.2254    -0.6908    -0.0143 N.pl3   
  13 C13            1.4018    -2.0261    -0.0233 C.2     
  14 N14            2.5098    -0.1229    -0.0307 N.2     
  15 C15            3.3617    -1.1149    -0.0432 C.2     
  16 N16            2.6885    -2.2647    -0.0386 N.2     
  17 C17            4.8625    -0.9795    -0.0630 C.3     
  18 H18           -1.1808    -1.7902     0.0038 H       
  19 H19           -3.3243    -0.5828     0.0316 H       
  20 H20           -1.2460     3.1414     0.0366 H       
  21 H21           -3.5464     3.1596     0.0539 H       
  22 H22           -4.7217     0.6359    -1.1978 H       
  23 H23           -5.4903     2.2413    -1.1818 H       
  24 H24           -3.9793     1.9869    -2.0876 H       
  25 H25           -4.6978     0.6225     1.3006 H       
  26 H26           -3.9384     1.9639     2.1906 H       
  27 H27           -5.4664     2.2279     1.3165 H       
  28 H28            2.0546     3.9434     0.0036 H       
  29 H29            0.5082     3.8443    -0.8722 H       
  30 H30            0.5252     3.8347     0.9077 H       
  31 H31            0.6185    -2.7697    -0.0186 H       
  32 H32            5.2380    -0.9481     0.9598 H       
  33 H33            5.2974    -1.8327    -0.5836 H       
  34 H34            5.1375    -0.0599    -0.5795 H       
@<TRIPOS>BOND
   1    1    2 ar
   2    1   10 1
   3    1    6 ar
   4    2    3 ar
   5    2   12 1
   6    3    4 ar
   7    3   18 1
   8    4    5 ar
   9    4   19 1
  10    5    6 ar
  11    5    7 1
  12    6   20 1
  13    7    8 1
  14    7    9 1
  15    7   21 1
  16    8   22 1
  17    8   23 1
  18    8   24 1
  19    9   25 1
  20    9   26 1
  21    9   27 1
  22   10   11 1
  23   11   28 1
  24   11   29 1
  25   11   30 1
  26   12   13 1
  27   12   14 1
  28   13   16 2
  29   13   31 1
  30   14   15 2
  31   15   16 1
  32   15   17 1
  33   17   32 1
  34   17   33 1
  35   17   34 1

#	End of record

