#	Name: ASD00460020
#	Creating user name:	WinNT
#	Creation time:	15. 06. 2019 18:36

#	Modifying user name:	WinNT
#	Modification time:	15. 06. 2019 18:36

#	Program:	/corina/corina34_cracker 3.40 0067  02.08.2006

@<TRIPOS>MOLECULE
ASD00460020
 146  144    0    0    0
SMALL
NO_CHARGES


@<TRIPOS>ATOM
   1 C1            -0.0187     1.5258     0.0104 C.3     
   2 C2             0.0021    -0.0041     0.0020 C.3     
   3 H3            -1.0205    -0.3814     0.0098 H       
   4 C4             0.7309    -0.5033     1.2229 C.2     
   5 O5             1.7253    -1.1865     1.0985 O.2     
   6 N6             0.2778    -0.1906     2.4531 N.am    
   7 C7             0.9864    -0.6759     3.6400 C.3     
   8 H8             1.3902    -1.6686     3.4414 H       
   9 C9             0.0153    -0.7470     4.8201 C.3     
  10 C10           -1.0601    -1.7969     4.5332 C.3     
  11 C11           -2.0312    -1.8680     5.7134 C.3     
  12 N12           -3.0608    -2.8733     5.4386 N.pl3   
  13 C13           -4.0496    -3.1148     6.3628 C.2     
  14 N14           -4.0710    -2.4495     7.4833 N.2     
  15 N15           -5.0159    -4.0582     6.1049 N.pl3   
  16 C16            2.1134     0.2675     3.9729 C.2     
  17 O17            2.3058     1.2487     3.2865 O.2     
  18 N18            2.9075     0.0210     5.0336 N.am    
  19 N19            0.6878    -0.4765    -1.2033 N.am    
  20 C20            0.0062    -0.6081    -2.3585 C.2     
  21 O21           -1.1748    -0.3355    -2.4003 O.2     
  22 C22            0.7116    -1.0941    -3.5984 C.3     
  23 H23            1.5220    -0.4092    -3.8474 H       
  24 C24            1.2835    -2.4905    -3.3456 C.3     
  25 C25            2.1049    -2.9325    -4.5584 C.3     
  26 C26            2.6769    -4.3289    -4.3055 C.3     
  27 N27            3.4633    -4.7521    -5.4668 N.pl3   
  28 C28            4.0785    -5.9816    -5.4693 C.2     
  29 N29            3.9619    -6.7707    -4.4385 N.2     
  30 N30            4.8165    -6.3787    -6.5591 N.pl3   
  31 N31           -0.2397    -1.1502    -4.7112 N.am    
  32 C32            0.2024    -1.0580    -5.9810 C.2     
  33 O33            1.3878    -0.9286    -6.2025 O.2     
  34 C34           -0.7761    -1.1157    -7.1256 C.3     
  35 H35           -1.3088    -2.0663    -7.1007 H       
  36 C36           -1.7778     0.0338    -6.9987 C.3     
  37 C37           -2.8444    -0.0966    -8.0878 C.3     
  38 C38           -3.8461     1.0529    -7.9608 C.3     
  39 N39           -4.8675     0.9281    -9.0037 N.pl3   
  40 C40           -5.8800     1.8542    -9.0885 C.2     
  41 N41           -6.7887     1.7431   -10.0164 N.2     
  42 N42           -5.9342     2.8974    -8.1947 N.pl3   
  43 N43           -0.0522    -0.9948    -8.3935 N.am    
  44 C44           -0.5824    -1.5033    -9.5234 C.2     
  45 O45           -1.6588    -2.0611    -9.4906 O.2     
  46 C46            0.1623    -1.3789   -10.8277 C.3     
  47 H47            0.3151    -0.3249   -11.0597 H       
  48 C48            1.5186    -2.0769   -10.7091 C.3     
  49 C49            2.3253    -1.8446   -11.9882 C.3     
  50 C50            3.6816    -2.5426   -11.8697 C.3     
  51 N51            4.4541    -2.3201   -13.0944 N.pl3   
  52 C52            5.7141    -2.8557   -13.2194 C.2     
  53 N53            6.4013    -2.6578   -14.3091 N.2     
  54 N54            6.2492    -3.6002   -12.1949 N.pl3   
  55 N55           -0.6179    -2.0063   -11.8972 N.am    
  56 C56           -0.4486    -1.6122   -13.1749 C.2     
  57 O57            0.3496    -0.7382   -13.4392 O.2     
  58 C58           -1.2512    -2.2575   -14.2751 C.3     
  59 H59           -1.0406    -3.3267   -14.2992 H       
  60 C60           -2.7427    -2.0372   -14.0149 C.3     
  61 N61           -0.8862    -1.6588   -15.5614 N.am    
  62 C62           -1.0562    -2.3565   -16.7019 C.2     
  63 O63           -1.5113    -3.4800   -16.6634 O.2     
  64 C64           -0.6808    -1.7406   -18.0251 C.3     
  65 H65           -0.9729    -0.6905   -18.0330 H       
  66 C66            0.8317    -1.8508   -18.2281 C.3     
  67 S67            1.3027    -0.9804   -19.7484 S.3     
  68 S68            1.0158     0.9897   -19.2596 S.3     
  69 C69            2.5748     1.4402   -18.4490 C.3     
  70 C70            3.6969     1.4807   -19.4883 C.3     
  71 H71            3.4578     2.2201   -20.2526 H       
  72 C72            4.9921     1.8550   -18.8149 C.2     
  73 O73            5.7947     0.9979   -18.5303 O.2     
  74 O74            5.2540     3.1405   -18.5313 O.3     
  75 N75            3.8340     0.1580   -20.1126 N.3     
  76 N76           -1.3715    -2.4477   -19.1064 N.am    
  77 C77           -1.1629    -3.7665   -19.2902 C.2     
  78 O78           -0.4034    -4.3678   -18.5605 O.2     
  79 C79           -1.8733    -4.4939   -20.4025 C.3     
  80 H80            1.0039     1.9031     0.0027 H       
  81 H81           -0.5459     1.8868    -0.8726 H       
  82 H82           -0.5289     1.8773     0.9072 H       
  83 H83           -0.5174     0.3558     2.5526 H       
  84 H84            0.5603    -1.0225     5.7230 H       
  85 H85           -0.4555     0.2257     4.9624 H       
  86 H86           -1.6051    -1.5214     3.6303 H       
  87 H87           -0.5893    -2.7696     4.3909 H       
  88 H88           -1.4862    -2.1435     6.6162 H       
  89 H89           -2.5019    -0.8953     5.8557 H       
  90 H90           -3.0449    -3.3685     4.6047 H       
  91 H91           -4.7687    -2.6199     8.1354 H       
  92 H92           -5.0000    -4.5534     5.2710 H       
  93 H93           -5.7135    -4.2287     6.7569 H       
  94 H94            2.7536    -0.7637     5.5827 H       
  95 H95            3.6329     0.6282     5.2480 H       
  96 H96            1.6324    -0.6946    -1.1699 H       
  97 H97            1.9227    -2.4670    -2.4629 H       
  98 H98            0.4667    -3.1939    -3.1840 H       
  99 H99            1.4658    -2.9560    -5.4410 H       
 100 H100           2.9217    -2.2291    -4.7199 H       
 101 H101           3.3160    -4.3053    -3.4229 H       
 102 H102           1.8600    -5.0323    -4.1440 H       
 103 H103           3.5501    -4.1648    -6.2339 H       
 104 H104           4.3959    -7.6382    -4.4403 H       
 105 H105           4.9033    -5.7915    -7.3262 H       
 106 H106           5.2506    -7.2462    -6.5609 H       
 107 H107          -1.1877    -1.2537    -4.5340 H       
 108 H108          -2.2529    -0.0049    -6.0184 H       
 109 H109          -1.2565     0.9843    -7.1125 H       
 110 H110          -2.3694    -0.0579    -9.0681 H       
 111 H111          -3.3657    -1.0470    -7.9739 H       
 112 H112          -4.3212     1.0143    -6.9805 H       
 113 H113          -3.3249     2.0034    -8.0747 H       
 114 H114          -4.8293     0.1920    -9.6343 H       
 115 H115          -7.5031     2.3965   -10.0763 H       
 116 H116          -5.2579     2.9801    -7.5043 H       
 117 H117          -6.6486     3.5508    -8.2546 H       
 118 H118           0.8088    -0.5487    -8.4198 H       
 119 H119           2.0633    -1.6701    -9.8571 H       
 120 H120           1.3655    -3.1465   -10.5653 H       
 121 H121           1.7806    -2.2514   -12.8402 H       
 122 H122           2.4784    -0.7750   -12.1320 H       
 123 H123           4.2264    -2.1358   -11.0177 H       
 124 H124           3.5285    -3.6121   -11.7259 H       
 125 H125           4.0765    -1.7949   -13.8173 H       
 126 H126           7.2903    -3.0357   -14.3972 H       
 127 H127           5.7378    -3.7475   -11.3839 H       
 128 H128           7.1382    -3.9781   -12.2830 H       
 129 H129          -1.2563    -2.7053   -11.6858 H       
 130 H130          -3.3232    -2.5040   -14.8107 H       
 131 H131          -3.0142    -2.4827   -13.0579 H       
 132 H132          -2.9533    -0.9680   -13.9908 H       
 133 H133          -0.5222    -0.7602   -15.5923 H       
 134 H134           1.3460    -1.4020   -17.3783 H       
 135 H135           1.1118    -2.9011   -18.3091 H       
 136 H136           2.4731     2.4216   -17.9858 H       
 137 H137           2.8139     0.7007   -17.6848 H       
 138 H138           6.0976     3.3317   -18.0991 H       
 139 H139           4.5248     0.1750   -20.8478 H       
 140 H140           4.0558    -0.5455   -19.4242 H       
 141 H141          -1.9789    -1.9668   -19.6900 H       
 142 H142          -2.5080    -3.7945   -20.9467 H       
 143 H143          -1.1384    -4.9232   -21.0835 H       
 144 H144          -2.4874    -5.2901   -19.9818 H       
 145 Cl145         12.2903     8.5508    13.1354 Cl      
 146 H146          12.2903     9.9208    13.1354 H       
@<TRIPOS>BOND
   1    1    2 1
   2    1   80 1
   3    1   81 1
   4    1   82 1
   5    2    3 1
   6    2    4 1
   7    2   19 1
   8    4    5 2
   9    4    6 am
  10    6    7 1
  11    6   83 1
  12    7    8 1
  13    7    9 1
  14    7   16 1
  15    9   10 1
  16    9   84 1
  17    9   85 1
  18   10   11 1
  19   10   86 1
  20   10   87 1
  21   11   12 1
  22   11   88 1
  23   11   89 1
  24   12   13 1
  25   12   90 1
  26   13   14 2
  27   13   15 1
  28   14   91 1
  29   15   92 1
  30   15   93 1
  31   16   17 2
  32   16   18 am
  33   18   94 1
  34   18   95 1
  35   19   20 am
  36   19   96 1
  37   20   21 2
  38   20   22 1
  39   22   23 1
  40   22   24 1
  41   22   31 1
  42   24   25 1
  43   24   97 1
  44   24   98 1
  45   25   26 1
  46   25   99 1
  47   25  100 1
  48   26   27 1
  49   26  101 1
  50   26  102 1
  51   27   28 1
  52   27  103 1
  53   28   29 2
  54   28   30 1
  55   29  104 1
  56   30  105 1
  57   30  106 1
  58   31   32 am
  59   31  107 1
  60   32   33 2
  61   32   34 1
  62   34   35 1
  63   34   36 1
  64   34   43 1
  65   36   37 1
  66   36  108 1
  67   36  109 1
  68   37   38 1
  69   37  110 1
  70   37  111 1
  71   38   39 1
  72   38  112 1
  73   38  113 1
  74   39   40 1
  75   39  114 1
  76   40   41 2
  77   40   42 1
  78   41  115 1
  79   42  116 1
  80   42  117 1
  81   43   44 am
  82   43  118 1
  83   44   45 2
  84   44   46 1
  85   46   47 1
  86   46   48 1
  87   46   55 1
  88   48   49 1
  89   48  119 1
  90   48  120 1
  91   49   50 1
  92   49  121 1
  93   49  122 1
  94   50   51 1
  95   50  123 1
  96   50  124 1
  97   51   52 1
  98   51  125 1
  99   52   53 2
 100   52   54 1
 101   53  126 1
 102   54  127 1
 103   54  128 1
 104   55   56 am
 105   55  129 1
 106   56   57 2
 107   56   58 1
 108   58   59 1
 109   58   60 1
 110   58   61 1
 111   60  130 1
 112   60  131 1
 113   60  132 1
 114   61   62 am
 115   61  133 1
 116   62   63 2
 117   62   64 1
 118   64   65 1
 119   64   66 1
 120   64   76 1
 121   66   67 1
 122   66  134 1
 123   66  135 1
 124   67   68 1
 125   68   69 1
 126   69   70 1
 127   69  136 1
 128   69  137 1
 129   70   71 1
 130   70   72 1
 131   70   75 1
 132   72   73 2
 133   72   74 1
 134   74  138 1
 135   75  139 1
 136   75  140 1
 137   76   77 am
 138   76  141 1
 139   77   78 2
 140   77   79 1
 141   79  142 1
 142   79  143 1
 143   79  144 1
 144  145  146 1

#	End of record

