#	Name: ASD01885137
#	Creating user name:	WinNT
#	Creation time:	15. 06. 2019 19:49

#	Modifying user name:	WinNT
#	Modification time:	15. 06. 2019 19:49

#	Program:	/corina/corina34_cracker 3.40 0067  02.08.2006

@<TRIPOS>MOLECULE
ASD01885137
  50   54    0    0    0
SMALL
NO_CHARGES


@<TRIPOS>ATOM
   1 C1             1.5463     1.4578    -1.0846 C.2     
   2 C2             1.6011     0.0534    -1.1164 C.2     
   3 C3             1.2066    -0.6546    -0.0130 C.2     
   4 C4             0.7537     0.0355     1.1321 C.2     
   5 C5             0.7094     1.3822     1.1407 C.2     
   6 N6             1.1003     2.0975     0.0463 N.pl3   
   7 C7             1.1648     3.4313    -0.2311 C.2     
   8 N8             1.6213     3.5577    -1.4493 N.2     
   9 N9             1.8542     2.4008    -1.9621 N.2     
  10 C10            0.7802     4.5543     0.6974 C.3     
  11 N11            1.2514    -2.0467    -0.0204 N.pl3   
  12 C12            2.5339    -2.7531    -0.1468 C.3     
  13 C13            2.6807    -3.7178     1.0365 C.3     
  14 N14            1.4463    -4.5065     1.1554 N.pl3   
  15 C15            0.1638    -3.8000     1.2817 C.3     
  16 C16            0.0176    -2.8354     0.1040 C.3     
  17 C17            1.9989     4.9750     1.5212 C.3     
  18 Cl18           2.1614    -0.7726    -2.5368 Cl      
  19 C19            1.8439     6.1852     2.4445 C.3     
  20 C20            1.9297     4.7771     3.0368 C.3     
  21 C21            1.4907    -5.8874     1.1480 C.2     
  22 C22            0.3127    -6.8294     1.2610 C.3     
  23 C23            0.9109    -8.2169     1.1990 C.2     
  24 C24            2.2257    -8.0677     1.0706 C.2     
  25 C25            2.5846    -6.6517     1.0336 C.2     
  26 C26            3.2109    -9.2038     0.9721 C.3     
  27 H27            0.4410    -0.5183     2.0050 H       
  28 H28            0.3612     1.9004     2.0220 H       
  29 H29            0.4258     5.4035     0.1132 H       
  30 H30           -0.0118     4.2175     1.3663 H       
  31 H31            2.5518    -3.3146    -1.0809 H       
  32 H32            3.3514    -2.0322    -0.1347 H       
  33 H33            3.5254    -4.3843     0.8625 H       
  34 H34            2.8420    -3.1504     1.9532 H       
  35 H35           -0.6537    -4.5209     1.2696 H       
  36 H36            0.1459    -3.2385     2.2158 H       
  37 H37           -0.8274    -2.1695     0.2793 H       
  38 H38           -0.1432    -3.4006    -0.8140 H       
  39 H39            2.9653     4.8310     1.0382 H       
  40 H40            2.7086     6.8371     2.5691 H       
  41 H41            0.8738     6.6816     2.4650 H       
  42 H42            1.0159     4.3472     3.4470 H       
  43 H43            2.8507     4.5027     3.5511 H       
  44 H44           -0.2010    -6.6809     2.2108 H       
  45 H45           -0.3754    -6.6764     0.4296 H       
  46 H46            0.3723    -9.1517     1.2499 H       
  47 H47            3.5913    -6.2743     0.9304 H       
  48 H48            2.6773   -10.1529     1.0221 H       
  49 H49            3.7477    -9.1381     0.0257 H       
  50 H50            3.9204    -9.1420     1.7972 H       
@<TRIPOS>BOND
   1    1    2 1
   2    1    6 1
   3    1    9 2
   4    2   18 1
   5    2    3 2
   6    3    4 1
   7    3   11 1
   8    4    5 2
   9    4   27 1
  10    5    6 1
  11    5   28 1
  12    6    7 1
  13    7    8 2
  14    7   10 1
  15    8    9 1
  16   10   17 1
  17   10   29 1
  18   10   30 1
  19   11   12 1
  20   11   16 1
  21   12   13 1
  22   12   31 1
  23   12   32 1
  24   13   14 1
  25   13   33 1
  26   13   34 1
  27   14   15 1
  28   14   21 1
  29   15   16 1
  30   15   35 1
  31   15   36 1
  32   16   37 1
  33   16   38 1
  34   17   19 1
  35   17   20 1
  36   17   39 1
  37   19   20 1
  38   19   40 1
  39   19   41 1
  40   20   42 1
  41   20   43 1
  42   21   22 1
  43   21   25 2
  44   22   23 1
  45   22   44 1
  46   22   45 1
  47   23   24 2
  48   23   46 1
  49   24   25 1
  50   24   26 1
  51   25   47 1
  52   26   48 1
  53   26   49 1
  54   26   50 1

#	End of record

