#	Name: ASD01917086
#	Creating user name:	WinNT
#	Creation time:	15. 06. 2019 20:08

#	Modifying user name:	WinNT
#	Modification time:	15. 06. 2019 20:08

#	Program:	/corina/corina34_cracker 3.40 0067  02.08.2006

@<TRIPOS>MOLECULE
ASD01917086
  34   36    0    0    0
SMALL
NO_CHARGES


@<TRIPOS>ATOM
   1 C1            -0.0426     1.4708     0.1520 C.ar    
   2 C2            -0.0086    -0.0060     0.0636 C.2     
   3 N3             1.0563    -0.7654     0.2107 N.2     
   4 C4             0.7170    -2.0510     0.0659 C.2     
   5 N5            -0.5740    -2.1276    -0.1764 N.2     
   6 N6            -1.0680    -0.8131    -0.1769 N.pl3   
   7 C7            -2.4544    -0.3970    -0.4029 C.3     
   8 C8            -3.1971    -0.3907     0.9084 C.2     
   9 O9            -4.4921    -0.0394     0.9446 O.3     
  10 O10           -2.6268    -0.7018     1.9271 O.2     
  11 C11            1.6461    -3.2042     0.1628 C.ar    
  12 C12           -1.2476     2.1304     0.3944 C.ar    
  13 C13            2.9980    -2.9928     0.4254 C.ar    
  14 C14            3.8576    -4.0689     0.5144 C.ar    
  15 C15            3.3793    -5.3554     0.3429 C.ar    
  16 C16            2.0383    -5.5710     0.0816 C.ar    
  17 C17            1.1686    -4.5026    -0.0029 C.ar    
  18 C18           -1.2728     3.5075     0.4756 C.ar    
  19 C19           -0.1062     4.2341     0.3173 C.ar    
  20 C20            1.0920     3.5859     0.0768 C.ar    
  21 C21            1.1313     2.2088    -0.0010 C.ar    
  22 H22           -2.4677     0.6046    -0.8328 H       
  23 H23           -2.9355    -1.0935    -1.0896 H       
  24 H24           -4.9260    -0.0505     1.8087 H       
  25 H25           -2.1591     1.5642     0.5178 H       
  26 H26            3.3726    -1.9887     0.5587 H       
  27 H27            4.9057    -3.9062     0.7179 H       
  28 H28            4.0555    -6.1946     0.4131 H       
  29 H29            1.6702    -6.5775    -0.0522 H       
  30 H30            0.1216    -4.6720    -0.2067 H       
  31 H31           -2.2052     4.0193     0.6629 H       
  32 H32           -0.1311     5.3119     0.3815 H       
  33 H33            1.9994     4.1586    -0.0460 H       
  34 H34            2.0673     1.7039    -0.1888 H       
@<TRIPOS>BOND
   1    1    2 1
   2    1   12 ar
   3    1   21 ar
   4    2    3 2
   5    2    6 1
   6    3    4 1
   7    4    5 2
   8    4   11 1
   9    5    6 1
  10    6    7 1
  11    7    8 1
  12    7   22 1
  13    7   23 1
  14    8    9 1
  15    8   10 2
  16    9   24 1
  17   11   13 ar
  18   11   17 ar
  19   12   18 ar
  20   12   25 1
  21   13   14 ar
  22   13   26 1
  23   14   15 ar
  24   14   27 1
  25   15   16 ar
  26   15   28 1
  27   16   17 ar
  28   16   29 1
  29   17   30 1
  30   18   19 ar
  31   18   31 1
  32   19   20 ar
  33   19   32 1
  34   20   21 ar
  35   20   33 1
  36   21   34 1

#	End of record

