#	Name: ASD01000127
#	Creating user name:	WinNT
#	Creation time:	15. 06. 2019 18:54

#	Modifying user name:	WinNT
#	Modification time:	15. 06. 2019 18:54

#	Program:	/corina/corina34_cracker 3.40 0067  02.08.2006

@<TRIPOS>MOLECULE
ASD01000127
  49   53    0    0    0
SMALL
NO_CHARGES


@<TRIPOS>ATOM
   1 C1            -0.2326     1.0973    -0.0922 C.3     
   2 C2            -0.0288    -0.3871     0.0793 C.2     
   3 C3             1.1136    -0.9881     0.4735 C.2     
   4 C4             2.3888    -0.2360     0.7999 C.3     
   5 N5             2.0425     1.1905     0.7762 N.am    
   6 C6             1.1309     1.7860    -0.2258 C.3     
   7 C7            -1.0021    -1.4417    -0.1387 C.ar    
   8 C8            -0.3382    -2.6590     0.1589 C.ar    
   9 N9             0.9384    -2.3451     0.5266 N.pl3   
  10 C10           -2.3380    -1.4237    -0.5495 C.ar    
  11 C11           -2.9719    -2.6380    -0.6500 C.ar    
  12 C12           -2.3287    -3.8299    -0.3606 C.ar    
  13 C13           -1.0067    -3.8762     0.0481 C.ar    
  14 C14            2.4317     2.1724     1.5913 C.2     
  15 N15            1.8366     3.3378     1.2991 N.am    
  16 C16            1.0202     3.2264     0.2313 C.2     
  17 C17            3.4428    -0.5300    -0.2362 C.ar    
  18 C18            3.2558    -0.1250    -1.5443 C.ar    
  19 C19            4.2200    -0.3924    -2.4988 C.ar    
  20 C20            5.3767    -1.0672    -2.1446 C.ar    
  21 C21            5.5653    -1.4748    -0.8271 C.ar    
  22 C22            4.5976    -1.1995     0.1251 C.ar    
  23 O23            6.3257    -1.3314    -3.0822 O.3     
  24 O24            0.3381     4.1000    -0.2622 O.2     
  25 O25            3.2323     2.0272     2.4943 O.2     
  26 C26            2.0331     4.4962     1.9974 C.2     
  27 C27            2.9692     4.5146     3.1782 C.3     
  28 Cl28           3.0151     6.1735     3.8830 Cl      
  29 O29            6.6990    -2.1380    -0.4746 O.3     
  30 C30            6.8246    -2.5256     0.8951 C.3     
  31 H31           -0.8227     1.2820    -0.9898 H       
  32 H32           -0.7573     1.4950     0.7765 H       
  33 H33            2.7467    -0.5179     1.7902 H       
  34 H34            1.5282     1.6970    -1.2369 H       
  35 H35            1.6186    -2.9862     0.7860 H       
  36 H36           -2.8475    -0.4990    -0.7768 H       
  37 H37           -4.0048    -2.6642    -0.9643 H       
  38 H38           -2.8774    -4.7551    -0.4569 H       
  39 H39           -0.5164    -4.8125     0.2706 H       
  40 H40            2.3543     0.4013    -1.8217 H       
  41 H41            4.0710    -0.0754    -3.5204 H       
  42 H42            4.7416    -1.5146     1.1480 H       
  43 H43            6.9937    -0.6380    -3.1719 H       
  44 H44            1.5175     5.3983     1.7029 H       
  45 H45            2.6178     3.8094     3.9315 H       
  46 H46            3.9699     4.2302     2.8530 H       
  47 H47            6.0021    -3.1893     1.1618 H       
  48 H48            7.7721    -3.0446     1.0404 H       
  49 H49            6.7955    -1.6385     1.5279 H       
@<TRIPOS>BOND
   1    1    2 1
   2    1    6 1
   3    1   31 1
   4    1   32 1
   5    2    3 2
   6    2    7 1
   7    3    4 1
   8    3    9 1
   9    4    5 1
  10    4   17 1
  11    4   33 1
  12    5    6 1
  13    5   14 am
  14    6   16 1
  15    6   34 1
  16    7    8 ar
  17    7   10 ar
  18    8    9 1
  19    8   13 ar
  20    9   35 1
  21   10   11 ar
  22   10   36 1
  23   11   12 ar
  24   11   37 1
  25   12   13 ar
  26   12   38 1
  27   13   39 1
  28   14   15 am
  29   14   25 2
  30   15   16 am
  31   15   26 1
  32   16   24 2
  33   17   18 ar
  34   17   22 ar
  35   18   19 ar
  36   18   40 1
  37   19   20 ar
  38   19   41 1
  39   20   21 ar
  40   20   23 1
  41   21   29 1
  42   21   22 ar
  43   22   42 1
  44   23   43 1
  45   26   27 1
  46   26   44 1
  47   27   28 1
  48   27   45 1
  49   27   46 1
  50   29   30 1
  51   30   47 1
  52   30   48 1
  53   30   49 1

#	End of record

