#	Name: ASD01209063
#	Creating user name:	WinNT
#	Creation time:	15. 06. 2019 19:10

#	Modifying user name:	WinNT
#	Modification time:	15. 06. 2019 19:10

#	Program:	/corina/corina34_cracker 3.40 0067  02.08.2006

@<TRIPOS>MOLECULE
ASD01209063
  50   52    0    0    0
SMALL
NO_CHARGES


@<TRIPOS>ATOM
   1 C1            -0.0187     1.5258     0.0104 C.3     
   2 C2             0.4523     4.7264    -0.8404 C.ar    
   3 C3             1.1622     4.0895     0.1616 C.ar    
   4 C4             1.5444     4.7905     1.2902 C.ar    
   5 C5             1.2173     6.1274     1.4175 C.ar    
   6 C6             0.5077     6.7644     0.4163 C.ar    
   7 C7             0.1297     6.0661    -0.7147 C.ar    
   8 S8             1.5788     2.3852    -0.0002 S.o2    
   9 O9             2.3118     2.0899     1.1808 O.2     
  10 O10            2.1861     2.2930    -1.2816 O.2     
  11 C11            0.1515     8.2220     0.5559 C.3     
  12 C12            1.1207     9.0548    -0.2431 C.2     
  13 C13            2.5209     9.2785     0.2674 C.3     
  14 O14            0.7754     9.5428    -1.2923 O.2     
  15 C15            3.4514     9.5762    -0.9100 C.3     
  16 C16            2.5276    10.4635     1.2351 C.3     
  17 O17           -1.1748     8.4369     0.0694 O.3     
  18 C18           -1.8644     9.5089     0.7156 C.3     
  19 C19           -2.8659    10.1543    -0.2582 C.3     
  20 C20           -4.2643     9.9829     0.3701 C.3     
  21 C21           -3.9829     9.8192     1.8844 C.3     
  22 C22           -2.6892     8.9677     1.9016 C.3     
  23 Cl23          -0.0275     3.8469    -2.2581 Cl      
  24 C24            0.0021    -0.0041     0.0020 C.3     
  25 C25           -0.3944     0.7486     1.2737 C.3     
  26 H26           -0.8227     2.0212    -0.5339 H       
  27 H27            2.0984     4.2933     2.0727 H       
  28 H28            1.5158     6.6745     2.2995 H       
  29 H29           -0.4246     6.5638    -1.4967 H       
  30 H30            0.2045     8.5101     1.6058 H       
  31 H31            2.8658     8.3839     0.7860 H       
  32 H32            3.1065    10.4708    -1.4286 H       
  33 H33            4.4642     9.7380    -0.5408 H       
  34 H34            3.4466     8.7320    -1.5995 H       
  35 H35            1.8647    10.2514     2.0739 H       
  36 H36            3.5403    10.6254     1.6043 H       
  37 H37            2.1827    11.3581     0.7166 H       
  38 H38           -1.1505    10.2545     1.0656 H       
  39 H39           -2.6386    11.2133    -0.3800 H       
  40 H40           -2.8259     9.6499    -1.2236 H       
  41 H41           -4.8750    10.8674     0.1890 H       
  42 H42           -4.7537     9.0928    -0.0253 H       
  43 H43           -3.8135    10.7888     2.3528 H       
  44 H44           -4.8003     9.2899     2.3742 H       
  45 H45           -2.9242     7.9137     1.7535 H       
  46 H46           -2.1503     9.1115     2.8381 H       
  47 H47           -0.7885    -0.5151    -0.5475 H       
  48 H48            0.9756    -0.4941    -0.0099 H       
  49 H49            0.3183     0.7538     2.0984 H       
  50 H50           -1.4458     0.7328     1.5608 H       
@<TRIPOS>BOND
   1    1   24 1
   2    1    8 1
   3    1   25 1
   4    1   26 1
   5    2    3 ar
   6    2   23 1
   7    2    7 ar
   8    3    4 ar
   9    3    8 1
  10    4    5 ar
  11    4   27 1
  12    5    6 ar
  13    5   28 1
  14    6    7 ar
  15    6   11 1
  16    7   29 1
  17    8    9 2
  18    8   10 2
  19   11   12 1
  20   11   17 1
  21   11   30 1
  22   12   13 1
  23   12   14 2
  24   13   15 1
  25   13   16 1
  26   13   31 1
  27   15   32 1
  28   15   33 1
  29   15   34 1
  30   16   35 1
  31   16   36 1
  32   16   37 1
  33   17   18 1
  34   18   19 1
  35   18   22 1
  36   18   38 1
  37   19   20 1
  38   19   39 1
  39   19   40 1
  40   20   21 1
  41   20   41 1
  42   20   42 1
  43   21   22 1
  44   21   43 1
  45   21   44 1
  46   22   45 1
  47   22   46 1
  48   24   25 1
  49   24   47 1
  50   24   48 1
  51   25   49 1
  52   25   50 1

#	End of record

