#	Name: ASD03091099
#	Creating user name:	WinNT
#	Creation time:	15. 06. 2019 20:30

#	Modifying user name:	WinNT
#	Modification time:	15. 06. 2019 20:30

#	Program:	/corina/corina34_cracker 3.40 0067  02.08.2006

@<TRIPOS>MOLECULE
ASD03091099
  48   50    0    0    0
SMALL
NO_CHARGES


@<TRIPOS>ATOM
   1 C1            -0.0125     1.4695     0.0752 C.2     
   2 C2             0.0046    -0.0042     0.0336 C.ar    
   3 C3             1.2183    -0.6914    -0.1192 C.ar    
   4 C4             1.2254    -2.0795    -0.1574 C.ar    
   5 C5             0.0430    -2.7818    -0.0459 C.ar    
   6 C6            -1.1639    -2.1068     0.1058 C.ar    
   7 C7            -1.1870    -0.7239     0.1520 C.ar    
   8 O8             1.0335     2.0895     0.0894 O.2     
   9 N9            -1.1874     2.1296     0.0918 N.am    
  10 C10           -1.2043     3.5939     0.1331 C.3     
  11 C11           -2.6527     4.0871     0.1446 C.3     
  12 C12           -2.6704     5.6163     0.1877 C.3     
  13 N13           -5.1821    -3.5240    -0.3417 N.3     
  14 C14           -4.7688    -2.6941     0.8002 C.3     
  15 C15           -3.4920    -1.9337     0.4775 C.3     
  16 N16           -2.3583    -2.8290     0.2180 N.3     
  17 C17           -2.6007    -3.6363    -0.9859 C.3     
  18 C18           -3.2064    -4.9805    -0.6106 C.3     
  19 C19           -4.6584    -4.8887    -0.1867 C.3     
  20 C20           -4.9361    -2.9721    -1.6567 C.3     
  21 C21           -3.4521    -2.8387    -1.9568 C.3     
  22 N22            2.4113     0.0160    -0.2326 N.pl3   
  23 H23            2.1584    -2.6106    -0.2749 H       
  24 H24            0.0545    -3.8613    -0.0770 H       
  25 H25           -2.1246    -0.2020     0.2743 H       
  26 H26           -2.0217     1.6351     0.0765 H       
  27 H27           -0.6963     3.9379     1.0340 H       
  28 H28           -0.6932     3.9881    -0.7452 H       
  29 H29           -3.1607     3.7431    -0.7563 H       
  30 H30           -3.1638     3.6929     1.0229 H       
  31 H31           -2.1593     6.0105    -0.6906 H       
  32 H32           -3.7022     5.9677     0.1959 H       
  33 H33           -2.1623     5.9603     1.0886 H       
  34 H34           -5.5614    -1.9828     1.0327 H       
  35 H35           -4.5965    -3.3341     1.6656 H       
  36 H36           -3.6625    -1.3154    -0.4039 H       
  37 H37           -3.2449    -1.2857     1.3184 H       
  38 H38           -1.6403    -3.8203    -1.4674 H       
  39 H39           -3.1346    -5.6481    -1.4693 H       
  40 H40           -2.6292    -5.4071     0.2096 H       
  41 H41           -4.7434    -5.1859     0.8586 H       
  42 H42           -5.2513    -5.5689    -0.7981 H       
  43 H43           -5.3908    -3.6226    -2.4038 H       
  44 H44           -5.3992    -1.9873    -1.7191 H       
  45 H45           -3.1710    -1.7875    -1.8937 H       
  46 H46           -3.2621    -3.1944    -2.9694 H       
  47 H47            2.3973     0.9839    -0.2947 H       
  48 H48            3.2570    -0.4589    -0.2495 H       
@<TRIPOS>BOND
   1    1    2 1
   2    1    8 2
   3    1    9 am
   4    2    3 ar
   5    2    7 ar
   6    3    4 ar
   7    3   22 1
   8    4    5 ar
   9    4   23 1
  10    5    6 ar
  11    5   24 1
  12    6    7 ar
  13    6   16 1
  14    7   25 1
  15    9   10 1
  16    9   26 1
  17   10   11 1
  18   10   27 1
  19   10   28 1
  20   11   12 1
  21   11   29 1
  22   11   30 1
  23   12   31 1
  24   12   32 1
  25   12   33 1
  26   13   14 1
  27   13   19 1
  28   13   20 1
  29   14   15 1
  30   14   34 1
  31   14   35 1
  32   15   16 1
  33   15   36 1
  34   15   37 1
  35   16   17 1
  36   17   18 1
  37   17   21 1
  38   17   38 1
  39   18   19 1
  40   18   39 1
  41   18   40 1
  42   19   41 1
  43   19   42 1
  44   20   21 1
  45   20   43 1
  46   20   44 1
  47   21   45 1
  48   21   46 1
  49   22   47 1
  50   22   48 1

#	End of record

