#	Name: ASD08830029
#	Creating user name:	WinNT
#	Creation time:	15. 06. 2019 21:19

#	Modifying user name:	WinNT
#	Modification time:	15. 06. 2019 21:19

#	Program:	/corina/corina34_cracker 3.40 0067  02.08.2006

@<TRIPOS>MOLECULE
ASD08830029
  41   43    0    0    0
SMALL
NO_CHARGES


@<TRIPOS>ATOM
   1 C1            -0.0141     1.4180     0.0993 C.ar    
   2 C2             0.0046    -0.0005     0.1050 C.ar    
   3 C3             1.1988     2.1317     0.0628 C.ar    
   4 C4             2.3792     1.4644     0.0328 C.ar    
   5 C5             2.4125     0.0557     0.0375 C.ar    
   6 C6             1.2333    -0.6757     0.0736 C.ar    
   7 C7             3.7054    -0.6444     0.0035 C.2     
   8 C8             4.9887     0.1446    -0.0363 C.3     
   9 C9             6.1781    -0.8173    -0.0663 C.3     
  10 N10            7.4246    -0.0509    -0.1958 N.3     
  11 O11            3.7388    -1.8566     0.0075 O.2     
  12 C12            7.6474     0.7917     0.9814 C.3     
  13 C13           -1.2475     2.0886     0.1245 C.ar    
  14 C14           -1.2115    -0.7062     0.1417 C.ar    
  15 C15           -2.3874    -0.0209     0.1711 C.ar    
  16 C16           -2.4054     1.3721     0.1540 C.ar    
  17 C17            9.1103     1.2436     1.0298 C.3     
  18 S18            9.4558     2.2563    -0.4400 S.o2    
  19 C19            8.8740     1.1557    -1.7651 C.3     
  20 C20            7.4424     0.7154    -1.4439 C.3     
  21 O21            8.6237     3.4077    -0.4059 O.2     
  22 O22           10.8625     2.4146    -0.5639 O.2     
  23 H23            1.1894     3.2116     0.0584 H       
  24 H24            3.3051     2.0196     0.0045 H       
  25 H25            1.2618    -1.7553     0.0772 H       
  26 H26            5.0038     0.7690    -0.9296 H       
  27 H27            5.0545     0.7762     0.8496 H       
  28 H28            6.2013    -1.3954     0.8575 H       
  29 H29            6.0774    -1.4933    -0.9154 H       
  30 H30            6.9997     1.6667     0.9282 H       
  31 H31            7.4138     0.2242     1.8823 H       
  32 H32           -1.2778     3.1681     0.1209 H       
  33 H33           -1.2124    -1.7861     0.1461 H       
  34 H34           -3.3199    -0.5649     0.1989 H       
  35 H35           -3.3518     1.8919     0.1784 H       
  36 H36            9.2808     1.8347     1.9296 H       
  37 H37            9.7628     0.3704     1.0340 H       
  38 H38            8.8881     1.6886    -2.7158 H       
  39 H39            9.5212     0.2806    -1.8241 H       
  40 H40            7.0640     0.0941    -2.2556 H       
  41 H41            6.8082     1.5955    -1.3375 H       
@<TRIPOS>BOND
   1    1    2 ar
   2    1    3 ar
   3    1   13 ar
   4    2   14 ar
   5    2    6 ar
   6    3    4 ar
   7    3   23 1
   8    4    5 ar
   9    4   24 1
  10    5    6 ar
  11    5    7 1
  12    6   25 1
  13    7    8 1
  14    7   11 2
  15    8    9 1
  16    8   26 1
  17    8   27 1
  18    9   10 1
  19    9   28 1
  20    9   29 1
  21   10   12 1
  22   10   20 1
  23   12   17 1
  24   12   30 1
  25   12   31 1
  26   13   16 ar
  27   13   32 1
  28   14   15 ar
  29   14   33 1
  30   15   16 ar
  31   15   34 1
  32   16   35 1
  33   17   18 1
  34   17   36 1
  35   17   37 1
  36   18   19 1
  37   18   21 2
  38   18   22 2
  39   19   20 1
  40   19   38 1
  41   19   39 1
  42   20   40 1
  43   20   41 1

#	End of record

