#	Name: ASD00461005
#	Creating user name:	WinNT
#	Creation time:	15. 06. 2019 18:36

#	Modifying user name:	WinNT
#	Modification time:	15. 06. 2019 18:36

#	Program:	/corina/corina34_cracker 3.40 0067  02.08.2006

@<TRIPOS>MOLECULE
ASD00461005
  34   36    0    0    0
SMALL
NO_CHARGES


@<TRIPOS>ATOM
   1 C1            -0.0699     1.2998    -0.5686 C.ar    
   2 C2            -0.0378    -0.0551    -0.4361 C.ar    
   3 C3             1.1053     2.0347    -0.6388 C.ar    
   4 C4             1.1943    -0.7367    -0.3679 C.ar    
   5 C5             2.3230     1.3958    -0.5752 C.ar    
   6 N6             1.4424    -2.0540    -0.2388 N.2     
   7 C7             2.3753     0.0101    -0.4393 C.ar    
   8 C8             2.6643    -2.4309    -0.2003 C.2     
   9 S9             3.7325    -1.1063    -0.3284 S.3     
  10 C10            3.1051    -3.8650    -0.0586 C.3     
  11 O11            2.4973    -4.6537    -1.0835 O.3     
  12 C12            4.6275    -3.9458    -0.1883 C.3     
  13 C13            2.6876    -4.3878     1.2917 C.ar    
  14 C14            1.4548    -4.9934     1.4469 C.ar    
  15 C15            1.0707    -5.4738     2.6850 C.ar    
  16 C16            1.9201    -5.3486     3.7692 C.ar    
  17 C17            3.1553    -4.7419     3.6138 C.ar    
  18 C18            3.5401    -4.2665     2.3733 C.ar    
  19 Cl19           4.2226    -4.5839     4.9737 Cl      
  20 Cl20           1.4381    -5.9512     5.3243 Cl      
  21 C21            5.0723    -5.4052    -0.0742 C.3     
  22 H22           -1.0212     1.8081    -0.6241 H       
  23 H23           -0.9622    -0.6111    -0.3827 H       
  24 H24            1.0645     3.1088    -0.7439 H       
  25 H25            3.2371     1.9682    -0.6307 H       
  26 H26            1.5305    -4.6490    -1.0622 H       
  27 H27            4.9313    -3.5479    -1.1565 H       
  28 H28            5.0913    -3.3614     0.6064 H       
  29 H29            0.7911    -5.0909     0.6005 H       
  30 H30            0.1072    -5.9465     2.8056 H       
  31 H31            4.5032    -3.7933     2.2513 H       
  32 H32            4.8554    -5.7739     0.9283 H       
  33 H33            4.5349    -6.0072    -0.8070 H       
  34 H34            6.1437    -5.4743    -0.2628 H       
@<TRIPOS>BOND
   1    1    2 ar
   2    1    3 ar
   3    1   22 1
   4    2    4 ar
   5    2   23 1
   6    3    5 ar
   7    3   24 1
   8    4    6 1
   9    4    7 ar
  10    5    7 ar
  11    5   25 1
  12    6    8 2
  13    7    9 1
  14    8   10 1
  15    8    9 1
  16   10   11 1
  17   10   12 1
  18   10   13 1
  19   11   26 1
  20   12   21 1
  21   12   27 1
  22   12   28 1
  23   13   14 ar
  24   13   18 ar
  25   14   15 ar
  26   14   29 1
  27   15   16 ar
  28   15   30 1
  29   16   17 ar
  30   16   20 1
  31   17   18 ar
  32   17   19 1
  33   18   31 1
  34   21   32 1
  35   21   33 1
  36   21   34 1

#	End of record

