#	Name: ASD01885415
#	Creating user name:	WinNT
#	Creation time:	15. 06. 2019 19:49

#	Modifying user name:	WinNT
#	Modification time:	15. 06. 2019 19:49

#	Program:	/corina/corina34_cracker 3.40 0067  02.08.2006

@<TRIPOS>MOLECULE
ASD01885415
  33   36    0    0    0
SMALL
NO_CHARGES


@<TRIPOS>ATOM
   1 C1            -0.0376     1.4132     0.0073 C.ar    
   2 C2            -0.0153     0.0198     0.0378 C.ar    
   3 N3            -1.1307    -0.7548     0.0473 N.2     
   4 C4            -2.1906    -0.5706    -0.6536 C.2     
   5 C5            -2.3308     0.6060    -1.5833 C.3     
   6 C6            -2.2833     1.8665    -0.7572 C.2     
   7 N7            -1.2051     2.1646    -0.0310 N.am    
   8 C8             1.1680     2.1164     0.0090 C.ar    
   9 C9             2.3741     1.4484     0.0363 C.ar    
  10 C10            2.4000     0.0634     0.0626 C.ar    
  11 C11            1.2221    -0.6466     0.0636 C.ar    
  12 C12           -3.2970    -1.5343    -0.5460 C.ar    
  13 O13           -3.2359     2.6172    -0.7531 O.2     
  14 Br14           3.9942     2.4236     0.0373 Br      
  15 S15           -4.3587    -5.1562     1.1186 S.3     
  16 C16           -6.0289    -5.4208     0.5909 C.2     
  17 N17           -6.3547    -4.3610    -0.1551 N.am    
  18 C18           -5.4140    -3.3687    -0.3458 C.ar    
  19 C19           -4.1901    -3.6028     0.2885 C.ar    
  20 C20           -3.1439    -2.7090     0.1970 C.ar    
  21 C21           -4.5195    -1.2851    -1.1814 C.ar    
  22 C22           -5.5530    -2.1802    -1.0839 C.ar    
  23 O23           -6.7368    -6.3751     0.8545 O.2     
  24 H24           -1.5115     0.6064    -2.3023 H       
  25 H25           -3.2832     0.5472    -2.1101 H       
  26 H26           -1.2388     2.9677     0.5119 H       
  27 H27            1.1561     3.1962    -0.0117 H       
  28 H28            3.3452    -0.4588     0.0820 H       
  29 H29            1.2480    -1.7261     0.0844 H       
  30 H30           -7.2354    -4.2905    -0.5553 H       
  31 H31           -2.2093    -2.9158     0.6972 H       
  32 H32           -4.6496    -0.3784    -1.7536 H       
  33 H33           -6.4879    -1.9695    -1.5818 H       
@<TRIPOS>BOND
   1    1    2 ar
   2    1    8 ar
   3    1    7 1
   4    2    3 1
   5    2   11 ar
   6    3    4 2
   7    4    5 1
   8    4   12 1
   9    5    6 1
  10    5   24 1
  11    5   25 1
  12    6    7 am
  13    6   13 2
  14    7   26 1
  15    8    9 ar
  16    8   27 1
  17    9   10 ar
  18    9   14 1
  19   10   11 ar
  20   10   28 1
  21   11   29 1
  22   12   21 ar
  23   12   20 ar
  24   15   16 1
  25   15   19 1
  26   16   17 am
  27   16   23 2
  28   17   18 1
  29   17   30 1
  30   18   19 ar
  31   18   22 ar
  32   19   20 ar
  33   20   31 1
  34   21   22 ar
  35   21   32 1
  36   22   33 1

#	End of record

