#	Name: ASD01914188
#	Creating user name:	WinNT
#	Creation time:	15. 06. 2019 20:03

#	Modifying user name:	WinNT
#	Modification time:	15. 06. 2019 20:03

#	Program:	/corina/corina34_cracker 3.40 0067  02.08.2006

@<TRIPOS>MOLECULE
ASD01914188
  40   41    0    0    0
SMALL
NO_CHARGES


@<TRIPOS>ATOM
   1 C1            -0.0218     1.4746     0.0049 C.2     
   2 C2             0.0068    -0.0036     0.0006 C.ar    
   3 C3             0.9981    -0.6826    -0.7086 C.ar    
   4 C4             1.0188    -2.0670    -0.7077 C.ar    
   5 C5             0.0550    -2.7760    -0.0031 C.ar    
   6 C6            -0.9281    -2.1045     0.6997 C.ar    
   7 C7            -0.9544    -0.7247     0.7106 C.ar    
   8 O8             1.0188     2.1027    -0.0099 O.2     
   9 N9            -1.2017     2.1258     0.0197 N.am    
  10 C10           -1.2314     3.5852     0.1439 C.3     
  11 C11           -1.1918     4.2165    -1.2493 C.3     
  12 C12           -1.2217     5.6829    -1.1246 C.1     
  13 C13           -1.2455     6.8524    -1.0251 C.1     
  14 C14           -1.2746     8.2790    -0.9038 C.ar    
  15 C15           -1.2466     9.0721    -2.0515 C.ar    
  16 C16           -1.2753    10.4488    -1.9175 C.ar    
  17 C17           -1.3310    10.9897    -0.6403 C.ar    
  18 C18           -1.3561    10.1450     0.4541 C.ar    
  19 N19           -1.3333     8.8368     0.3000 N.ar    
  20 C20           -2.4546     1.3742    -0.0883 C.3     
  21 O21            1.9827    -2.7324    -1.3972 O.3     
  22 C22            1.9437    -4.1602    -1.3526 C.3     
  23 H23            1.7468    -0.1301    -1.2568 H       
  24 H24            0.0732    -3.8558    -0.0043 H       
  25 H25           -1.6753    -2.6615     1.2455 H       
  26 H26           -1.7211    -0.2033     1.2643 H       
  27 H27           -2.1459     3.8879     0.6540 H       
  28 H28           -0.3674     3.9187     0.7186 H       
  29 H29           -0.2774     3.9138    -1.7595 H       
  30 H30           -2.0559     3.8830    -1.8240 H       
  31 H31           -1.2029     8.6178    -3.0303 H       
  32 H32           -1.2544    11.0886    -2.7874 H       
  33 H33           -1.3541    12.0606    -0.5026 H       
  34 H34           -1.3990    10.5634     1.4488 H       
  35 H35           -2.7567     1.0276     0.8999 H       
  36 H36           -3.2308     2.0191    -0.5002 H       
  37 H37           -2.3083     0.5166    -0.7451 H       
  38 H38            2.0392    -4.4942    -0.3195 H       
  39 H39            0.9962    -4.5107    -1.7617 H       
  40 H40            2.7661    -4.5647    -1.9427 H       
@<TRIPOS>BOND
   1    1    2 1
   2    1    8 2
   3    1    9 am
   4    2    3 ar
   5    2    7 ar
   6    3    4 ar
   7    3   23 1
   8    4    5 ar
   9    4   21 1
  10    5    6 ar
  11    5   24 1
  12    6    7 ar
  13    6   25 1
  14    7   26 1
  15    9   10 1
  16    9   20 1
  17   10   11 1
  18   10   27 1
  19   10   28 1
  20   11   12 1
  21   11   29 1
  22   11   30 1
  23   12   13 3
  24   13   14 1
  25   14   15 ar
  26   14   19 ar
  27   15   16 ar
  28   15   31 1
  29   16   17 ar
  30   16   32 1
  31   17   18 ar
  32   17   33 1
  33   18   19 ar
  34   18   34 1
  35   20   35 1
  36   20   36 1
  37   20   37 1
  38   21   22 1
  39   22   38 1
  40   22   39 1
  41   22   40 1

#	End of record

