#	Name: ASD07931472
#	Creating user name:	WinNT
#	Creation time:	15. 06. 2019 21:13

#	Modifying user name:	WinNT
#	Modification time:	15. 06. 2019 21:13

#	Program:	/corina/corina34_cracker 3.40 0067  02.08.2006

@<TRIPOS>MOLECULE
ASD07931472
  56   61    0    0    0
SMALL
NO_CHARGES


@<TRIPOS>ATOM
   1 C1            -0.0168     1.3861     0.0097 C.ar    
   2 N2             0.0021    -0.0041     0.0020 N.am    
   3 N3            -0.6362    -0.8162     0.9429 N.2     
   4 C4            -0.4439    -2.0769     0.6801 C.2     
   5 C5             0.3935    -2.1505    -0.5388 C.2     
   6 C6             0.6351    -0.7620    -0.9192 C.2     
   7 O7             1.2841    -0.3660    -1.8731 O.2     
   8 C8            -0.8533    -3.3541     1.2947 C.ar    
   9 C9            -0.4277    -4.5494     0.6916 C.ar    
  10 N10            0.3556    -4.5204    -0.4492 N.pl3   
  11 C11            0.7474    -3.3792    -1.0383 C.2     
  12 C12           -1.6396    -3.3897     2.4416 C.ar    
  13 C13           -2.0006    -4.6053     2.9856 C.ar    
  14 C14           -1.5821    -5.7859     2.3934 C.ar    
  15 C15           -0.8028    -5.7638     1.2554 C.ar    
  16 C16            0.7756    -5.7929    -1.0414 C.3     
  17 C17           -0.2515    -6.2414    -2.0489 C.ar    
  18 C18           -0.1366    -5.8529    -3.3710 C.ar    
  19 C19           -1.0766    -6.2620    -4.2966 C.ar    
  20 C20           -2.1374    -7.0644    -3.8984 C.ar    
  21 C21           -2.2498    -7.4531    -2.5703 C.ar    
  22 C22           -1.3038    -7.0452    -1.6504 C.ar    
  23 N23           -3.0933    -7.4808    -4.8354 N.pl3   
  24 C24           -4.1696    -8.2593    -4.5821 C.2     
  25 C25           -4.8376    -8.4297    -5.7465 C.2     
  26 C26           -4.1479    -7.7330    -6.7448 C.2     
  27 N27           -3.1060    -7.1592    -6.1988 N.2     
  28 C28           -1.2349     2.0940     0.0310 C.ar    
  29 C29            1.1683     2.1187     0.0023 C.ar    
  30 C30            1.1092     3.4966     0.0102 C.ar    
  31 N31           -0.0486     4.1326     0.0246 N.ar    
  32 C32           -1.1996     3.4910     0.0379 C.ar    
  33 Cl33          -2.6852     4.3890     0.0559 Cl      
  34 C34           -2.5207     1.3754     0.0453 C.2     
  35 O35           -3.0360     1.0730     1.1035 O.2     
  36 O36           -3.1255     1.0532    -1.1151 O.3     
  37 C37           -4.3901     0.3453    -1.0250 C.3     
  38 H38            1.3586    -3.4292    -1.9273 H       
  39 H39           -1.9658    -2.4700     2.9044 H       
  40 H40           -2.6111    -4.6365     3.8760 H       
  41 H41           -1.8694    -6.7326     2.8266 H       
  42 H42           -0.4827    -6.6906     0.8027 H       
  43 H43            1.7379    -5.6631    -1.5367 H       
  44 H44            0.8687    -6.5451    -0.2580 H       
  45 H45            0.6888    -5.2288    -3.6801 H       
  46 H46           -0.9868    -5.9577    -5.3289 H       
  47 H47           -3.0741    -8.0770    -2.2576 H       
  48 H48           -1.3906    -7.3472    -0.6171 H       
  49 H49           -4.4460    -8.6715    -3.6229 H       
  50 H50           -5.7433    -9.0024    -5.8814 H       
  51 H51           -4.4294    -7.6750    -7.7859 H       
  52 H52            2.1227     1.6131    -0.0092 H       
  53 H53            2.0266     4.0663     0.0049 H       
  54 H54           -4.2416    -0.5984    -0.5002 H       
  55 H55           -5.1098     0.9553    -0.4791 H       
  56 H56           -4.7681     0.1477    -2.0281 H       
@<TRIPOS>BOND
   1    1    2 1
   2    1   29 ar
   3    1   28 ar
   4    2    3 1
   5    2    6 am
   6    3    4 2
   7    4    5 1
   8    4    8 1
   9    5    6 1
  10    5   11 2
  11    6    7 2
  12    8    9 ar
  13    8   12 ar
  14    9   10 1
  15    9   15 ar
  16   10   11 1
  17   10   16 1
  18   11   38 1
  19   12   13 ar
  20   12   39 1
  21   13   14 ar
  22   13   40 1
  23   14   15 ar
  24   14   41 1
  25   15   42 1
  26   16   17 1
  27   16   43 1
  28   16   44 1
  29   17   18 ar
  30   17   22 ar
  31   18   19 ar
  32   18   45 1
  33   19   20 ar
  34   19   46 1
  35   20   21 ar
  36   20   23 1
  37   21   22 ar
  38   21   47 1
  39   22   48 1
  40   23   24 1
  41   23   27 1
  42   24   25 2
  43   24   49 1
  44   25   26 1
  45   25   50 1
  46   26   27 2
  47   26   51 1
  48   28   34 1
  49   28   32 ar
  50   29   30 ar
  51   29   52 1
  52   30   31 ar
  53   30   53 1
  54   31   32 ar
  55   32   33 1
  56   34   35 2
  57   34   36 1
  58   36   37 1
  59   37   54 1
  60   37   55 1
  61   37   56 1

#	End of record

