#	Name: ASD03092747
#	Creating user name:	WinNT
#	Creation time:	15. 06. 2019 20:33

#	Modifying user name:	WinNT
#	Modification time:	15. 06. 2019 20:33

#	Program:	/corina/corina34_cracker 3.40 0067  02.08.2006

@<TRIPOS>MOLECULE
ASD03092747
  43   43    0    0    0
SMALL
NO_CHARGES


@<TRIPOS>ATOM
   1 C1            -0.0168     1.3882     0.0097 C.ar    
   2 C2             0.0021    -0.0041     0.0020 C.ar    
   3 C3            -1.1750    -0.7072     0.0090 C.ar    
   4 C4            -2.3955    -0.0245     0.0243 C.ar    
   5 C5            -2.4108     1.3740     0.0325 C.ar    
   6 C6            -1.2301     2.0710     0.0307 C.ar    
   7 N7             1.1784     2.0980     0.0021 N.pl3   
   8 C8             1.1604     3.5629     0.0101 C.3     
   9 C9             2.5965     4.0906    -0.0008 C.3     
  10 C10            2.5777     5.6204     0.0076 C.3     
  11 C11            4.0138     6.1482    -0.0032 C.3     
  12 C12           -3.6626    -0.7771     0.0314 C.2     
  13 O13           -3.6477    -1.9921     0.0240 O.2     
  14 O14           -4.8378    -0.1177     0.0462 O.3     
  15 C15           -6.0457    -0.9234     0.0524 C.3     
  16 C16           -7.2704    -0.0065     0.0692 C.3     
  17 N17           -7.3230     0.7631    -1.1810 N.3     
  18 C18           -7.5619    -0.1180    -2.3319 C.3     
  19 C19           -8.3411     1.8195    -1.1064 C.3     
  20 H20            0.9449    -0.5307    -0.0098 H       
  21 H21           -1.1596    -1.7871     0.0024 H       
  22 H22           -3.3516     1.9042     0.0443 H       
  23 H23           -1.2412     3.1509     0.0373 H       
  24 H24            2.0243     1.6234    -0.0086 H       
  25 H25            0.6337     3.9246    -0.8729 H       
  26 H26            0.6507     3.9150     0.9069 H       
  27 H27            3.1232     3.7288     0.8823 H       
  28 H28            3.1062     3.7384    -0.8976 H       
  29 H29            2.0510     5.9822    -0.8754 H       
  30 H30            2.0680     5.9726     0.9044 H       
  31 H31            4.5235     5.7960    -0.9000 H       
  32 H32            4.0004     7.2381     0.0027 H       
  33 H33            4.5405     5.7864     0.8798 H       
  34 H34           -6.0711    -1.5471    -0.8412 H       
  35 H35           -6.0547    -1.5579     0.9387 H       
  36 H36           -8.1740    -0.6087     0.1634 H       
  37 H37           -7.2002     0.6780     0.9145 H       
  38 H38           -8.5112    -0.6374    -2.2010 H       
  39 H39           -7.5963     0.4774    -3.2443 H       
  40 H40           -6.7555    -0.8477    -2.4044 H       
  41 H41           -8.1012     2.4982    -0.2880 H       
  42 H42           -8.3590     2.3738    -2.0448 H       
  43 H43           -9.3187     1.3702    -0.9311 H       
@<TRIPOS>BOND
   1    1    2 ar
   2    1    7 1
   3    1    6 ar
   4    2    3 ar
   5    2   20 1
   6    3    4 ar
   7    3   21 1
   8    4    5 ar
   9    4   12 1
  10    5    6 ar
  11    5   22 1
  12    6   23 1
  13    7    8 1
  14    7   24 1
  15    8    9 1
  16    8   25 1
  17    8   26 1
  18    9   10 1
  19    9   27 1
  20    9   28 1
  21   10   11 1
  22   10   29 1
  23   10   30 1
  24   11   31 1
  25   11   32 1
  26   11   33 1
  27   12   13 2
  28   12   14 1
  29   14   15 1
  30   15   16 1
  31   15   34 1
  32   15   35 1
  33   16   17 1
  34   16   36 1
  35   16   37 1
  36   17   18 1
  37   17   19 1
  38   18   38 1
  39   18   39 1
  40   18   40 1
  41   19   41 1
  42   19   42 1
  43   19   43 1

#	End of record

