#	Name: ASD00170305
#	Creating user name:	WinNT
#	Creation time:	15. 06. 2019 18:31

#	Modifying user name:	WinNT
#	Modification time:	15. 06. 2019 18:31

#	Program:	/corina/corina34_cracker 3.40 0067  02.08.2006

@<TRIPOS>MOLECULE
ASD00170305
  32   34    0    0    0
SMALL
NO_CHARGES


@<TRIPOS>ATOM
   1 S1             0.1573     1.6245     0.6732 S.3     
   2 N2            -0.1177     0.3149    -0.3763 N.pl3   
   3 C3             1.1097    -0.1392    -0.7264 C.2     
   4 N4             2.1486     0.4585    -0.2377 N.2     
   5 C5             1.9245     1.4943     0.5878 C.2     
   6 N6             2.8184     2.2463     1.1983 N.2     
   7 C7            -1.3529    -0.1884    -0.7910 C.ar    
   8 C8             1.2589    -1.2894    -1.6434 C.ar    
   9 C9             4.2475     1.9873     1.0063 C.3     
  10 C10           -2.2254     0.6164    -1.5129 C.ar    
  11 C11           -3.4467     0.1153    -1.9222 C.ar    
  12 C12           -3.8005    -1.1874    -1.6128 C.ar    
  13 C13           -2.9328    -1.9906    -0.8934 C.ar    
  14 C14           -1.7089    -1.4971    -0.4873 C.ar    
  15 C15            0.2902    -1.5402    -2.6163 C.ar    
  16 C16            0.4353    -2.6152    -3.4689 C.ar    
  17 C17            1.5379    -3.4438    -3.3606 C.ar    
  18 C18            2.5019    -3.2007    -2.3984 C.ar    
  19 C19            2.3719    -2.1256    -1.5437 C.ar    
  20 Cl20          -4.5381     1.1197    -2.8242 Cl      
  21 Cl21          -5.3354    -1.8140    -2.1277 Cl      
  22 H22            4.4816     0.9765     1.3402 H       
  23 H23            4.4962     2.0877    -0.0502 H       
  24 H24            4.8279     2.7050     1.5860 H       
  25 H25           -1.9498     1.6326    -1.7535 H       
  26 H26           -3.2117    -3.0059    -0.6529 H       
  27 H27           -1.0325    -2.1246     0.0740 H       
  28 H28           -0.5714    -0.8945    -2.7013 H       
  29 H29           -0.3136    -2.8104    -4.2221 H       
  30 H30            1.6465    -4.2844    -4.0300 H       
  31 H31            3.3601    -3.8516    -2.3189 H       
  32 H32            3.1250    -1.9368    -0.7929 H       
@<TRIPOS>BOND
   1    1    2 1
   2    1    5 1
   3    2    3 1
   4    2    7 1
   5    3    4 2
   6    3    8 1
   7    4    5 1
   8    5    6 2
   9    6    9 1
  10    7   10 ar
  11    7   14 ar
  12    8   15 ar
  13    8   19 ar
  14    9   22 1
  15    9   23 1
  16    9   24 1
  17   10   11 ar
  18   10   25 1
  19   11   12 ar
  20   11   20 1
  21   12   13 ar
  22   12   21 1
  23   13   14 ar
  24   13   26 1
  25   14   27 1
  26   15   16 ar
  27   15   28 1
  28   16   17 ar
  29   16   29 1
  30   17   18 ar
  31   17   30 1
  32   18   19 ar
  33   18   31 1
  34   19   32 1

#	End of record

