#	Name: ASD01148586
#	Creating user name:	WinNT
#	Creation time:	15. 06. 2019 19:02

#	Modifying user name:	WinNT
#	Modification time:	15. 06. 2019 19:02

#	Program:	/corina/corina34_cracker 3.40 0067  02.08.2006

@<TRIPOS>MOLECULE
ASD01148586
  52   55    0    0    0
SMALL
NO_CHARGES


@<TRIPOS>ATOM
   1 C1            -0.0170     1.4365    -0.0252 C.ar    
   2 C2             0.0192     0.0537    -0.0359 C.ar    
   3 C3            -1.1595    -0.6684    -0.0203 C.ar    
   4 C4            -2.3740    -0.0090     0.0060 C.ar    
   5 C5            -2.4107     1.3731     0.0167 C.ar    
   6 C6            -1.2330     2.0960     0.0064 C.ar    
   7 C7            -3.7353     2.0913     0.0454 C.3     
   8 O8            -4.7239     1.3224     0.7600 O.3     
   9 C9            -3.6509     3.3745     0.9060 C.3     
  10 C10           -4.1234     2.8922     2.2643 C.2     
  11 N11           -4.7047     1.7486     2.1080 N.2     
  12 C12           -3.9489     3.6043     3.5418 C.ar    
  13 C13           -4.4553     3.0230     4.7827 C.ar    
  14 C14           -3.2972     4.8295     3.5751 C.ar    
  15 C15           -3.1185     5.5197     4.7607 C.ar    
  16 C16           -3.5838     5.0168     5.9685 C.ar    
  17 C17           -4.2732     3.7289     5.9953 C.ar    
  18 C18           -3.3788     5.7744     7.2153 C.2     
  19 O19           -3.8789     5.3846     8.2526 O.2     
  20 N20           -2.6368     6.8995     7.2060 N.am    
  21 C21           -4.7587     3.1831     7.1902 C.ar    
  22 C22           -5.1139     1.7868     4.7968 C.ar    
  23 C23           -4.2116     2.4125    -1.3727 C.3     
  24 F24           -4.3441     1.2250    -2.1003 F       
  25 F25           -5.4485     3.0634    -1.3130 F       
  26 F26           -3.2776     3.2429    -2.0015 F       
  27 Cl27           1.4628     2.3440    -0.0442 Cl      
  28 C28           -2.4493     7.5925     8.3467 C.2     
  29 O29           -1.7083     8.7161     8.3374 O.3     
  30 C30           -1.5488     9.4110     9.6023 C.3     
  31 O31           -2.9491     7.2030     9.3831 O.2     
  32 C32           -5.5702     1.2806     5.9776 C.ar    
  33 C33           -5.3960     1.9780     7.1700 C.ar    
  34 C34           -1.1203    -2.1748    -0.0324 C.3     
  35 F35            0.2102    -2.6065    -0.0595 F       
  36 F36           -1.7469    -2.6669     1.1176 F       
  37 F37           -1.7878    -2.6496    -1.1666 F       
  38 H38            0.9681    -0.4617    -0.0568 H       
  39 H39           -3.2946    -0.5735     0.0178 H       
  40 H40           -1.2618     3.1756     0.0147 H       
  41 H41           -2.6246     3.7375     0.9598 H       
  42 H42           -4.3154     4.1458     0.5166 H       
  43 H43           -2.9211     5.2530     2.6556 H       
  44 H44           -2.6056     6.4700     4.7466 H       
  45 H45           -2.2378     7.2105     6.3784 H       
  46 H46           -4.6289     3.7135     8.1220 H       
  47 H47           -5.2595     1.2382     3.8780 H       
  48 H48           -2.5273     9.7085     9.9793 H       
  49 H49           -1.0679     8.7490    10.3224 H       
  50 H50           -0.9315    10.2971     9.4548 H       
  51 H51           -6.0781     0.3276     5.9875 H       
  52 H52           -5.7701     1.5580     8.0920 H       
@<TRIPOS>BOND
   1    1    2 ar
   2    1   27 1
   3    1    6 ar
   4    2    3 ar
   5    2   38 1
   6    3    4 ar
   7    3   34 1
   8    4    5 ar
   9    4   39 1
  10    5    6 ar
  11    5    7 1
  12    6   40 1
  13    7    8 1
  14    7    9 1
  15    7   23 1
  16    8   11 1
  17    9   10 1
  18    9   41 1
  19    9   42 1
  20   10   11 2
  21   10   12 1
  22   12   13 ar
  23   12   14 ar
  24   13   22 ar
  25   13   17 ar
  26   14   15 ar
  27   14   43 1
  28   15   16 ar
  29   15   44 1
  30   16   17 ar
  31   16   18 1
  32   17   21 ar
  33   18   19 2
  34   18   20 am
  35   20   28 am
  36   20   45 1
  37   21   33 ar
  38   21   46 1
  39   22   32 ar
  40   22   47 1
  41   23   24 1
  42   23   25 1
  43   23   26 1
  44   28   29 1
  45   28   31 2
  46   29   30 1
  47   30   48 1
  48   30   49 1
  49   30   50 1
  50   32   33 ar
  51   32   51 1
  52   33   52 1
  53   34   35 1
  54   34   36 1
  55   34   37 1

#	End of record

