#	Name: ASD06170343
#	Creating user name:	WinNT
#	Creation time:	15. 06. 2019 21:05

#	Modifying user name:	WinNT
#	Modification time:	15. 06. 2019 21:05

#	Program:	/corina/corina34_cracker 3.40 0067  02.08.2006

@<TRIPOS>MOLECULE
ASD06170343
  68   72    0    0    0
SMALL
NO_CHARGES


@<TRIPOS>ATOM
   1 N1            -0.0829     1.3376    -0.0245 N.am    
   2 N2            -0.0945    -0.0081     0.3543 N.pl3   
   3 C3             1.1589    -0.5002     0.3378 C.2     
   4 C4             2.0203     0.5071    -0.0509 C.2     
   5 C5             1.1907     1.7000    -0.2832 C.2     
   6 C6             3.4769     0.4072    -0.2025 C.2     
   7 O7             4.0413    -0.6469     0.0236 O.2     
   8 N8             4.1892     1.4830    -0.5920 N.am    
   9 C9            -1.2926    -0.7699     0.7157 C.3     
  10 C10            5.5887     1.4395    -0.5754 C.ar    
  11 C11            6.2476     0.2270    -0.7290 C.ar    
  12 C12            8.3575     1.3563    -0.5431 C.ar    
  13 C13            7.6983     2.5676    -0.3955 C.ar    
  14 C14            6.3180     2.6099    -0.4111 C.ar    
  15 O15            9.7168     1.3157    -0.5276 O.3     
  16 N16           11.6541     0.6828    -4.1130 N.ar    
  17 C17           12.3975     0.9307    -3.0281 C.ar    
  18 C18           11.7714     1.1537    -1.7775 C.ar    
  19 C19           10.3606     1.1090    -1.7024 C.ar    
  20 C20            9.6568     0.8472    -2.8650 C.ar    
  21 C21           10.3437     0.6391    -4.0541 C.ar    
  22 O22            1.5773     2.7977    -0.6388 O.2     
  23 C23           -1.2044     2.1674    -0.1245 C.ar    
  24 C24           12.5525     1.4124    -0.6418 C.ar    
  25 C25           13.9089     1.4480    -0.7463 C.ar    
  26 C26           14.5374     1.2294    -1.9756 C.ar    
  27 C27           13.7985     0.9734    -3.1085 C.ar    
  28 C28           -2.1692     2.1568     0.8745 C.ar    
  29 C29           -3.2752     2.9778     0.7729 C.ar    
  30 C30           -3.4227     3.8093    -0.3220 C.ar    
  31 C31           -2.4641     3.8219    -1.3186 C.ar    
  32 C32           -1.3527     3.0079    -1.2201 C.ar    
  33 O33           15.8929     1.2708    -2.0534 O.3     
  34 C34           16.6041     1.5417    -0.8439 C.3     
  35 C35           -1.9134    -1.3728    -0.5460 C.3     
  36 C36           -3.0905    -2.2694    -0.1568 C.3     
  37 C37            1.5551    -1.9120     0.6854 C.3     
  38 N38           -0.9041    -2.1702    -1.2554 N.3     
  39 C39            7.6295     0.1852    -0.7129 C.ar    
  40 F40            8.2717    -0.9941    -0.8618 F       
  41 H41            3.7324     2.2874    -0.8839 H       
  42 H42           -1.0205    -1.5696     1.4046 H       
  43 H43           -2.0136    -0.1075     1.1946 H       
  44 H44            5.6810    -0.6829    -0.8606 H       
  45 H45            8.2648     3.4783    -0.2680 H       
  46 H46            5.8055     3.5535    -0.2957 H       
  47 H47            8.5778     0.8046    -2.8476 H       
  48 H48            9.7840     0.4360    -4.9552 H       
  49 H49           12.0787     1.5833     0.3135 H       
  50 H50           14.5068     1.6479     0.1306 H       
  51 H51           14.2937     0.8056    -4.0535 H       
  52 H52           -2.0550     1.5071     1.7295 H       
  53 H53           -4.0258     2.9700     1.5494 H       
  54 H54           -4.2887     4.4501    -0.3992 H       
  55 H55           -2.5826     4.4720    -2.1729 H       
  56 H56           -0.6042     3.0185    -1.9986 H       
  57 H57           17.6753     1.5465    -1.0456 H       
  58 H58           16.3032     2.5147    -0.4556 H       
  59 H59           16.3764     0.7706    -0.1080 H       
  60 H60           -2.2661    -0.5719    -1.1958 H       
  61 H61           -2.7378    -3.0704     0.4930 H       
  62 H62           -3.8394    -1.6778     0.3696 H       
  63 H63           -3.5328    -2.6990    -1.0557 H       
  64 H64            1.5293    -2.5283    -0.2132 H       
  65 H65            2.5635    -1.9150     1.0992 H       
  66 H66            0.8590    -2.3139     1.4217 H       
  67 H67           -0.5147    -2.8796    -0.6527 H       
  68 H68           -1.2899    -2.5794    -2.0931 H       
@<TRIPOS>BOND
   1    1    2 1
   2    1    5 am
   3    1   23 1
   4    2    3 1
   5    2    9 1
   6    3    4 2
   7    3   37 1
   8    4    5 1
   9    4    6 1
  10    5   22 2
  11    6    7 2
  12    6    8 am
  13    8   10 1
  14    8   41 1
  15    9   35 1
  16    9   42 1
  17    9   43 1
  18   10   11 ar
  19   10   14 ar
  20   11   39 ar
  21   11   44 1
  22   12   13 ar
  23   12   15 1
  24   12   39 ar
  25   13   14 ar
  26   13   45 1
  27   14   46 1
  28   15   19 1
  29   16   17 ar
  30   16   21 ar
  31   17   18 ar
  32   17   27 ar
  33   18   19 ar
  34   18   24 ar
  35   19   20 ar
  36   20   21 ar
  37   20   47 1
  38   21   48 1
  39   23   28 ar
  40   23   32 ar
  41   24   25 ar
  42   24   49 1
  43   25   26 ar
  44   25   50 1
  45   26   27 ar
  46   26   33 1
  47   27   51 1
  48   28   29 ar
  49   28   52 1
  50   29   30 ar
  51   29   53 1
  52   30   31 ar
  53   30   54 1
  54   31   32 ar
  55   31   55 1
  56   32   56 1
  57   33   34 1
  58   34   57 1
  59   34   58 1
  60   34   59 1
  61   35   36 1
  62   35   38 1
  63   35   60 1
  64   36   61 1
  65   36   62 1
  66   36   63 1
  67   37   64 1
  68   37   65 1
  69   37   66 1
  70   38   67 1
  71   38   68 1
  72   39   40 1

#	End of record

