#	Name: ASD09740049
#	Creating user name:	WinNT
#	Creation time:	15. 06. 2019 21:22

#	Modifying user name:	WinNT
#	Modification time:	15. 06. 2019 21:22

#	Program:	/corina/corina34_cracker 3.40 0067  02.08.2006

@<TRIPOS>MOLECULE
ASD09740049
  50   53    0    0    0
SMALL
NO_CHARGES


@<TRIPOS>ATOM
   1 N1            -0.0144     1.2085     0.0087 N.2     
   2 O2             0.0021    -0.0041     0.0020 O.3     
   3 C3             1.2067     1.6802    -0.0004 C.2     
   4 N4             2.0465     0.6237    -0.0141 N.2     
   5 C5             1.2701    -0.4443    -0.0125 C.2     
   6 C6             1.7122    -1.8534    -0.0242 C.ar    
   7 C7             1.5956     3.1116     0.0035 C.ar    
   8 C8             0.7682    -2.8833    -0.0208 C.ar    
   9 C9             3.0743    -2.1591    -0.0447 C.ar    
  10 C10            3.4855    -3.4752    -0.0567 C.ar    
  11 C11            2.5483    -4.4982    -0.0483 C.ar    
  12 C12            1.1867    -4.1999    -0.0323 C.ar    
  13 C13            0.6173     4.1040     0.0187 C.ar    
  14 C14            0.9824     5.4337     0.0229 C.ar    
  15 C15            2.3212     5.7987     0.0120 C.ar    
  16 C16            3.3007     4.8004    -0.0037 C.ar    
  17 C17            2.9424     3.4727    -0.0021 C.ar    
  18 C18           -1.9813    -6.0822     0.0003 C.3     
  19 C19           -3.4565    -5.6770     0.0178 C.3     
  20 C20            0.1420     6.6910     0.0387 C.3     
  21 C21            1.1654     7.8383     0.0357 C.3     
  22 N22            2.4762     7.1838     0.0189 N.pl3   
  23 O23            0.2704    -5.2048    -0.0237 O.3     
  24 C24           -1.1074    -4.8263    -0.0074 C.3     
  25 O25            2.9583    -5.7934    -0.0611 O.3     
  26 C26            4.3679    -6.0274    -0.0828 C.3     
  27 C27            4.6346    -7.5339    -0.0945 C.3     
  28 H28           -0.2864    -2.6507    -0.0087 H       
  29 H29            3.8059    -1.3647    -0.0516 H       
  30 H30            4.5395    -3.7103    -0.0729 H       
  31 H31           -0.4277     3.8314     0.0269 H       
  32 H32            4.3454     5.0741    -0.0125 H       
  33 H33            3.7054     2.7085    -0.0139 H       
  34 H34           -1.7569    -6.6756     0.8867 H       
  35 H35           -1.7771    -6.6723    -0.8932 H       
  36 H36           -3.6606    -5.0869     0.9112 H       
  37 H37           -3.6809    -5.0836    -0.8686 H       
  38 H38           -4.0790    -6.5717     0.0232 H       
  39 H39           -0.4867     6.7397    -0.8504 H       
  40 H40           -0.4692     6.7288     0.9405 H       
  41 H41            1.0394     8.4551    -0.8541 H       
  42 H42            1.0569     8.4442     0.9353 H       
  43 H43            3.3282     7.6473     0.0134 H       
  44 H44           -1.3318    -4.2330    -0.8938 H       
  45 H45           -1.3116    -4.2362     0.8861 H       
  46 H46            4.7975    -5.5754    -0.9768 H       
  47 H47            4.8234    -5.5847     0.8030 H       
  48 H48            4.2050    -7.9860     0.7995 H       
  49 H49            4.1791    -7.9767    -0.9803 H       
  50 H50            5.7098    -7.7124    -0.1111 H       
@<TRIPOS>BOND
   1    1    2 1
   2    1    3 2
   3    2    5 1
   4    3    4 1
   5    3    7 1
   6    4    5 2
   7    5    6 1
   8    6    8 ar
   9    6    9 ar
  10    7   13 ar
  11    7   17 ar
  12    8   12 ar
  13    8   28 1
  14    9   10 ar
  15    9   29 1
  16   10   11 ar
  17   10   30 1
  18   11   12 ar
  19   11   25 1
  20   12   23 1
  21   13   14 ar
  22   13   31 1
  23   14   15 ar
  24   14   20 1
  25   15   16 ar
  26   15   22 1
  27   16   17 ar
  28   16   32 1
  29   17   33 1
  30   18   19 1
  31   18   24 1
  32   18   34 1
  33   18   35 1
  34   19   36 1
  35   19   37 1
  36   19   38 1
  37   20   21 1
  38   20   39 1
  39   20   40 1
  40   21   22 1
  41   21   41 1
  42   21   42 1
  43   22   43 1
  44   23   24 1
  45   24   44 1
  46   24   45 1
  47   25   26 1
  48   26   27 1
  49   26   46 1
  50   26   47 1
  51   27   48 1
  52   27   49 1
  53   27   50 1

#	End of record

