#	Name: ASD08070660
#	Creating user name:	WinNT
#	Creation time:	15. 06. 2019 21:15

#	Modifying user name:	WinNT
#	Modification time:	15. 06. 2019 21:15

#	Program:	/corina/corina34_cracker 3.40 0067  02.08.2006

@<TRIPOS>MOLECULE
ASD08070660
  44   44    0    0    0
SMALL
NO_CHARGES


@<TRIPOS>ATOM
   1 C1            -0.0180     1.4742     0.0101 C.2     
   2 C2             0.0021    -0.0041     0.0020 C.ar    
   3 C3             1.2186    -0.6886    -0.0133 C.ar    
   4 C4             1.2303    -2.0679    -0.0203 C.ar    
   5 C5             0.0396    -2.7730    -0.0127 C.ar    
   6 C6            -1.1694    -2.1008     0.0024 C.ar    
   7 C7            -1.1950    -0.7213     0.0154 C.ar    
   8 O8             1.0263     2.0963     0.0035 O.2     
   9 N9            -1.1942     2.1322     0.0193 N.am    
  10 C10            0.0601    -4.2798    -0.0215 C.3     
  11 C11            2.5426    -2.8085    -0.0368 C.3     
  12 C12           -1.1021     4.1165    -1.4074 C.3     
  13 C13           -1.2141     3.5970     0.0274 C.3     
  14 C14           -2.5253     4.0859     0.6459 C.3     
  15 C15           -2.5803     3.6722     2.1179 C.3     
  16 C16           -1.4744     4.3927     2.8917 C.3     
  17 C17           -3.9421     4.0507     2.7035 C.3     
  18 O18           -2.2611     3.7267    -2.1469 O.3     
  19 C19           -2.2568     4.1642    -3.5073 C.3     
  20 H20            2.1485    -0.1394    -0.0199 H       
  21 H21           -2.0951    -2.6570     0.0083 H       
  22 H22           -2.1395    -0.1977     0.0314 H       
  23 H23           -2.0276     1.6358     0.0206 H       
  24 H24            0.0750    -4.6490     1.0040 H       
  25 H25           -0.8299    -4.6523    -0.5288 H       
  26 H26            0.9498    -4.6281    -0.5460 H       
  27 H27            2.8690    -2.9923     0.9868 H       
  28 H28            2.4166    -3.7596    -0.5542 H       
  29 H29            3.2914    -2.2095    -0.5550 H       
  30 H30           -1.0275     5.2039    -1.3953 H       
  31 H31           -0.2129     3.6965    -1.8775 H       
  32 H32           -0.3745     3.9686     0.6149 H       
  33 H33           -2.5795     5.1720     0.5714 H       
  34 H34           -3.3662     3.6427     0.1123 H       
  35 H35           -2.4371     2.5947     2.1981 H       
  36 H36           -1.6176     5.4703     2.8115 H       
  37 H37           -1.5135     4.0980     3.9404 H       
  38 H38           -0.5041     4.1231     2.4745 H       
  39 H39           -4.7300     3.5374     2.1522 H       
  40 H40           -3.9813     3.7560     3.7522 H       
  41 H41           -4.0854     5.1283     2.6233 H       
  42 H42           -1.3916     3.7452    -4.0210 H       
  43 H43           -3.1695     3.8286    -3.9998 H       
  44 H44           -2.2061     5.2526    -3.5388 H       
@<TRIPOS>BOND
   1    1    2 1
   2    1    8 2
   3    1    9 am
   4    2    3 ar
   5    2    7 ar
   6    3    4 ar
   7    3   20 1
   8    4    5 ar
   9    4   11 1
  10    5    6 ar
  11    5   10 1
  12    6    7 ar
  13    6   21 1
  14    7   22 1
  15    9   13 1
  16    9   23 1
  17   10   24 1
  18   10   25 1
  19   10   26 1
  20   11   27 1
  21   11   28 1
  22   11   29 1
  23   12   18 1
  24   12   13 1
  25   12   30 1
  26   12   31 1
  27   13   14 1
  28   13   32 1
  29   14   15 1
  30   14   33 1
  31   14   34 1
  32   15   16 1
  33   15   17 1
  34   15   35 1
  35   16   36 1
  36   16   37 1
  37   16   38 1
  38   17   39 1
  39   17   40 1
  40   17   41 1
  41   18   19 1
  42   19   42 1
  43   19   43 1
  44   19   44 1

#	End of record

