#	Name: ASD03430888
#	Creating user name:	WinNT
#	Creation time:	15. 06. 2019 20:41

#	Modifying user name:	WinNT
#	Modification time:	15. 06. 2019 20:41

#	Program:	/corina/corina34_cracker 3.40 0067  02.08.2006

@<TRIPOS>MOLECULE
ASD03430888
  30   33    0    0    0
SMALL
NO_CHARGES


@<TRIPOS>ATOM
   1 O1            -0.0175     1.4358     0.0099 O.3     
   2 C2             0.0021    -0.0041     0.0020 C.3     
   3 C3             1.3431    -0.3163    -0.6763 C.3     
   4 C4             2.1583     0.9214    -0.4130 C.ar    
   5 C5             1.2605     1.9064     0.0003 C.ar    
   6 C6             1.7439     3.1712     0.3307 C.ar    
   7 C7             3.0901     3.4510     0.2421 C.ar    
   8 C8             3.9856     2.4617    -0.1826 C.ar    
   9 C9             3.5017     1.1913    -0.5091 C.ar    
  10 N10            2.1476    -2.4053    -1.1383 N.am    
  11 C11            1.9815    -1.5512    -0.1087 C.2     
  12 C12            1.1787    -0.5912    -2.1415 C.ar    
  13 C13            0.6663     0.1342    -3.1939 C.ar    
  14 C14            0.6512    -0.4076    -4.4668 C.ar    
  15 C15            1.1525    -1.6789    -4.6797 C.ar    
  16 C16            1.6677    -2.4092    -3.6291 C.ar    
  17 C17            1.6868    -1.8718    -2.3443 C.ar    
  18 O18            2.2879    -1.7425     1.0491 O.2     
  19 F19            3.5465     4.6810     0.5647 F       
  20 C20            5.3850     2.7487    -0.2815 C.1     
  21 N21            6.4952     2.9764    -0.3600 N.1     
  22 H22           -0.0180    -0.3968     1.0186 H       
  23 H23           -0.8286    -0.3990    -0.5829 H       
  24 H24            1.0577     3.9381     0.6585 H       
  25 H25            4.1845     0.4218    -0.8376 H       
  26 H26            2.5413    -3.2876    -1.0518 H       
  27 H27            0.2755     1.1268    -3.0254 H       
  28 H28            0.2487     0.1607    -5.2923 H       
  29 H29            1.1402    -2.1021    -5.6733 H       
  30 H30            2.0572    -3.4013    -3.8032 H       
@<TRIPOS>BOND
   1    1    2 1
   2    1    5 1
   3    2    3 1
   4    2   22 1
   5    2   23 1
   6    3    4 1
   7    3   11 1
   8    3   12 1
   9    4    5 ar
  10    4    9 ar
  11    5    6 ar
  12    6    7 ar
  13    6   24 1
  14    7    8 ar
  15    7   19 1
  16    8    9 ar
  17    8   20 1
  18    9   25 1
  19   10   11 am
  20   10   17 1
  21   10   26 1
  22   11   18 2
  23   12   13 ar
  24   12   17 ar
  25   13   14 ar
  26   13   27 1
  27   14   15 ar
  28   14   28 1
  29   15   16 ar
  30   15   29 1
  31   16   17 ar
  32   16   30 1
  33   20   21 3

#	End of record

