#	Name: ASD00122046
#	Creating user name:	WinNT
#	Creation time:	15. 06. 2019 18:31

#	Modifying user name:	WinNT
#	Modification time:	15. 06. 2019 18:31

#	Program:	/corina/corina34_cracker 3.40 0067  02.08.2006

@<TRIPOS>MOLECULE
ASD00122046
  36   36    0    0    0
SMALL
NO_CHARGES


@<TRIPOS>ATOM
   1 C1            -0.0166     1.3728     0.0096 C.ar    
   2 C2             0.0021    -0.0041     0.0020 C.ar    
   3 C3             1.2226    -0.6843    -0.0133 C.ar    
   4 C4             2.4197     0.0363    -0.0208 C.ar    
   5 C5             2.3926     1.4130    -0.0132 C.ar    
   6 C6             1.1765     2.0859     0.0020 C.ar    
   7 O7             1.1539     3.4428     0.0095 O.3     
   8 C8            -0.1299     4.0702     0.0251 C.3     
   9 C9             0.0453     5.5901     0.0316 C.3     
  10 C10            1.2471    -2.1601    -0.0209 C.2     
  11 O11            0.2045    -2.7855    -0.0140 O.2     
  12 N12            2.4253    -2.8144    -0.0357 N.am    
  13 C13            2.4497    -4.2792    -0.0433 C.3     
  14 C14            3.9004    -4.7650    -0.0598 C.3     
  15 C15            3.9259    -6.2948    -0.0678 C.3     
  16 O16            5.2809    -6.7486    -0.0832 O.3     
  17 C17            5.4174    -8.1710    -0.0917 C.3     
  18 H18           -0.9595     1.8993     0.0169 H       
  19 H19           -0.9253    -0.5575     0.0082 H       
  20 H20            3.3651    -0.4858    -0.0323 H       
  21 H21            3.3175     1.9707    -0.0186 H       
  22 H22           -0.6904     3.7729    -0.8612 H       
  23 H23           -0.6735     3.7633     0.9187 H       
  24 H24            0.5888     5.8971    -0.8619 H       
  25 H25           -0.9340     6.0687     0.0435 H       
  26 H26            0.6058     5.8875     0.9179 H       
  27 H27            3.2571    -2.3155    -0.0412 H       
  28 H28            1.9507    -4.6555     0.8497 H       
  29 H29            1.9334    -4.6466    -0.9302 H       
  30 H30            4.3995    -4.3887    -0.9528 H       
  31 H31            4.4168    -4.3977     0.8270 H       
  32 H32            3.4269    -6.6711     0.8252 H       
  33 H33            3.4096    -6.6622    -0.9547 H       
  34 H34            6.4750    -8.4344    -0.1033 H       
  35 H35            4.9493    -8.5863     0.8008 H       
  36 H36            4.9320    -8.5773    -0.9791 H       
@<TRIPOS>BOND
   1    1    2 ar
   2    1    6 ar
   3    1   18 1
   4    2    3 ar
   5    2   19 1
   6    3    4 ar
   7    3   10 1
   8    4    5 ar
   9    4   20 1
  10    5    6 ar
  11    5   21 1
  12    6    7 1
  13    7    8 1
  14    8    9 1
  15    8   22 1
  16    8   23 1
  17    9   24 1
  18    9   25 1
  19    9   26 1
  20   10   11 2
  21   10   12 am
  22   12   13 1
  23   12   27 1
  24   13   14 1
  25   13   28 1
  26   13   29 1
  27   14   15 1
  28   14   30 1
  29   14   31 1
  30   15   16 1
  31   15   32 1
  32   15   33 1
  33   16   17 1
  34   17   34 1
  35   17   35 1
  36   17   36 1

#	End of record

