#	Name: ASD00450080
#	Creating user name:	WinNT
#	Creation time:	15. 06. 2019 18:36

#	Modifying user name:	WinNT
#	Modification time:	15. 06. 2019 18:36

#	Program:	/corina/corina34_cracker 3.40 0067  02.08.2006

@<TRIPOS>MOLECULE
ASD00450080
  50   52    0    0    0
SMALL
NO_CHARGES


@<TRIPOS>ATOM
   1 C1            -0.5126     1.5338     0.4461 C.ar    
   2 C2            -0.5139     0.1309     0.4074 C.ar    
   3 C3             0.6649    -0.5646     0.6126 C.ar    
   4 C4             1.8460     0.1186     0.8564 C.ar    
   5 C5             1.8604     1.5035     0.8975 C.ar    
   6 C6             0.6889     2.2195     0.6934 C.ar    
   7 C7            -1.7589     2.2814     0.2233 C.2     
   8 O8            -2.4762     2.5623     1.1648 O.2     
   9 N9            -2.1066     2.6553    -1.0240 N.am    
  10 N10            0.7040     3.6097     0.7338 N.pl3   
  11 C11            1.9123     4.3004     0.5928 C.ar    
  12 C12            2.5633     4.3222    -0.6362 C.ar    
  13 C13            2.4615     4.9705     1.6778 C.ar    
  14 C14            3.6547     5.6518     1.5357 C.ar    
  15 C15            4.3034     5.6679     0.3140 C.ar    
  16 C16            3.7575     5.0061    -0.7713 C.ar    
  17 F17            2.9908    -0.5705     1.0558 F       
  18 F18            2.0301     3.6759    -1.6960 F       
  19 I19            6.1121     6.7041     0.1046 I       
  20 F20            3.0176     2.1586     1.1365 F       
  21 O21           -1.6680    -0.5419     0.1699 O.3     
  22 C22           -1.6090    -1.8962     0.0749 C.ar    
  23 C23           -1.5436    -2.6697     1.2232 C.ar    
  24 C24           -1.4839    -4.0530     1.1225 C.ar    
  25 C25           -1.4899    -4.6574    -0.1285 C.ar    
  26 C26           -1.5552    -3.8828    -1.2707 C.ar    
  27 C27           -1.6200    -2.5061    -1.1722 C.ar    
  28 N28           -1.4174    -4.8360     2.2771 N.am    
  29 S29           -2.7622    -5.0314     3.2236 S.o2    
  30 O30           -2.3243    -5.8670     4.2863 O.2     
  31 O31           -3.2120    -3.7064     3.4712 O.2     
  32 C32           -3.9382    -5.9150     2.1622 C.3     
  33 C33           -5.2764    -6.0558     2.8905 C.3     
  34 H34            0.6645    -1.6442     0.5830 H       
  35 H35           -1.5346     2.4313    -1.7747 H       
  36 H36           -2.9288     3.1485    -1.1710 H       
  37 H37           -0.1232     4.1002     0.8599 H       
  38 H38            1.9559     4.9595     2.6321 H       
  39 H39            4.0818     6.1730     2.3797 H       
  40 H40            4.2644     5.0237    -1.7248 H       
  41 H41           -1.5387    -2.1971     2.1943 H       
  42 H42           -1.4432    -5.7335    -0.2082 H       
  43 H43           -1.5598    -4.3544    -2.2422 H       
  44 H44           -1.6710    -1.9033    -2.0669 H       
  45 H45           -0.5836    -5.2653     2.5247 H       
  46 H46           -4.0846    -5.3559     1.2380 H       
  47 H47           -3.5452    -6.9048     1.9297 H       
  48 H48           -5.1300    -6.6148     3.8146 H       
  49 H49           -5.6694    -5.0660     3.1229 H       
  50 H50           -5.9831    -6.5867     2.2527 H       
@<TRIPOS>BOND
   1    1    2 ar
   2    1    6 ar
   3    1    7 1
   4    2    3 ar
   5    2   21 1
   6    3    4 ar
   7    3   34 1
   8    4    5 ar
   9    4   17 1
  10    5    6 ar
  11    5   20 1
  12    6   10 1
  13    7    8 2
  14    7    9 am
  15    9   35 1
  16    9   36 1
  17   10   11 1
  18   10   37 1
  19   11   13 ar
  20   11   12 ar
  21   12   16 ar
  22   12   18 1
  23   13   14 ar
  24   13   38 1
  25   14   15 ar
  26   14   39 1
  27   15   16 ar
  28   15   19 1
  29   16   40 1
  30   21   22 1
  31   22   23 ar
  32   22   27 ar
  33   23   24 ar
  34   23   41 1
  35   24   25 ar
  36   24   28 1
  37   25   26 ar
  38   25   42 1
  39   26   27 ar
  40   26   43 1
  41   27   44 1
  42   28   29 am
  43   28   45 1
  44   29   30 2
  45   29   31 2
  46   29   32 1
  47   32   33 1
  48   32   46 1
  49   32   47 1
  50   33   48 1
  51   33   49 1
  52   33   50 1

#	End of record

