#	Name: ASD08150982
#	Creating user name:	WinNT
#	Creation time:	15. 06. 2019 21:16

#	Modifying user name:	WinNT
#	Modification time:	15. 06. 2019 21:16

#	Program:	/corina/corina34_cracker 3.40 0067  02.08.2006

@<TRIPOS>MOLECULE
ASD08150982
  55   58    0    0    0
SMALL
NO_CHARGES


@<TRIPOS>ATOM
   1 N1            -0.2826     1.4144     0.0236 N.2     
   2 C2            -0.6882     0.2778     0.5107 C.2     
   3 N3            -0.3544     0.1906     1.8295 N.pl3   
   4 C4             0.2969     1.3502     2.1665 C.ar    
   5 N5             0.8438     1.8302     3.2785 N.ar    
   6 C6             1.4148     3.0164     3.2874 C.ar    
   7 N7             1.4752     3.7821     2.2134 N.ar    
   8 C8             0.9556     3.3863     1.0558 C.ar    
   9 C9             0.3355     2.1269     0.9960 C.ar    
  10 N10            1.0234     4.1960    -0.0644 N.pl3   
  11 C11            1.6735     5.5064     0.0171 C.3     
  12 C12            2.1701     5.9165    -1.3707 C.3     
  13 C13            1.1435     7.6985     1.0954 C.ar    
  14 C14            0.6850     6.5272     0.5189 C.ar    
  15 C15           -0.6781     6.2825     0.3973 C.ar    
  16 C16           -1.5980     7.1846     0.8397 C.ar    
  17 C17           -1.1763     8.3874     1.4315 C.ar    
  18 C18           -2.1053     9.3350     1.8956 C.ar    
  19 C19           -1.6626    10.4900     2.4636 C.ar    
  20 C20           -0.2997    10.7488     2.5928 C.ar    
  21 C21            0.6279     9.8533     2.1538 C.ar    
  22 C22            0.2087     8.6522     1.5636 C.ar    
  23 C23            2.5977     7.9489     1.2265 C.ar    
  24 C24            3.1932     8.9976     0.5265 C.ar    
  25 C25            4.5502     9.2262     0.6535 C.ar    
  26 C26            5.3174     8.4149     1.4743 C.ar    
  27 C27            4.7305     7.3740     2.1700 C.ar    
  28 C28            3.3751     7.1402     2.0550 C.ar    
  29 F29            5.1296    10.2416    -0.0236 F       
  30 H30           -1.2122    -0.4838    -0.0475 H       
  31 H31           -0.5431    -0.5545     2.4213 H       
  32 H32            1.8499     3.3768     4.2079 H       
  33 H33            0.6404     3.8960    -0.9036 H       
  34 H34            2.5184     5.4507     0.7036 H       
  35 H35            1.3253     5.9722    -2.0571 H       
  36 H36            2.6538     6.8914    -1.3100 H       
  37 H37            2.8851     5.1782    -1.7336 H       
  38 H38           -1.0136     5.3614    -0.0559 H       
  39 H39           -2.6524     6.9753     0.7351 H       
  40 H40           -3.1648     9.1476     1.8016 H       
  41 H41           -2.3782    11.2166     2.8191 H       
  42 H42            0.0259    11.6728     3.0472 H       
  43 H43            1.6812    10.0671     2.2599 H       
  44 H44            2.5954     9.6295    -0.1137 H       
  45 H45            6.3778     8.5961     1.5706 H       
  46 H46            5.3334     6.7449     2.8082 H       
  47 H47            2.9179     6.3294     2.6028 H       
  48 C48           12.5492    18.6611    10.3547 C.2     
  49 C49           12.5696    17.1542    10.3464 C.3     
  50 O50           13.5873    19.2794    10.3481 O.2     
  51 O51           11.3778    19.3164    10.3638 O.3     
  52 F52           13.8948    16.7059    10.3313 F       
  53 F53           11.9275    16.6728    11.4923 F       
  54 F54           11.9057    16.6851     9.2079 F       
  55 H55           11.4153    20.2826    10.3689 H       
@<TRIPOS>BOND
   1    1    2 2
   2    1    9 1
   3    2    3 1
   4    2   30 1
   5    3    4 1
   6    3   31 1
   7    4    5 ar
   8    4    9 ar
   9    5    6 ar
  10    6    7 ar
  11    6   32 1
  12    7    8 ar
  13    8    9 ar
  14    8   10 1
  15   10   11 1
  16   10   33 1
  17   11   12 1
  18   11   14 1
  19   11   34 1
  20   12   35 1
  21   12   36 1
  22   12   37 1
  23   13   14 ar
  24   13   22 ar
  25   13   23 1
  26   14   15 ar
  27   15   16 ar
  28   15   38 1
  29   16   17 ar
  30   16   39 1
  31   17   18 ar
  32   17   22 ar
  33   18   19 ar
  34   18   40 1
  35   19   20 ar
  36   19   41 1
  37   20   21 ar
  38   20   42 1
  39   21   22 ar
  40   21   43 1
  41   23   24 ar
  42   23   28 ar
  43   24   25 ar
  44   24   44 1
  45   25   26 ar
  46   25   29 1
  47   26   27 ar
  48   26   45 1
  49   27   28 ar
  50   27   46 1
  51   28   47 1
  52   48   49 1
  53   48   50 2
  54   48   51 1
  55   49   52 1
  56   49   53 1
  57   49   54 1
  58   51   55 1

#	End of record

