#	Name: ASD01150742
#	Creating user name:	WinNT
#	Creation time:	15. 06. 2019 19:04

#	Modifying user name:	WinNT
#	Modification time:	15. 06. 2019 19:04

#	Program:	/corina/corina34_cracker 3.40 0067  02.08.2006

@<TRIPOS>MOLECULE
ASD01150742
  39   41    0    0    0
SMALL
NO_CHARGES


@<TRIPOS>ATOM
   1 C1            -0.0035     1.4274     0.0441 C.2     
   2 C2            -0.5031     1.0182    -1.3175 C.3     
   3 F3            -1.6216     0.1902    -1.1744 F       
   4 F4            -0.8572     2.1586    -2.0464 F       
   5 F5             0.5058     0.3259    -1.9958 F       
   6 N6             3.5637     2.3092     0.4788 N.ar    
   7 C7             2.4624     1.6142     0.3667 C.ar    
   8 C8             1.2153     2.2340     0.1661 C.ar    
   9 C9             1.1519     3.6370     0.0835 C.ar    
  10 C10            2.3643     4.3595     0.2087 C.ar    
  11 C11            2.3839     5.7585     0.1379 C.ar    
  12 C12            3.5817     6.4276     0.2644 C.ar    
  13 C13            4.7710     5.7215     0.4614 C.ar    
  14 C14            4.7753     4.3621     0.5329 C.ar    
  15 C15            3.5725     3.6476     0.4090 C.ar    
  16 O16            3.6065     7.7846     0.1965 O.3     
  17 C17            4.8800     8.4179     0.3351 C.3     
  18 F18            5.7340     7.9751    -0.6806 F       
  19 F19            4.7237     9.8050     0.2412 F       
  20 F20            5.4290     8.0937     1.5804 F       
  21 C21            2.5299     0.1113     0.4556 C.3     
  22 C22           -0.1342     4.3328    -0.1268 C.ar    
  23 C23           -1.1328     4.2707     0.8479 C.ar    
  24 C24           -2.3308     4.9227     0.6458 C.ar    
  25 C25           -2.5453     5.6378    -0.5210 C.ar    
  26 C26           -1.5591     5.7028    -1.4916 C.ar    
  27 C27           -0.3545     5.0604    -1.2987 C.ar    
  28 Cl28          -4.0566     6.4555    -0.7682 Cl      
  29 O29           -0.6122     1.0938     1.0391 O.2     
  30 H30            1.4670     6.3084    -0.0151 H       
  31 H31            5.7009     6.2622     0.5582 H       
  32 H32            5.7043     3.8327     0.6849 H       
  33 H33            2.4873    -0.1931     1.5013 H       
  34 H34            1.6881    -0.3227    -0.0838 H       
  35 H35            3.4633    -0.2372     0.0135 H       
  36 H36           -0.9670     3.7129     1.7578 H       
  37 H37           -3.1037     4.8755     1.3987 H       
  38 H38           -1.7325     6.2617    -2.3994 H       
  39 H39            0.4153     5.1155    -2.0543 H       
@<TRIPOS>BOND
   1    1    2 1
   2    1    8 1
   3    1   29 2
   4    2    3 1
   5    2    4 1
   6    2    5 1
   7    6    7 ar
   8    6   15 ar
   9    7    8 ar
  10    7   21 1
  11    8    9 ar
  12    9   10 ar
  13    9   22 1
  14   10   11 ar
  15   10   15 ar
  16   11   12 ar
  17   11   30 1
  18   12   13 ar
  19   12   16 1
  20   13   14 ar
  21   13   31 1
  22   14   15 ar
  23   14   32 1
  24   16   17 1
  25   17   18 1
  26   17   19 1
  27   17   20 1
  28   21   33 1
  29   21   34 1
  30   21   35 1
  31   22   23 ar
  32   22   27 ar
  33   23   24 ar
  34   23   36 1
  35   24   25 ar
  36   24   37 1
  37   25   26 ar
  38   25   28 1
  39   26   27 ar
  40   26   38 1
  41   27   39 1

#	End of record

