#	Name: ASD01811267
#	Creating user name:	WinNT
#	Creation time:	15. 06. 2019 19:26

#	Modifying user name:	WinNT
#	Modification time:	15. 06. 2019 19:26

#	Program:	/corina/corina34_cracker 3.40 0067  02.08.2006

@<TRIPOS>MOLECULE
ASD01811267
  58   61    0    0    0
SMALL
NO_CHARGES


@<TRIPOS>ATOM
   1 C1             6.8766    11.1224    -0.9409 C.1     
   2 C2             5.6131    10.4874    -0.7155 C.ar    
   3 C3             5.5556     9.1222    -0.4281 C.ar    
   4 C4             4.3350     8.5168    -0.2121 C.ar    
   5 C5             3.1694     9.2592    -0.2803 C.ar    
   6 C6             3.2190    10.6122    -0.5651 C.ar    
   7 C7             4.4333    11.2317    -0.7766 C.ar    
   8 N8             7.8790    11.6262    -1.1196 N.1     
   9 N9            -0.9805     8.5553     0.1706 N.am    
  10 C10           -0.1913     8.5432     1.4099 C.3     
  11 C11            1.1441     9.2477     1.1508 C.3     
  12 C12            1.8396     8.5908    -0.0437 C.3     
  13 C13            0.9650     8.7399    -1.2906 C.3     
  14 C14           -0.3725     8.0296    -1.0593 C.3     
  15 C15           -2.2403     9.0343     0.1634 C.2     
  16 C16           -2.8832     9.4426     1.4308 C.ar    
  17 C17           -2.7233     8.6639     2.5796 C.ar    
  18 C18           -3.3233     9.0435     3.7636 C.ar    
  19 C19           -4.0845    10.1944     3.8211 C.ar    
  20 C20           -4.2525    10.9820     2.6801 C.ar    
  21 C21           -3.6449    10.6076     1.4833 C.ar    
  22 O22           -2.8479     9.1305    -0.8849 O.2     
  23 C23           -4.7358    10.6009     5.1179 C.3     
  24 C24           -5.0682    12.2136     2.7434 C.2     
  25 N25           -5.3390    12.9012     1.6163 N.am    
  26 O26           -5.4946    12.6059     3.8119 O.2     
  27 C27           -6.1472    14.1215     1.6790 C.3     
  28 C28           -5.8937    15.0040     0.4326 C.3     
  29 C29           -7.6476    13.7793     1.6006 C.3     
  30 O30           -8.1801    14.4536     0.4482 O.3     
  31 C31           -7.0882    14.6274    -0.4804 C.3     
  32 H32            6.4647     8.5414    -0.3753 H       
  33 H33            4.2891     7.4610     0.0103 H       
  34 H34            2.3053    11.1857    -0.6171 H       
  35 H35            4.4710    12.2889    -0.9941 H       
  36 H36           -0.7354     9.0686     2.1947 H       
  37 H37           -0.0078     7.5134     1.7162 H       
  38 H38            0.9639    10.3004     0.9330 H       
  39 H39            1.7781     9.1617     2.0334 H       
  40 H40            1.9971     7.5325     0.1648 H       
  41 H41            0.7864     9.7973    -1.4854 H       
  42 H42            1.4714     8.2923    -2.1458 H       
  43 H43           -0.2037     6.9579    -0.9543 H       
  44 H44           -1.0361     8.2161    -1.9036 H       
  45 H45           -2.1293     7.7627     2.5413 H       
  46 H46           -3.1972     8.4376     4.6486 H       
  47 H47           -3.7680    11.2156     0.5992 H       
  48 H48           -4.1094    11.3352     5.6245 H       
  49 H49           -5.7133    11.0372     4.9124 H       
  50 H50           -4.8557     9.7245     5.7548 H       
  51 H51           -4.9987    12.5882     0.7636 H       
  52 H52           -5.9295    14.6757     2.5920 H       
  53 H53           -5.9215    16.0621     0.6929 H       
  54 H54           -4.9461    14.7460    -0.0405 H       
  55 H55           -7.7770    12.7024     1.4926 H       
  56 H56           -8.1546    14.1271     2.5007 H       
  57 H57           -7.3050    15.4336    -1.1811 H       
  58 H58           -6.8860    13.6983    -1.0133 H       
@<TRIPOS>BOND
   1    1    2 1
   2    1    8 3
   3    2    3 ar
   4    2    7 ar
   5    3    4 ar
   6    3   32 1
   7    4    5 ar
   8    4   33 1
   9    5    6 ar
  10    5   12 1
  11    6    7 ar
  12    6   34 1
  13    7   35 1
  14    9   10 1
  15    9   14 1
  16    9   15 am
  17   10   11 1
  18   10   36 1
  19   10   37 1
  20   11   12 1
  21   11   38 1
  22   11   39 1
  23   12   13 1
  24   12   40 1
  25   13   14 1
  26   13   41 1
  27   13   42 1
  28   14   43 1
  29   14   44 1
  30   15   16 1
  31   15   22 2
  32   16   17 ar
  33   16   21 ar
  34   17   18 ar
  35   17   45 1
  36   18   19 ar
  37   18   46 1
  38   19   20 ar
  39   19   23 1
  40   20   21 ar
  41   20   24 1
  42   21   47 1
  43   23   48 1
  44   23   49 1
  45   23   50 1
  46   24   25 am
  47   24   26 2
  48   25   27 1
  49   25   51 1
  50   27   29 1
  51   27   28 1
  52   27   52 1
  53   28   31 1
  54   28   53 1
  55   28   54 1
  56   29   30 1
  57   29   55 1
  58   29   56 1
  59   30   31 1
  60   31   57 1
  61   31   58 1

#	End of record

