#	Name: ASD00310352
#	Creating user name:	WinNT
#	Creation time:	15. 06. 2019 18:34

#	Modifying user name:	WinNT
#	Modification time:	15. 06. 2019 18:34

#	Program:	/corina/corina34_cracker 3.40 0067  02.08.2006

@<TRIPOS>MOLECULE
ASD00310352
  48   51    0    0    0
SMALL
NO_CHARGES


@<TRIPOS>ATOM
   1 N1            -0.0028     1.1020     0.0043 N.pl3   
   2 N2             0.0335    -0.1809    -0.0185 N.2     
   3 C3             1.2675    -0.6384    -0.0390 C.2     
   4 C4             2.1453     0.5404    -0.0274 C.ar    
   5 C5             3.5192     0.7516    -0.0377 C.ar    
   6 C6             4.0075     2.0511    -0.0200 C.ar    
   7 C7             3.1201     3.1346     0.0079 C.ar    
   8 C8             1.7701     2.9311     0.0181 C.ar    
   9 C9             1.2596     1.6361     0.0007 C.ar    
  10 C10            1.6852    -2.0499    -0.0674 C.2     
  11 O11            2.8669    -2.3337    -0.0840 O.2     
  12 O12            0.7572    -3.0274    -0.0750 O.3     
  13 Cl13           3.7441     4.7545     0.0304 Cl      
  14 C14            5.4713     2.2925    -0.0302 C.ar    
  15 C15            6.0263     3.1866    -0.9437 C.ar    
  16 C16            7.3886     3.4073    -0.9488 C.ar    
  17 C17            8.2029     2.7430    -0.0493 C.ar    
  18 C18            7.6574     1.8541     0.8594 C.ar    
  19 C19            6.2957     1.6303     0.8775 C.ar    
  20 N20           12.3337     2.5922     0.8638 N.am    
  21 C21           11.6317     3.8152     1.2762 C.3     
  22 C22           10.1259     3.5346     1.3017 C.3     
  23 C23            9.6897     2.9882    -0.0597 C.3     
  24 C24           10.4213     1.6739    -0.3419 C.3     
  25 C25           11.9304     1.9335    -0.3861 C.3     
  26 C26           13.3324     2.0873     1.6149 C.2     
  27 O27           13.8347     1.0234     1.3200 O.2     
  28 C28           13.8251     2.8446     2.8210 C.3     
  29 H29           -0.8189     1.6262     0.0180 H       
  30 H30            4.1999    -0.0867    -0.0589 H       
  31 H31            1.0975     3.7758     0.0400 H       
  32 H32            1.0797    -3.9388    -0.0939 H       
  33 H33            5.3915     3.7056    -1.6467 H       
  34 H34            7.8199     4.0998    -1.6566 H       
  35 H35            8.2978     1.3378     1.5592 H       
  36 H36            5.8703     0.9397     1.5905 H       
  37 H37           11.9653     4.1102     2.2711 H       
  38 H38           11.8424     4.6147     0.5659 H       
  39 H39            9.9058     2.7998     2.0761 H       
  40 H40            9.5872     4.4584     1.5125 H       
  41 H41            9.9328     3.7130    -0.8367 H       
  42 H42           10.1984     0.9566     0.4479 H       
  43 H43           10.0928     1.2735    -1.3010 H       
  44 H44           12.1655     2.5795    -1.2319 H       
  45 H45           12.4611     0.9869    -0.4880 H       
  46 H46           13.3285     3.8137     2.8693 H       
  47 H47           13.6008     2.2760     3.7235 H       
  48 H48           14.9022     2.9917     2.7426 H       
@<TRIPOS>BOND
   1    1    2 1
   2    1    9 1
   3    1   29 1
   4    2    3 2
   5    3    4 1
   6    3   10 1
   7    4    5 ar
   8    4    9 ar
   9    5    6 ar
  10    5   30 1
  11    6    7 ar
  12    6   14 1
  13    7    8 ar
  14    7   13 1
  15    8    9 ar
  16    8   31 1
  17   10   11 2
  18   10   12 1
  19   12   32 1
  20   14   15 ar
  21   14   19 ar
  22   15   16 ar
  23   15   33 1
  24   16   17 ar
  25   16   34 1
  26   17   18 ar
  27   17   23 1
  28   18   19 ar
  29   18   35 1
  30   19   36 1
  31   20   21 1
  32   20   25 1
  33   20   26 am
  34   21   22 1
  35   21   37 1
  36   21   38 1
  37   22   23 1
  38   22   39 1
  39   22   40 1
  40   23   24 1
  41   23   41 1
  42   24   25 1
  43   24   42 1
  44   24   43 1
  45   25   44 1
  46   25   45 1
  47   26   27 2
  48   26   28 1
  49   28   46 1
  50   28   47 1
  51   28   48 1

#	End of record

