#	Name: ASD01940554
#	Creating user name:	WinNT
#	Creation time:	15. 06. 2019 20:12

#	Modifying user name:	WinNT
#	Modification time:	15. 06. 2019 20:12

#	Program:	/corina/corina34_cracker 3.40 0067  02.08.2006

@<TRIPOS>MOLECULE
ASD01940554
  73   78    0    0    0
SMALL
NO_CHARGES


@<TRIPOS>ATOM
   1 C1             0.0885     1.4752    -0.5088 C.ar    
   2 C2             0.4274     0.6425     0.5475 C.ar    
   3 C3             1.6496    -0.0152     0.5443 C.ar    
   4 C4             2.5292     0.1622    -0.5162 C.ar    
   5 C5             2.1886     0.9928    -1.5667 C.ar    
   6 C6             0.9727     1.6484    -1.5665 C.ar    
   7 N7            -1.1462     2.1362    -0.5120 N.am    
   8 C8            -1.1951     3.4815    -0.1912 C.2     
   9 C9            -2.4435     4.1482    -0.1949 C.2     
  10 C10           -3.6497     3.3671    -0.5446 C.2     
  11 N11           -3.4790     2.0088    -0.8519 N.am    
  12 C12           -2.2568     1.4524    -0.8316 C.2     
  13 C13           -0.0568     4.1958     0.1333 C.2     
  14 C14           -0.1688     5.5523     0.4480 C.2     
  15 N15           -1.3637     6.1694     0.4394 N.am    
  16 C16           -2.5069     5.4928     0.1239 C.2     
  17 N17           -3.7158     6.1455     0.1216 N.pl3   
  18 C18           -1.4402     7.5934     0.7752 C.3     
  19 O19            0.8339     6.1876     0.7357 O.2     
  20 C20            1.2894     3.5187     0.1479 C.3     
  21 C21           -4.8589     3.9347    -0.5667 C.2     
  22 C22           -4.5914     1.2283    -1.1887 C.ar    
  23 N23            1.9953    -0.8552     1.6075 N.am    
  24 C24            1.5997    -0.5543     2.8603 C.2     
  25 C25            1.8638    -1.4984     3.9651 C.ar    
  26 O26            1.0253     0.4943     3.0810 O.2     
  27 C27           -4.4976     6.1743     1.2820 C.ar    
  28 C28           -4.0095     5.6325     2.4634 C.ar    
  29 C29           -4.7833     5.6623     3.6073 C.ar    
  30 C30           -6.0441     6.2306     3.5776 C.ar    
  31 C31           -6.5348     6.7717     2.4029 C.ar    
  32 C32           -5.7630     6.7508     1.2556 C.ar    
  33 F33           -6.2398     7.2842     0.1096 F       
  34 O34           -2.1518     0.2736    -1.1095 O.2     
  35 I35           -7.2133     6.2714     5.3155 I       
  36 C36            1.4547    -1.1885     5.2638 C.ar    
  37 C37            1.7045    -2.0759     6.2948 C.ar    
  38 C38            2.3618    -3.2741     6.0382 C.ar    
  39 C39            2.7690    -3.5839     4.7491 C.ar    
  40 C40            2.5182    -2.7056     3.7128 C.ar    
  41 C41           -5.2977     1.4900    -2.3554 C.ar    
  42 C42           -6.3943     0.7179    -2.6850 C.ar    
  43 C43           -6.7893    -0.3149    -1.8546 C.ar    
  44 C44           -6.0882    -0.5781    -0.6921 C.ar    
  45 C45           -4.9875     0.1870    -0.3595 C.ar    
  46 F46            2.6048    -4.1387     7.0474 F       
  47 F47            3.4072    -4.7494     4.5055 F       
  48 O48            1.3076    -1.7763     7.5602 O.3     
  49 H49           -0.2580     0.5066     1.3709 H       
  50 H50            3.4804    -0.3493    -0.5195 H       
  51 H51            2.8744     1.1296    -2.3897 H       
  52 H52            0.7091     2.2963    -2.3893 H       
  53 H53           -4.0274     6.5863    -0.6843 H       
  54 H54           -0.4566     7.9471     1.0845 H       
  55 H55           -1.7703     8.1555    -0.0984 H       
  56 H56           -2.1505     7.7370     1.5894 H       
  57 H57            1.6985     3.5017    -0.8623 H       
  58 H58            1.9650     4.0674     0.8042 H       
  59 H59            1.1786     2.4975     0.5123 H       
  60 H60           -4.9792     4.9616    -0.2546 H       
  61 H61           -5.7161     3.3666    -0.8966 H       
  62 H62            2.5199    -1.6545     1.4435 H       
  63 H63           -3.0256     5.1878     2.4880 H       
  64 H64           -4.4034     5.2408     4.5263 H       
  65 H65           -7.5197     7.2144     2.3828 H       
  66 H66            0.9446    -0.2576     5.4628 H       
  67 H67            2.8318    -2.9508     2.7088 H       
  68 H68           -4.9899     2.2967    -3.0042 H       
  69 H69           -6.9442     0.9212    -3.5920 H       
  70 H70           -7.6474    -0.9171    -2.1143 H       
  71 H71           -6.3994    -1.3852    -0.0454 H       
  72 H72           -4.4378    -0.0217     0.5464 H       
  73 H73            0.4162    -2.0830     7.7758 H       
@<TRIPOS>BOND
   1    1    2 ar
   2    1    6 ar
   3    1    7 1
   4    2    3 ar
   5    2   49 1
   6    3    4 ar
   7    3   23 1
   8    4    5 ar
   9    4   50 1
  10    5    6 ar
  11    5   51 1
  12    6   52 1
  13    7    8 1
  14    7   12 am
  15    8   13 2
  16    8    9 1
  17    9   10 1
  18    9   16 2
  19   10   11 1
  20   10   21 2
  21   11   12 am
  22   11   22 1
  23   12   34 2
  24   13   14 1
  25   13   20 1
  26   14   15 am
  27   14   19 2
  28   15   16 1
  29   15   18 1
  30   16   17 1
  31   17   27 1
  32   17   53 1
  33   18   54 1
  34   18   55 1
  35   18   56 1
  36   20   57 1
  37   20   58 1
  38   20   59 1
  39   21   60 1
  40   21   61 1
  41   22   41 ar
  42   22   45 ar
  43   23   24 am
  44   23   62 1
  45   24   25 1
  46   24   26 2
  47   25   36 ar
  48   25   40 ar
  49   27   28 ar
  50   27   32 ar
  51   28   29 ar
  52   28   63 1
  53   29   30 ar
  54   29   64 1
  55   30   31 ar
  56   30   35 1
  57   31   32 ar
  58   31   65 1
  59   32   33 1
  60   36   37 ar
  61   36   66 1
  62   37   38 ar
  63   37   48 1
  64   38   39 ar
  65   38   46 1
  66   39   40 ar
  67   39   47 1
  68   40   67 1
  69   41   42 ar
  70   41   68 1
  71   42   43 ar
  72   42   69 1
  73   43   44 ar
  74   43   70 1
  75   44   45 ar
  76   44   71 1
  77   45   72 1
  78   48   73 1

#	End of record

