#	Name: ASD01908183
#	Creating user name:	WinNT
#	Creation time:	15. 06. 2019 19:54

#	Modifying user name:	WinNT
#	Modification time:	15. 06. 2019 19:54

#	Program:	/corina/corina34_cracker 3.40 0067  02.08.2006

@<TRIPOS>MOLECULE
ASD01908183
  35   37    0    0    0
SMALL
NO_CHARGES


@<TRIPOS>ATOM
   1 C1            -0.0167     1.3793     0.0096 C.ar    
   2 C2             0.0021    -0.0041     0.0020 C.ar    
   3 C3             1.2203    -0.6679    -0.0132 C.ar    
   4 C4             2.3826     0.0836    -0.0203 C.ar    
   5 C5             2.2906     1.4736    -0.0120 C.ar    
   6 N6             1.1059     2.0711     0.0026 N.ar    
   7 N7             4.8961     4.0000     0.0341 N.pl3   
   8 N8             5.6571     2.8327    -0.1016 N.2     
   9 C9             4.8459     1.8092    -0.1342 C.2     
  10 C10            3.5273     2.2926    -0.0194 C.2     
  11 C11            3.5955     3.6523     0.0828 C.2     
  12 C12            5.4237     5.3642     0.1154 C.3     
  13 C13            6.4272     5.4487     1.2365 C.ar    
  14 C14            7.7632     5.1939     0.9876 C.ar    
  15 C15            8.6850     5.2707     2.0136 C.ar    
  16 C16            8.2693     5.6038     3.2946 C.ar    
  17 C17            6.9283     5.8591     3.5417 C.ar    
  18 C18            6.0112     5.7865     2.5111 C.ar    
  19 O19            9.1742     5.6796     4.3057 O.3     
  20 C20            8.6748     6.0279     5.5985 C.3     
  21 Br21          -1.6739     2.2899     0.0224 Br      
  22 H22           -0.9227    -0.5619     0.0082 H       
  23 H23            1.2607    -1.7471    -0.0191 H       
  24 H24            3.3477    -0.4011    -0.0318 H       
  25 H25            5.1354     0.7733    -0.2326 H       
  26 H26            2.7584     4.3270     0.1848 H       
  27 H27            5.9081     5.6231    -0.8261 H       
  28 H28            4.6061     6.0592     0.3065 H       
  29 H29            8.0863     4.9342    -0.0097 H       
  30 H30            9.7284     5.0712     1.8188 H       
  31 H31            6.6022     6.1186     4.5381 H       
  32 H32            4.9678     5.9897     2.7020 H       
  33 H33            8.2031     7.0096     5.5534 H       
  34 H34            7.9416     5.2868     5.9166 H       
  35 H35            9.4988     6.0532     6.3116 H       
@<TRIPOS>BOND
   1    1    2 ar
   2    1    6 ar
   3    1   21 1
   4    2    3 ar
   5    2   22 1
   6    3    4 ar
   7    3   23 1
   8    4    5 ar
   9    4   24 1
  10    5    6 ar
  11    5   10 1
  12    7    8 1
  13    7   11 1
  14    7   12 1
  15    8    9 2
  16    9   10 1
  17    9   25 1
  18   10   11 2
  19   11   26 1
  20   12   13 1
  21   12   27 1
  22   12   28 1
  23   13   14 ar
  24   13   18 ar
  25   14   15 ar
  26   14   29 1
  27   15   16 ar
  28   15   30 1
  29   16   17 ar
  30   16   19 1
  31   17   18 ar
  32   17   31 1
  33   18   32 1
  34   19   20 1
  35   20   33 1
  36   20   34 1
  37   20   35 1

#	End of record

