#	Name: ASD01410527
#	Creating user name:	WinNT
#	Creation time:	15. 06. 2019 19:18

#	Modifying user name:	WinNT
#	Modification time:	15. 06. 2019 19:18

#	Program:	/corina/corina34_cracker 3.40 0067  02.08.2006

@<TRIPOS>MOLECULE
ASD01410527
  77   80    0    0    0
SMALL
NO_CHARGES


@<TRIPOS>ATOM
   1 C1             3.4828     6.0193    -2.4973 C.ar    
   2 C2             4.2052     5.6555    -3.6251 C.ar    
   3 C3             5.1055     4.6115    -3.5431 C.ar    
   4 N4             5.2845     3.9604    -2.4098 N.ar    
   5 C5             4.6149     4.2776    -1.3138 C.ar    
   6 C6             3.6933     5.3168    -1.3234 C.ar    
   7 O7             4.8300     3.5809    -0.1697 O.3     
   8 C8             5.6620     2.5063    -0.2233 C.ar    
   9 C9             7.0404     2.6913    -0.1511 C.ar    
  10 C10            7.8942     1.6052    -0.2043 C.ar    
  11 C11            7.3815     0.3223    -0.3302 C.ar    
  12 C12            5.9926     0.1303    -0.4035 C.ar    
  13 C13            5.1369     1.2344    -0.3436 C.ar    
  14 F14            7.5458     3.9382    -0.0288 F       
  15 N15            8.2419    -0.7719    -0.3843 N.am    
  16 C16            8.6950    -1.3299     0.7558 C.2     
  17 C17            8.6544    -1.3161    -1.6804 C.3     
  18 O18            9.3929    -2.3244     0.7104 O.2     
  19 C19            8.3438    -0.7337     2.0596 C.ar    
  20 C20            7.1184    -0.0838     2.2270 C.ar    
  21 C21            6.7960     0.4704     3.4468 C.ar    
  22 C22            7.6834     0.3851     4.5078 C.ar    
  23 C23            8.8990    -0.2563     4.3517 C.ar    
  24 C24            9.2337    -0.8217     3.1351 C.ar    
  25 C25            4.0089     6.3915    -4.9254 C.3     
  26 C26            8.0170    -0.4961    -2.8040 C.3     
  27 C27           10.1782    -1.2479    -1.8006 C.3     
  28 Br28           7.2306     1.1499     6.1769 Br      
  29 C29            5.9263    -0.0717    -3.8967 C.3     
  30 O30            6.6201    -0.7892    -2.8740 O.3     
  31 O31           10.7684    -2.2153    -0.9302 O.3     
  32 C32           12.1968    -2.2346    -0.9660 C.3     
  33 N33            4.9452     7.5213    -4.9947 N.3     
  34 C34            4.9516     8.1179    -6.3365 C.3     
  35 C35            6.2958     7.1113    -4.5895 C.3     
  36 C36            7.2078     8.3389    -4.5337 C.3     
  37 C37            7.2480     9.0020    -5.9133 C.3     
  38 C38            5.8236     9.3756    -6.3329 C.3     
  39 F39            5.8456     9.9324    -7.6161 F       
  40 F40            5.2988    10.3051    -5.4285 F       
  41 F41           10.4208    -1.4485     2.9829 F       
  42 C42            5.4396    -1.2278    -0.5378 C.2     
  43 O43            6.1723    -2.1935    -0.4512 O.2     
  44 O44            4.1209    -1.3998    -0.7567 O.3     
  45 C45            2.9331     5.6749    -0.0724 C.3     
  46 F46            2.0739     6.7461    -0.3394 F       
  47 F47            2.1849     4.5711     0.3507 F       
  48 F48            3.8350     6.0399     0.9329 F       
  49 H49            2.7758     6.8349    -2.5336 H       
  50 H50            5.6699     4.3242    -4.4180 H       
  51 H51            8.9622     1.7558    -0.1481 H       
  52 H52            4.0675     1.0937    -0.3993 H       
  53 H53            8.3299    -2.3537    -1.7588 H       
  54 H54            6.4251    -0.0156     1.4017 H       
  55 H55            5.8490     0.9731     3.5762 H       
  56 H56            9.5860    -0.3192     5.1827 H       
  57 H57            4.1953     5.7136    -5.7584 H       
  58 H58            2.9859     6.7634    -4.9816 H       
  59 H59            8.1558     0.5660    -2.6023 H       
  60 H60            8.4897    -0.7506    -3.7526 H       
  61 H61           10.4713    -1.4579    -2.8293 H       
  62 H62           10.5204    -0.2513    -1.5216 H       
  63 H63            4.8724    -0.3497    -3.8844 H       
  64 H64            6.0217     0.9993    -3.7177 H       
  65 H65            6.3556    -0.3174    -4.8680 H       
  66 H66           12.5318    -2.4651    -1.9773 H       
  67 H67           12.5809    -1.2586    -0.6696 H       
  68 H68           12.5673    -2.9949    -0.2784 H       
  69 H69            5.3531     7.3997    -7.0514 H       
  70 H70            3.9333     8.3828    -6.6211 H       
  71 H71            6.2537     6.6450    -3.6051 H       
  72 H72            6.6910     6.3978    -5.3125 H       
  73 H73            6.8208     9.0468    -3.8008 H       
  74 H74            8.2140     8.0320    -4.2480 H       
  75 H75            7.8619     9.9015    -5.8674 H       
  76 H76            7.6712     8.3076    -6.6390 H       
  77 H77            3.8045    -2.3100    -0.8379 H       
@<TRIPOS>BOND
   1    1    2 ar
   2    1    6 ar
   3    1   49 1
   4    2    3 ar
   5    2   25 1
   6    3    4 ar
   7    3   50 1
   8    4    5 ar
   9    5    6 ar
  10    5    7 1
  11    6   45 1
  12    7    8 1
  13    8    9 ar
  14    8   13 ar
  15    9   10 ar
  16    9   14 1
  17   10   11 ar
  18   10   51 1
  19   11   12 ar
  20   11   15 1
  21   12   13 ar
  22   12   42 1
  23   13   52 1
  24   15   16 am
  25   15   17 1
  26   16   18 2
  27   16   19 1
  28   17   27 1
  29   17   26 1
  30   17   53 1
  31   19   20 ar
  32   19   24 ar
  33   20   21 ar
  34   20   54 1
  35   21   22 ar
  36   21   55 1
  37   22   23 ar
  38   22   28 1
  39   23   24 ar
  40   23   56 1
  41   24   41 1
  42   25   33 1
  43   25   57 1
  44   25   58 1
  45   26   30 1
  46   26   59 1
  47   26   60 1
  48   27   31 1
  49   27   61 1
  50   27   62 1
  51   29   30 1
  52   29   63 1
  53   29   64 1
  54   29   65 1
  55   31   32 1
  56   32   66 1
  57   32   67 1
  58   32   68 1
  59   33   34 1
  60   33   35 1
  61   34   38 1
  62   34   69 1
  63   34   70 1
  64   35   36 1
  65   35   71 1
  66   35   72 1
  67   36   37 1
  68   36   73 1
  69   36   74 1
  70   37   38 1
  71   37   75 1
  72   37   76 1
  73   38   39 1
  74   38   40 1
  75   42   43 2
  76   42   44 1
  77   44   77 1
  78   45   46 1
  79   45   47 1
  80   45   48 1

#	End of record

