#	Name: ASD01209145
#	Creating user name:	WinNT
#	Creation time:	15. 06. 2019 19:11

#	Modifying user name:	WinNT
#	Modification time:	15. 06. 2019 19:11

#	Program:	/corina/corina34_cracker 3.40 0067  02.08.2006

@<TRIPOS>MOLECULE
ASD01209145
  76   79    0    0    0
SMALL
NO_CHARGES


@<TRIPOS>ATOM
   1 C1             0.0123     1.1748    -0.2404 C.ar    
   2 C2             0.1566    -0.1914    -0.0456 C.ar    
   3 C3            -0.9566    -0.9826     0.1993 C.ar    
   4 C4            -2.2175    -0.4110     0.2502 C.ar    
   5 C5            -2.3670     0.9625     0.0553 C.ar    
   6 C6            -1.2443     1.7554    -0.1855 C.ar    
   7 O7             1.1058     1.9453    -0.4799 O.3     
   8 C8             1.6387     1.9257    -1.7298 C.ar    
   9 O9            -0.8099    -2.3202     0.3889 O.3     
  10 C10           -0.3706    -2.7482     1.6015 C.ar    
  11 C11           -3.7105     1.5768     0.1087 C.2     
  12 N12           -3.8528     2.9037    -0.0799 N.am    
  13 O13           -4.6870     0.8851     0.3226 O.2     
  14 C14           -5.1151     3.4808    -0.0297 C.2     
  15 P15           -7.4156     6.8806    -2.0353 P.3     
  16 O16           -8.4119     5.9020    -2.5253 O.2     
  17 C17           -7.0570     6.5546    -0.2779 C.3     
  18 S18           -6.5696     2.6309     0.2619 S.3     
  19 N19           -5.3614     4.7433    -0.1916 N.2     
  20 C20           -6.6236     5.1209    -0.1111 C.2     
  21 C21           -7.4845     4.1308     0.1321 C.2     
  22 O22           -6.0607     6.7426    -2.8940 O.3     
  23 O23           -8.0032     8.3709    -2.1957 O.3     
  24 C24            2.7826     2.6597    -2.0092 C.ar    
  25 C25           -6.0297     6.8370    -4.3195 C.3     
  26 C26           -4.5915     6.6615    -4.8112 C.3     
  27 C27           -8.4791     8.8902    -3.4390 C.3     
  28 C28           -8.9647    10.3273    -3.2390 C.3     
  29 C29           -0.1410    -4.0990     1.8204 C.ar    
  30 C30            3.3222     2.6381    -3.2806 C.ar    
  31 C31            2.7235     1.8858    -4.2744 C.ar    
  32 C32            1.5836     1.1535    -3.9986 C.ar    
  33 C33            1.0432     1.1671    -2.7274 C.ar    
  34 S34            3.4142     1.8609    -5.8952 S.o2    
  35 C35            4.4726     0.3878    -5.9137 C.3     
  36 O36            2.2939     1.6808    -6.7507 O.2     
  37 O37            4.2020     3.0418    -5.9586 O.2     
  38 C38           -0.1454    -1.8345     2.6213 C.ar    
  39 C39            0.3015    -2.2722     3.8529 C.ar    
  40 C40            0.5250    -3.6193     4.0699 C.ar    
  41 C41            0.3059    -4.5314     3.0539 C.ar    
  42 S42            1.0962    -4.1741     5.6417 S.o2    
  43 C43           -0.4126    -4.3629     6.6308 C.3     
  44 O44            1.6796    -5.4421     5.3750 O.2     
  45 O45            1.8809    -3.0948     6.1302 O.2     
  46 H46            1.1381    -0.6402    -0.0850 H       
  47 H47           -3.0835    -1.0277     0.4401 H       
  48 H48           -1.3557     2.8189    -0.3369 H       
  49 H49           -3.0736     3.4556    -0.2506 H       
  50 H50           -6.2595     7.2168     0.0591 H       
  51 H51           -7.9536     6.7344     0.3153 H       
  52 H52           -8.5549     4.2319     0.2348 H       
  53 H53            3.2504     3.2477    -1.2334 H       
  54 H54           -6.6583     6.0570    -4.7491 H       
  55 H55           -6.4021     7.8142    -4.6271 H       
  56 H56           -3.9629     7.4415    -4.3816 H       
  57 H57           -4.2191     5.6843    -4.5036 H       
  58 H58           -4.5679     6.7335    -5.8985 H       
  59 H59           -7.6714     8.8782    -4.1708 H       
  60 H60           -9.3039     8.2746    -3.7980 H       
  61 H61           -9.7724    10.3393    -2.5072 H       
  62 H62           -8.1400    10.9429    -2.8800 H       
  63 H63           -9.3278    10.7234    -4.1874 H       
  64 H64           -0.3119    -4.8118     1.0273 H       
  65 H65            4.2123     3.2095    -3.4987 H       
  66 H66            1.1177     0.5670    -4.7767 H       
  67 H67            0.1528     0.5949    -2.5125 H       
  68 H68            3.8675    -0.4969    -5.7155 H       
  69 H69            4.9460     0.2928    -6.8909 H       
  70 H70            5.2403     0.4824    -5.1457 H       
  71 H71           -0.3191    -0.7821     2.4521 H       
  72 H72            0.4769    -1.5614     4.6469 H       
  73 H73            0.4808    -5.5831     3.2261 H       
  74 H74           -1.0694    -5.0919     6.1561 H       
  75 H75           -0.1506    -4.7073     7.6312 H       
  76 H76           -0.9246    -3.4031     6.6994 H       
@<TRIPOS>BOND
   1    1    2 ar
   2    1    7 1
   3    1    6 ar
   4    2    3 ar
   5    2   46 1
   6    3    4 ar
   7    3    9 1
   8    4    5 ar
   9    4   47 1
  10    5    6 ar
  11    5   11 1
  12    6   48 1
  13    7    8 1
  14    8   24 ar
  15    8   33 ar
  16    9   10 1
  17   10   29 ar
  18   10   38 ar
  19   11   12 am
  20   11   13 2
  21   12   14 1
  22   12   49 1
  23   14   18 1
  24   14   19 2
  25   15   16 2
  26   15   22 1
  27   15   17 1
  28   15   23 1
  29   17   20 1
  30   17   50 1
  31   17   51 1
  32   18   21 1
  33   19   20 1
  34   20   21 2
  35   21   52 1
  36   22   25 1
  37   23   27 1
  38   24   30 ar
  39   24   53 1
  40   25   26 1
  41   25   54 1
  42   25   55 1
  43   26   56 1
  44   26   57 1
  45   26   58 1
  46   27   28 1
  47   27   59 1
  48   27   60 1
  49   28   61 1
  50   28   62 1
  51   28   63 1
  52   29   41 ar
  53   29   64 1
  54   30   31 ar
  55   30   65 1
  56   31   32 ar
  57   31   34 1
  58   32   33 ar
  59   32   66 1
  60   33   67 1
  61   34   35 1
  62   34   36 2
  63   34   37 2
  64   35   68 1
  65   35   69 1
  66   35   70 1
  67   38   39 ar
  68   38   71 1
  69   39   40 ar
  70   39   72 1
  71   40   41 ar
  72   40   42 1
  73   41   73 1
  74   42   43 1
  75   42   44 2
  76   42   45 2
  77   43   74 1
  78   43   75 1
  79   43   76 1

#	End of record

