#	Name: ASD01913590
#	Creating user name:	WinNT
#	Creation time:	15. 06. 2019 20:01

#	Modifying user name:	WinNT
#	Modification time:	15. 06. 2019 20:01

#	Program:	/corina/corina34_cracker 3.40 0067  02.08.2006

@<TRIPOS>MOLECULE
ASD01913590
  36   38    0    0    0
SMALL
NO_CHARGES


@<TRIPOS>ATOM
   1 C1            -2.8082     0.2909    -1.2468 C.ar    
   2 C2            -2.3016    -0.1541    -0.0299 C.ar    
   3 C3            -3.0947    -0.0154     1.1046 C.ar    
   4 N4            -4.2938     0.5306     0.9868 N.ar    
   5 C5            -4.7385     0.9400    -0.1843 C.ar    
   6 N6            -4.0174     0.8261    -1.2816 N.ar    
   7 C7            -0.9771    -2.0621     0.1329 C.ar    
   8 C8             0.2611    -2.6938     0.2074 C.ar    
   9 C9             0.3128    -4.0734     0.2981 C.ar    
  10 N10           -0.7890    -4.7927     0.3144 N.ar    
  11 C11           -1.9915    -4.2324     0.2455 C.ar    
  12 C12           -2.1248    -2.8511     0.1528 C.ar    
  13 C13           -3.2015    -5.0867     0.2675 C.2     
  14 N14           -3.0794    -6.4259     0.3571 N.am    
  15 O15           -1.0640    -0.7102     0.0484 O.3     
  16 O16           -4.3042    -4.5799     0.2047 O.2     
  17 C17           -4.2164    -7.2226     0.4840 C.ar    
  18 C18           -4.0787    -8.5899     0.6929 C.ar    
  19 C19           -5.2149    -9.3701     0.8177 C.ar    
  20 C20           -6.5180    -7.3849     0.5250 C.ar    
  21 N21           -5.4163    -6.6686     0.4099 N.ar    
  22 C22           -5.1085   -10.8560     1.0454 C.3     
  23 C23           -6.4564    -8.7517     0.7288 C.ar    
  24 F24           -7.5904    -9.4768     0.8447 F       
  25 H25           -2.2210     0.2047    -2.1491 H       
  26 H26           -2.7368    -0.3491     2.0674 H       
  27 H27           -5.7221     1.3817    -0.2467 H       
  28 H28            1.1717    -2.1132     0.1941 H       
  29 H29            1.2715    -4.5672     0.3561 H       
  30 H30           -3.1032    -2.3972     0.0969 H       
  31 H31           -2.2004    -6.8354     0.3333 H       
  32 H32           -3.0980    -9.0376     0.7565 H       
  33 H33           -7.4799    -6.8983     0.4592 H       
  34 H34           -5.0783   -11.0582     2.1160 H       
  35 H35           -5.9728   -11.3537     0.6058 H       
  36 H36           -4.1973   -11.2306     0.5790 H       
@<TRIPOS>BOND
   1    1    2 ar
   2    1    6 ar
   3    1   25 1
   4    2    3 ar
   5    2   15 1
   6    3    4 ar
   7    3   26 1
   8    4    5 ar
   9    5    6 ar
  10    5   27 1
  11    7    8 ar
  12    7   12 ar
  13    7   15 1
  14    8    9 ar
  15    8   28 1
  16    9   10 ar
  17    9   29 1
  18   10   11 ar
  19   11   12 ar
  20   11   13 1
  21   12   30 1
  22   13   14 am
  23   13   16 2
  24   14   17 1
  25   14   31 1
  26   17   18 ar
  27   17   21 ar
  28   18   19 ar
  29   18   32 1
  30   19   23 ar
  31   19   22 1
  32   20   21 ar
  33   20   23 ar
  34   20   33 1
  35   22   34 1
  36   22   35 1
  37   22   36 1
  38   23   24 1

#	End of record

