#	Name: ASD04660025
#	Creating user name:	WinNT
#	Creation time:	15. 06. 2019 20:52

#	Modifying user name:	WinNT
#	Modification time:	15. 06. 2019 20:52

#	Program:	/corina/corina34_cracker 3.40 0067  02.08.2006

@<TRIPOS>MOLECULE
ASD04660025
  44   47    0    0    0
SMALL
NO_CHARGES


@<TRIPOS>ATOM
   1 C1             9.1677    -1.0294     2.8208 C.2     
   2 C2             8.1367    -0.5410     2.1511 C.2     
   3 C3             7.2588    -1.6208     1.6844 C.2     
   4 C4             6.1411    -1.7531     1.0049 C.2     
   5 C5             5.5945    -3.1039     0.7619 C.2     
   6 C6             6.1920    -4.1983     1.2064 C.2     
   7 C7             7.4429    -4.0500     1.9666 C.2     
   8 C8             8.2265    -5.1620     2.5272 C.2     
   9 C9             9.3353    -4.8759     3.1914 C.2     
  10 C10            9.8031    -3.4879     3.3841 C.2     
  11 C11            9.1032    -2.4945     2.8823 C.2     
  12 C12            7.8862    -2.8540     2.1564 C.2     
  13 S13            4.0955    -3.2638    -0.1503 S.o2    
  14 O14            3.4550    -4.4368     0.3326 O.2     
  15 O15            3.4810    -1.9825    -0.1400 O.2     
  16 N16            4.5096    -3.5712    -1.7239 N.am    
  17 C17            5.2973    -2.5932    -2.4785 C.3     
  18 C18            4.5314    -1.2709    -2.5544 C.3     
  19 O19            6.5491    -2.3817    -1.8225 O.3     
  20 C20            5.5419    -3.1128    -3.8718 C.ar    
  21 C21            6.6904    -2.7532    -4.5519 C.ar    
  22 C22            6.9147    -3.2297    -5.8300 C.ar    
  23 C23            5.9907    -4.0662    -6.4278 C.ar    
  24 C24            4.8426    -4.4265    -5.7474 C.ar    
  25 C25            4.6204    -3.9535    -4.4676 C.ar    
  26 N26            6.2304    -4.5757    -7.7967 N.pl3   
  27 O27            7.2418    -4.2578    -8.3964 O.2     
  28 O28            5.4163    -5.3127    -8.3235 O.2     
  29 H29            9.9529    -0.4314     3.2591 H       
  30 H30            7.9641     0.5100     1.9722 H       
  31 H31            5.6267    -0.8815     0.6278 H       
  32 H32            5.7719    -5.1749     1.0161 H       
  33 H33            7.9052    -6.1853     2.4004 H       
  34 H34            9.9177    -5.6850     3.6069 H       
  35 H35           10.7126    -3.2909     3.9322 H       
  36 H36            4.2307    -4.3988    -2.1460 H       
  37 H37            4.4772    -0.8249    -1.5613 H       
  38 H38            5.0482    -0.5900    -3.2307 H       
  39 H39            3.5232    -1.4557    -2.9252 H       
  40 H40            7.0891    -3.1795    -1.7388 H       
  41 H41            7.4123    -2.0996    -4.0848 H       
  42 H42            7.8116    -2.9482    -6.3616 H       
  43 H43            4.1205    -5.0798    -6.2146 H       
  44 H44            3.7252    -4.2380    -3.9346 H       
@<TRIPOS>BOND
   1    1    2 2
   2    1   11 1
   3    1   29 1
   4    2    3 1
   5    2   30 1
   6    3    4 2
   7    3   12 1
   8    4    5 1
   9    4   31 1
  10    5    6 2
  11    5   13 1
  12    6    7 1
  13    6   32 1
  14    7    8 1
  15    7   12 2
  16    8    9 2
  17    8   33 1
  18    9   10 1
  19    9   34 1
  20   10   11 2
  21   10   35 1
  22   11   12 1
  23   13   14 2
  24   13   15 2
  25   13   16 am
  26   16   17 1
  27   16   36 1
  28   17   18 1
  29   17   19 1
  30   17   20 1
  31   18   37 1
  32   18   38 1
  33   18   39 1
  34   19   40 1
  35   20   21 ar
  36   20   25 ar
  37   21   22 ar
  38   21   41 1
  39   22   23 ar
  40   22   42 1
  41   23   24 ar
  42   23   26 1
  43   24   25 ar
  44   24   43 1
  45   25   44 1
  46   26   27 2
  47   26   28 2

#	End of record

