#	Name: ASD01915758
#	Creating user name:	WinNT
#	Creation time:	15. 06. 2019 20:06

#	Modifying user name:	WinNT
#	Modification time:	15. 06. 2019 20:06

#	Program:	/corina/corina34_cracker 3.40 0067  02.08.2006

@<TRIPOS>MOLECULE
ASD01915758
  41   44    0    0    0
SMALL
NO_CHARGES


@<TRIPOS>ATOM
   1 C1            -0.0166     1.3751     0.0096 C.2     
   2 N2             0.0021    -0.0041     0.0020 N.pl3   
   3 C3            -1.2454    -0.7766     0.0106 C.3     
   4 C4            -2.3228     0.0151     0.7496 C.3     
   5 N5            -2.3972     1.4054     0.3171 N.am    
   6 C6            -1.2832     2.1209     0.0203 C.2     
   7 C7             1.2851     1.7923    -0.0006 C.2     
   8 C8             2.0439     0.6124    -0.0148 C.2     
   9 N9             1.2129    -0.4036    -0.0125 N.2     
  10 C10            3.5484     0.5265    -0.0300 C.3     
  11 O11            4.0371     0.4916     1.3124 O.3     
  12 C12            5.3839     0.4139     1.4768 C.ar    
  13 O13           -1.3297     3.3133    -0.2160 O.2     
  14 C14            5.9270     0.3762     2.7528 C.ar    
  15 C15            6.2175     0.3663     0.3689 C.ar    
  16 C16            7.5862     0.2873     0.5387 C.ar    
  17 C17            8.1254     0.2557     1.8115 C.ar    
  18 C18            7.2963     0.2972     2.9173 C.ar    
  19 C19           -3.7091     2.0458     0.1953 C.3     
  20 C20           -4.0826     2.7006     1.5267 C.3     
  21 C21           -5.3704     3.5255     1.5716 C.3     
  22 C22           -5.3122     2.1601     2.2595 C.3     
  23 Cl23           1.8715     3.4262     0.0027 Cl      
  24 H24           -1.5671    -0.9600    -1.0145 H       
  25 H25           -1.0809    -1.7278     0.5169 H       
  26 H26           -3.2888    -0.4593     0.5766 H       
  27 H27           -2.1074    -0.0100     1.8178 H       
  28 H28            3.8553    -0.3797    -0.5521 H       
  29 H29            3.9568     1.3973    -0.5429 H       
  30 H30            5.2799     0.4090     3.6169 H       
  31 H31            5.7968     0.3906    -0.6255 H       
  32 H32            8.2356     0.2499    -0.3234 H       
  33 H33            9.1957     0.1939     1.9422 H       
  34 H34            7.7199     0.2727     3.9105 H       
  35 H35           -3.6715     2.8056    -0.5853 H       
  36 H36           -4.4569     1.2960    -0.0632 H       
  37 H37           -3.2444     3.0425     2.1339 H       
  38 H38           -5.3796     4.4100     2.2086 H       
  39 H39           -5.9515     3.6017     0.6527 H       
  40 H40           -5.8550     1.3380     1.7930 H       
  41 H41           -5.2830     2.1462     3.3490 H       
@<TRIPOS>BOND
   1    1    2 1
   2    1    7 2
   3    1    6 1
   4    2    3 1
   5    2    9 1
   6    3    4 1
   7    3   24 1
   8    3   25 1
   9    4    5 1
  10    4   26 1
  11    4   27 1
  12    5    6 am
  13    5   19 1
  14    6   13 2
  15    7    8 1
  16    7   23 1
  17    8    9 2
  18    8   10 1
  19   10   11 1
  20   10   28 1
  21   10   29 1
  22   11   12 1
  23   12   14 ar
  24   12   15 ar
  25   14   18 ar
  26   14   30 1
  27   15   16 ar
  28   15   31 1
  29   16   17 ar
  30   16   32 1
  31   17   18 ar
  32   17   33 1
  33   18   34 1
  34   19   20 1
  35   19   35 1
  36   19   36 1
  37   20   21 1
  38   20   22 1
  39   20   37 1
  40   21   22 1
  41   21   38 1
  42   21   39 1
  43   22   40 1
  44   22   41 1

#	End of record

