#	Name: ASD05872047
#	Creating user name:	WinNT
#	Creation time:	15. 06. 2019 21:04

#	Modifying user name:	WinNT
#	Modification time:	15. 06. 2019 21:04

#	Program:	/corina/corina34_cracker 3.40 0067  02.08.2006

@<TRIPOS>MOLECULE
ASD05872047
  61   63    0    0    0
SMALL
NO_CHARGES


@<TRIPOS>ATOM
   1 O1             0.0134     0.0922     0.6202 O.2     
   2 C2            -0.0101     1.2473     0.2437 C.2     
   3 O3             1.1427     1.9002     0.0014 O.3     
   4 C4             2.2912     1.1788     0.0921 C.ar    
   5 C5             2.6456     0.3059    -0.9259 C.ar    
   6 C6             3.8138    -0.4258    -0.8316 C.ar    
   7 C7             4.6292    -0.2886     0.2763 C.ar    
   8 C8             4.2779     0.5807     1.2928 C.ar    
   9 C9             3.1139     1.3187     1.2005 C.ar    
  10 C10            5.1685     0.7272     2.4996 C.3     
  11 F11            6.2805    -0.1106     2.3629 F       
  12 F12            5.5955     2.0553     2.6056 F       
  13 F13            4.4564     0.3730     3.6505 F       
  14 N14           -1.1899     1.8734     0.0632 N.am    
  15 C15           -2.4440     1.1614     0.3210 C.3     
  16 C16           -3.6257     2.0921     0.0412 C.3     
  17 O17           -3.5421     3.2543     0.9075 O.3     
  18 C18           -4.0556     4.4073     0.4355 C.2     
  19 O19           -4.5593     4.4405    -0.6697 O.2     
  20 C20           -4.0061     5.6288     1.2603 C.ar    
  21 C21           -4.5382     6.8254     0.7720 C.ar    
  22 C22           -4.4904     7.9686     1.5471 C.ar    
  23 O23           -5.0081     9.1333     1.0726 O.3     
  24 C24           -3.9132     7.9290     2.8137 C.ar    
  25 C25           -3.3818     6.7383     3.3026 C.ar    
  26 C26           -3.4321     5.5907     2.5340 C.ar    
  27 O27           -2.8183     6.7033     4.5399 O.3     
  28 O28           -3.8679     9.0544     3.5739 O.3     
  29 C29           -4.9355     1.3484     0.3105 C.3     
  30 O30           -6.0565     2.1904    -0.0672 O.3     
  31 C31           -7.2912     1.6800     0.1082 C.2     
  32 O32           -7.4274     0.5621     0.5643 O.2     
  33 C33           -8.4773     2.4784    -0.2533 C.ar    
  34 C34           -9.7586     1.9503    -0.0719 C.ar    
  35 C35          -10.8684     2.7007    -0.4116 C.ar    
  36 O36          -12.1154     2.1875    -0.2354 O.3     
  37 C37          -10.7109     3.9820    -0.9338 C.ar    
  38 C38           -9.4355     4.5104    -1.1160 C.ar    
  39 C39           -8.3224     3.7667    -0.7726 C.ar    
  40 O40           -9.2853     5.7620    -1.6266 O.3     
  41 O41          -11.8037     4.7177    -1.2665 O.3     
  42 H42            2.0087     0.1981    -1.7915 H       
  43 H43            4.0899    -1.1059    -1.6238 H       
  44 H44            5.5419    -0.8614     0.3482 H       
  45 H45            2.8400     1.9975     1.9946 H       
  46 H46           -1.2087     2.7955    -0.2374 H       
  47 H47           -2.5068     0.2889    -0.3293 H       
  48 H48           -2.4725     0.8411     1.3625 H       
  49 H49           -3.5972     2.4124    -1.0003 H       
  50 H50           -4.9861     6.8567    -0.2103 H       
  51 H51           -5.9419     9.2648     1.2866 H       
  52 H52           -3.0197     4.6675     2.9136 H       
  53 H53           -3.4394     6.4874     5.2489 H       
  54 H54           -4.6390     9.1746     4.1449 H       
  55 H55           -4.9582     0.4291    -0.2747 H       
  56 H56           -5.0042     1.1059     1.3709 H       
  57 H57           -9.8813     0.9567     0.3330 H       
  58 H58          -12.4989     2.3750     0.6323 H       
  59 H59           -7.3335     4.1770    -0.9142 H       
  60 H60           -9.2644     6.4599    -0.9576 H       
  61 H61          -12.1428     5.2664    -0.5460 H       
@<TRIPOS>BOND
   1    1    2 2
   2    2    3 1
   3    2   14 am
   4    3    4 1
   5    4    5 ar
   6    4    9 ar
   7    5    6 ar
   8    5   42 1
   9    6    7 ar
  10    6   43 1
  11    7    8 ar
  12    7   44 1
  13    8    9 ar
  14    8   10 1
  15    9   45 1
  16   10   11 1
  17   10   12 1
  18   10   13 1
  19   14   15 1
  20   14   46 1
  21   15   16 1
  22   15   47 1
  23   15   48 1
  24   16   17 1
  25   16   29 1
  26   16   49 1
  27   17   18 1
  28   18   19 2
  29   18   20 1
  30   20   21 ar
  31   20   26 ar
  32   21   22 ar
  33   21   50 1
  34   22   23 1
  35   22   24 ar
  36   23   51 1
  37   24   25 ar
  38   24   28 1
  39   25   26 ar
  40   25   27 1
  41   26   52 1
  42   27   53 1
  43   28   54 1
  44   29   30 1
  45   29   55 1
  46   29   56 1
  47   30   31 1
  48   31   32 2
  49   31   33 1
  50   33   34 ar
  51   33   39 ar
  52   34   35 ar
  53   34   57 1
  54   35   36 1
  55   35   37 ar
  56   36   58 1
  57   37   38 ar
  58   37   41 1
  59   38   39 ar
  60   38   40 1
  61   39   59 1
  62   40   60 1
  63   41   61 1

#	End of record

