#	Name: ASD03082103
#	Creating user name:	WinNT
#	Creation time:	15. 06. 2019 20:27

#	Modifying user name:	WinNT
#	Modification time:	15. 06. 2019 20:27

#	Program:	/corina/corina34_cracker 3.40 0067  02.08.2006

@<TRIPOS>MOLECULE
ASD03082103
  35   37    0    0    0
SMALL
NO_CHARGES


@<TRIPOS>ATOM
   1 C1            -0.0337     1.3807     0.1698 C.ar    
   2 C2            -0.0677     0.0062     0.4052 C.ar    
   3 C3            -1.2465    -0.6920     0.2421 C.ar    
   4 C4            -2.4000    -0.0368    -0.1552 C.ar    
   5 C5            -2.3853     1.3233    -0.3927 C.ar    
   6 C6            -1.2075     2.0462    -0.2281 C.ar    
   7 C7            -1.1872     3.5060    -0.4819 C.ar    
   8 C8            -0.3092     4.0405    -1.4241 C.ar    
   9 C9            -0.2952     5.4006    -1.6565 C.ar    
  10 C10           -1.1500     6.2335    -0.9569 C.ar    
  11 C11           -2.0233     5.7090    -0.0210 C.ar    
  12 C12           -2.0502     4.3499     0.2163 C.ar    
  13 C13            1.2241     2.1330     0.3431 C.2     
  14 N14            2.3723     1.4759     0.6006 N.am    
  15 O15            1.2245     3.3455     0.2536 O.2     
  16 C16            3.5764     2.1742     0.6594 C.ar    
  17 C17            4.7696     1.4778     0.8137 C.ar    
  18 C18            5.9585     2.1839     0.8706 C.ar    
  19 C19            5.9124     3.5675     0.7710 C.ar    
  20 C20            4.6910     4.1942     0.6191 C.ar    
  21 N21            3.5742     3.4946     0.5626 N.ar    
  22 H22            0.8283    -0.5113     0.7146 H       
  23 H23           -1.2696    -1.7561     0.4251 H       
  24 H24           -3.3170    -0.5934    -0.2804 H       
  25 H25           -3.2890     1.8270    -0.7026 H       
  26 H26            0.3588     3.3913    -1.9706 H       
  27 H27            0.3847     5.8158    -2.3857 H       
  28 H28           -1.1352     7.2974    -1.1419 H       
  29 H29           -2.6881     6.3642     0.5224 H       
  30 H30           -2.7326     3.9416     0.9469 H       
  31 H31            2.3604     0.5168     0.7449 H       
  32 H32            4.7688     0.4004     0.8883 H       
  33 H33            6.9008     1.6699     0.9903 H       
  34 H34            6.8222     4.1481     0.8122 H       
  35 H35            4.6502     5.2707     0.5415 H       
@<TRIPOS>BOND
   1    1    2 ar
   2    1   13 1
   3    1    6 ar
   4    2    3 ar
   5    2   22 1
   6    3    4 ar
   7    3   23 1
   8    4    5 ar
   9    4   24 1
  10    5    6 ar
  11    5   25 1
  12    6    7 1
  13    7    8 ar
  14    7   12 ar
  15    8    9 ar
  16    8   26 1
  17    9   10 ar
  18    9   27 1
  19   10   11 ar
  20   10   28 1
  21   11   12 ar
  22   11   29 1
  23   12   30 1
  24   13   14 am
  25   13   15 2
  26   14   16 1
  27   14   31 1
  28   16   17 ar
  29   16   21 ar
  30   17   18 ar
  31   17   32 1
  32   18   19 ar
  33   18   33 1
  34   19   20 ar
  35   19   34 1
  36   20   21 ar
  37   20   35 1

#	End of record

