#	Name: ASD09530048
#	Creating user name:	WinNT
#	Creation time:	15. 06. 2019 21:22

#	Modifying user name:	WinNT
#	Modification time:	15. 06. 2019 21:22

#	Program:	/corina/corina34_cracker 3.40 0067  02.08.2006

@<TRIPOS>MOLECULE
ASD09530048
  55   58    0    0    0
SMALL
NO_CHARGES


@<TRIPOS>ATOM
   1 C1            -0.0168     1.3905     0.0097 C.ar    
   2 C2             0.0021    -0.0041     0.0020 C.ar    
   3 C3             1.2224    -0.6792    -0.0133 C.ar    
   4 C4             2.4028     0.0352    -0.0207 C.ar    
   5 C5             2.3776     1.4184    -0.0126 C.ar    
   6 C6             1.1703     2.0938     0.0021 C.ar    
   7 C7             3.6705     2.1926    -0.0203 C.3     
   8 C8             4.0882     2.4587    -1.4435 C.2     
   9 N9             5.2227     3.1409    -1.6966 N.am    
  10 O10            3.4034     2.0591    -2.3613 O.2     
  11 C11            5.6287     3.3996    -3.0802 C.3     
  12 C12            6.5051     4.6247    -3.1258 C.ar    
  13 N13            7.1836     4.9795    -2.0521 N.ar    
  14 C14            7.9630     6.0425    -2.0431 C.ar    
  15 C15            8.0965     6.8321    -3.1762 C.ar    
  16 C16            7.3949     6.4867    -4.3266 C.ar    
  17 C17            6.5913     5.3582    -4.2940 C.ar    
  18 O18            8.9009     7.9275    -3.1622 O.3     
  19 C19            9.5862     8.2135    -1.9413 C.3     
  20 C20           10.4365     9.4733    -2.1168 C.3     
  21 C21            6.4061     2.1962    -3.6171 C.3     
  22 F22            9.6097    10.5512    -2.4511 F       
  23 F23           11.1074     9.7534    -0.9215 F       
  24 F24           11.3699     9.2673    -3.1383 F       
  25 C25           -1.2688    -0.7651     0.0106 C.ar    
  26 C26           -2.2557    -0.4719     0.9366 C.ar    
  27 C27           -3.4504    -1.1829     0.9484 C.ar    
  28 C28           -3.6861    -2.1846     0.0544 C.ar    
  29 C29           -2.7137    -2.5148    -0.9011 C.ar    
  30 C30           -1.4922    -1.7956    -0.9298 C.ar    
  31 N31           -2.9043    -3.4914    -1.7976 N.ar    
  32 C32           -1.9724    -3.7726    -2.6765 C.ar    
  33 N33           -0.8174    -3.1259    -2.7302 N.ar    
  34 C34           -0.5356    -2.1450    -1.8951 C.ar    
  35 H35           -0.9587     1.9188     0.0170 H       
  36 H36            1.2433    -1.7590    -0.0189 H       
  37 H37            3.3484    -0.4865    -0.0325 H       
  38 H38            1.1569     3.1737     0.0084 H       
  39 H39            3.5299     3.1398     0.5003 H       
  40 H40            4.4442     1.6127     0.4831 H       
  41 H41            5.7704     3.4605    -0.9626 H       
  42 H42            4.7431     3.5634    -3.6942 H       
  43 H43            8.5029     6.3018    -1.1444 H       
  44 H44            7.4779     7.0811    -5.2245 H       
  45 H45            6.0323     5.0602    -5.1687 H       
  46 H46            8.8589     8.3740    -1.1454 H       
  47 H47           10.2304     7.3737    -1.6808 H       
  48 H48            6.7082     2.3887    -4.6466 H       
  49 H49            7.2917     2.0324    -3.0031 H       
  50 H50            5.7722     1.3101    -3.5841 H       
  51 H51           -2.0956     0.3166     1.6570 H       
  52 H52           -4.2059    -0.9372     1.6801 H       
  53 H53           -4.6213    -2.7241     0.0819 H       
  54 H54           -2.1542    -4.5656    -3.3867 H       
  55 H55            0.4099    -1.6259    -1.9502 H       
@<TRIPOS>BOND
   1    1    2 ar
   2    1    6 ar
   3    1   35 1
   4    2    3 ar
   5    2   25 1
   6    3    4 ar
   7    3   36 1
   8    4    5 ar
   9    4   37 1
  10    5    6 ar
  11    5    7 1
  12    6   38 1
  13    7    8 1
  14    7   39 1
  15    7   40 1
  16    8    9 am
  17    8   10 2
  18    9   11 1
  19    9   41 1
  20   11   12 1
  21   11   21 1
  22   11   42 1
  23   12   13 ar
  24   12   17 ar
  25   13   14 ar
  26   14   15 ar
  27   14   43 1
  28   15   16 ar
  29   15   18 1
  30   16   17 ar
  31   16   44 1
  32   17   45 1
  33   18   19 1
  34   19   20 1
  35   19   46 1
  36   19   47 1
  37   20   22 1
  38   20   23 1
  39   20   24 1
  40   21   48 1
  41   21   49 1
  42   21   50 1
  43   25   26 ar
  44   25   30 ar
  45   26   27 ar
  46   26   51 1
  47   27   28 ar
  48   27   52 1
  49   28   29 ar
  50   28   53 1
  51   29   30 ar
  52   29   31 ar
  53   30   34 ar
  54   31   32 ar
  55   32   33 ar
  56   32   54 1
  57   33   34 ar
  58   34   55 1

#	End of record

