#	Name: ASD01881918
#	Creating user name:	WinNT
#	Creation time:	15. 06. 2019 19:43

#	Modifying user name:	WinNT
#	Modification time:	15. 06. 2019 19:43

#	Program:	/corina/corina34_cracker 3.40 0067  02.08.2006

@<TRIPOS>MOLECULE
ASD01881918
  52   55    0    0    0
SMALL
NO_CHARGES


@<TRIPOS>ATOM
   1 C1            -0.0178     1.4631     0.0101 C.3     
   2 N2             0.0021    -0.0041     0.0020 N.am    
   3 C3             1.2808    -0.4180    -0.0124 C.2     
   4 C4             2.1934     0.7396    -0.0149 C.ar    
   5 C5             3.5998     0.8362    -0.0285 C.ar    
   6 C6             4.2044     2.0884    -0.0282 C.ar    
   7 C7             3.4211     3.2406    -0.0141 C.ar    
   8 C8             2.0285     3.1398    -0.0007 C.ar    
   9 C9             1.4250     1.9042    -0.0013 C.ar    
  10 C10            4.4022    -0.3498    -0.0421 C.1     
  11 N11            5.0387    -1.2907    -0.0528 N.1     
  12 O12            1.6342    -1.5811    -0.0217 O.2     
  13 C13            4.0671     4.5754    -0.0128 C.ar    
  14 C14            5.4571     4.6800    -0.0258 C.ar    
  15 C15            6.0528     5.9248    -0.0250 C.ar    
  16 C16            5.2733     7.0675    -0.0115 C.ar    
  17 C17            3.8935     6.9699     0.0014 C.ar    
  18 C18            3.2867     5.7304    -0.0045 C.ar    
  19 C19            5.9298     8.4240    -0.0102 C.3     
  20 C20            5.2685     9.5867    -2.1366 C.2     
  21 N21            5.7416     9.8398    -3.3622 N.am    
  22 C22            6.9682     9.3107    -3.5406 C.2     
  23 C23            7.3130     8.6255    -2.2331 C.3     
  24 N24            6.1296     8.8711    -1.3909 N.am    
  25 O25            7.6531     9.3698    -4.5392 O.2     
  26 O26            4.1840     9.9655    -1.7396 O.2     
  27 C27            5.0157    10.5976    -4.3844 C.3     
  28 C28           -1.1767    -0.8739     0.0090 C.3     
  29 C29           -1.1713    -1.7503    -1.2450 C.3     
  30 C30           -1.1466    -1.7637     1.2533 C.3     
  31 H31           -0.5306     1.8357    -0.8767 H       
  32 H32           -0.5135     1.8261     0.9104 H       
  33 H33            5.2814     2.1679    -0.0386 H       
  34 H34            1.4238     4.0346     0.0103 H       
  35 H35            6.0667     3.7885    -0.0360 H       
  36 H36            7.1296     6.0070    -0.0347 H       
  37 H37            3.2899     7.8654     0.0120 H       
  38 H38            2.2093     5.6554     0.0010 H       
  39 H39            5.2919     9.1359     0.5135 H       
  40 H40            6.8940     8.3605     0.4943 H       
  41 H41            7.4587     7.5563    -2.3873 H       
  42 H42            8.2007     9.0742    -1.7874 H       
  43 H43            5.2604    11.6560    -4.2943 H       
  44 H44            5.3032    10.2412    -5.3736 H       
  45 H45            3.9434    10.4596    -4.2460 H       
  46 H46           -2.0792    -0.2627     0.0213 H       
  47 H47           -2.0484    -2.3975    -1.2398 H       
  48 H48           -1.1928    -1.1164    -2.1315 H       
  49 H49           -0.2689    -2.3615    -1.2573 H       
  50 H50           -1.1504    -1.1393     2.1467 H       
  51 H51           -2.0236    -2.4109     1.2585 H       
  52 H52           -0.2441    -2.3749     1.2411 H       
@<TRIPOS>BOND
   1    1    2 1
   2    1    9 1
   3    1   31 1
   4    1   32 1
   5    2    3 am
   6    2   28 1
   7    3    4 1
   8    3   12 2
   9    4    5 ar
  10    4    9 ar
  11    5    6 ar
  12    5   10 1
  13    6    7 ar
  14    6   33 1
  15    7    8 ar
  16    7   13 1
  17    8    9 ar
  18    8   34 1
  19   10   11 3
  20   13   14 ar
  21   13   18 ar
  22   14   15 ar
  23   14   35 1
  24   15   16 ar
  25   15   36 1
  26   16   17 ar
  27   16   19 1
  28   17   18 ar
  29   17   37 1
  30   18   38 1
  31   19   24 1
  32   19   39 1
  33   19   40 1
  34   20   21 am
  35   20   24 am
  36   20   26 2
  37   21   22 am
  38   21   27 1
  39   22   23 1
  40   22   25 2
  41   23   24 1
  42   23   41 1
  43   23   42 1
  44   27   43 1
  45   27   44 1
  46   27   45 1
  47   28   29 1
  48   28   30 1
  49   28   46 1
  50   29   47 1
  51   29   48 1
  52   29   49 1
  53   30   50 1
  54   30   51 1
  55   30   52 1

#	End of record

