#	Name: ASD01190238
#	Creating user name:	WinNT
#	Creation time:	15. 06. 2019 19:08

#	Modifying user name:	WinNT
#	Modification time:	15. 06. 2019 19:08

#	Program:	/corina/corina34_cracker 3.40 0067  02.08.2006

@<TRIPOS>MOLECULE
ASD01190238
  60   63    0    0    0
SMALL
NO_CHARGES


@<TRIPOS>ATOM
   1 N1             0.0775     0.9534    -0.3647 N.pl3   
   2 C2             0.2011    -0.1142    -1.2256 C.2     
   3 C3             1.5423    -0.4290    -1.3052 C.2     
   4 C4             2.2221     0.4686    -0.4767 C.2     
   5 C5             1.3047     1.2955     0.0804 C.2     
   6 C6            -0.8912    -0.7917    -1.9283 C.2     
   7 O7            -0.6446    -1.6714    -2.7311 O.2     
   8 O8            -2.1705    -0.4398    -1.6850 O.3     
   9 C9             3.7105     0.5090    -0.2441 C.3     
  10 C10            4.4370     0.5150    -1.5906 C.3     
  11 O11            4.0469     1.6917     0.4840 O.3     
  12 N12            5.1541    -4.1679     2.5221 N.pl3   
  13 N13            4.6013    -5.1128     1.6514 N.2     
  14 C14            4.0312    -4.5141     0.6444 C.2     
  15 C15            4.1979    -3.0757     0.8271 C.ar    
  16 C16            3.8097    -1.9504     0.0916 C.ar    
  17 C17            4.1284    -0.7038     0.5468 C.ar    
  18 C18            4.8350    -0.5422     1.7323 C.ar    
  19 C19            5.2252    -1.6257     2.4675 C.ar    
  20 C20            4.9140    -2.9096     2.0285 C.ar    
  21 C21            5.8375    -4.4585     3.7100 C.ar    
  22 C22            5.4472    -5.5390     4.4902 C.ar    
  23 C23            6.1222    -5.8238     5.6608 C.ar    
  24 C24            7.1876    -5.0328     6.0569 C.ar    
  25 C25            7.5784    -3.9548     5.2804 C.ar    
  26 C26            6.9097    -3.6700     4.1061 C.ar    
  27 F27            7.8463    -5.3128     7.2027 F       
  28 F28            4.0491     1.6409    -2.3248 F       
  29 F29            5.8188     0.5525    -1.3747 F       
  30 F30            4.1077    -0.6428    -2.3034 F       
  31 C31           -1.1782     1.6128     0.0024 C.3     
  32 C32           -1.5639     2.6171    -1.0854 C.3     
  33 C33           -2.9303     3.2230    -0.7589 C.3     
  34 O34           -3.3433     4.0724    -1.8313 O.3     
  35 O35           -0.5840     3.6556    -1.1441 O.3     
  36 C36           -3.2012    -1.1536    -2.4174 C.3     
  37 C37           -4.5768    -0.6208    -2.0119 C.3     
  38 H38            1.9831    -1.2190    -1.8952 H       
  39 H39            1.5207     2.0989     0.7692 H       
  40 H40            3.6210     1.7550     1.3499 H       
  41 H41            3.5256    -4.9963    -0.1791 H       
  42 H42            3.2610    -2.0676    -0.8312 H       
  43 H43            5.0790     0.4519     2.0767 H       
  44 H44            5.7743    -1.4864     3.3871 H       
  45 H45            4.6161    -6.1560     4.1818 H       
  46 H46            5.8187    -6.6638     6.2680 H       
  47 H47            8.4094    -3.3389     5.5912 H       
  48 H48            7.2179    -2.8321     3.4983 H       
  49 H49           -1.9653     0.8654     0.1026 H       
  50 H50           -1.0505     2.1353     0.9505 H       
  51 H51           -1.6126     2.1087    -2.0484 H       
  52 H52           -3.6598     2.4241    -0.6265 H       
  53 H53           -2.8591     3.8059     0.1595 H       
  54 H54           -4.2035     4.4916    -1.6920 H       
  55 H55           -0.5380     4.1985    -0.3452 H       
  56 H56           -3.0552    -1.0056    -3.4874 H       
  57 H57           -3.1408    -2.2171    -2.1862 H       
  58 H58           -4.7229    -0.7688    -0.9419 H       
  59 H59           -4.6372     0.4427    -2.2431 H       
  60 H60           -5.3506    -1.1566    -2.5617 H       
@<TRIPOS>BOND
   1    1    2 1
   2    1    5 1
   3    1   31 1
   4    2    3 2
   5    2    6 1
   6    3    4 1
   7    3   38 1
   8    4    5 2
   9    4    9 1
  10    5   39 1
  11    6    7 2
  12    6    8 1
  13    8   36 1
  14    9   10 1
  15    9   11 1
  16    9   17 1
  17   10   28 1
  18   10   29 1
  19   10   30 1
  20   11   40 1
  21   12   13 1
  22   12   20 1
  23   12   21 1
  24   13   14 2
  25   14   15 1
  26   14   41 1
  27   15   16 ar
  28   15   20 ar
  29   16   17 ar
  30   16   42 1
  31   17   18 ar
  32   18   19 ar
  33   18   43 1
  34   19   20 ar
  35   19   44 1
  36   21   22 ar
  37   21   26 ar
  38   22   23 ar
  39   22   45 1
  40   23   24 ar
  41   23   46 1
  42   24   25 ar
  43   24   27 1
  44   25   26 ar
  45   25   47 1
  46   26   48 1
  47   31   32 1
  48   31   49 1
  49   31   50 1
  50   32   33 1
  51   32   35 1
  52   32   51 1
  53   33   34 1
  54   33   52 1
  55   33   53 1
  56   34   54 1
  57   35   55 1
  58   36   37 1
  59   36   56 1
  60   36   57 1
  61   37   58 1
  62   37   59 1
  63   37   60 1

#	End of record

