#	Name: ASD01180234
#	Creating user name:	WinNT
#	Creation time:	15. 06. 2019 19:07

#	Modifying user name:	WinNT
#	Modification time:	15. 06. 2019 19:07

#	Program:	/corina/corina34_cracker 3.40 0067  02.08.2006

@<TRIPOS>MOLECULE
ASD01180234
  41   42    0    0    0
SMALL
NO_CHARGES


@<TRIPOS>ATOM
   1 C1            -0.0187     1.5258     0.0104 C.3     
   2 C2             0.0021    -0.0041     0.0020 C.3     
   3 C3             0.6061    -0.4987    -1.3138 C.3     
   4 C4             0.7419    -2.0221    -1.2718 C.3     
   5 N5             1.3595     2.0342     0.0000 N.3     
   6 C6            -0.7240     2.0118     1.2503 C.ar    
   7 C7            -2.0435     2.4204     1.1770 C.ar    
   8 C8            -2.6945     2.8664     2.3093 C.ar    
   9 C9            -2.0199     2.9046     3.5281 C.ar    
  10 C10           -0.6906     2.4917     3.5961 C.ar    
  11 C11           -0.0513     2.0423     2.4586 C.ar    
  12 C12           -2.7141     3.3835     4.7485 C.ar    
  13 C13           -2.0317     3.4183     5.9629 C.ar    
  14 C14           -2.6926     3.8675     7.0929 C.ar    
  15 C15           -4.0159     4.2677     6.9712 C.ar    
  16 C16           -4.6317     4.2069     5.7349 C.ar    
  17 N17           -3.9777     3.7801     4.6737 N.ar    
  18 C18           -4.7745     4.7633     8.1754 C.3     
  19 F19           -4.6132     6.1482     8.2906 F       
  20 F20           -6.1328     4.4628     8.0270 F       
  21 F21           -4.2818     4.1390     9.3263 F       
  22 C22           -0.3063    -0.0999    -2.4755 C.3     
  23 H23           -0.5459     1.8868    -0.8726 H       
  24 H24            0.6044    -0.3639     0.8362 H       
  25 H25           -1.0158    -0.3818     0.0993 H       
  26 H26            1.5895    -0.0499    -1.4536 H       
  27 H27           -0.2415    -2.4708    -1.1321 H       
  28 H28            1.1722    -2.3745    -2.2093 H       
  29 H29            1.3919    -2.3062    -0.4442 H       
  30 H30            1.8695     1.7131     0.8092 H       
  31 H31            1.8338     1.7759    -0.8523 H       
  32 H32           -2.5652     2.3906     0.2318 H       
  33 H33           -3.7246     3.1855     2.2508 H       
  34 H34           -0.1631     2.5193     4.5381 H       
  35 H35            0.9774     1.7176     2.5110 H       
  36 H36           -1.0017     3.0988     6.0216 H       
  37 H37           -2.1899     3.9054     8.0480 H       
  38 H38           -5.6614     4.5176     5.6369 H       
  39 H39           -1.2897    -0.5486    -2.3358 H       
  40 H40           -0.4031     0.9854    -2.5054 H       
  41 H41            0.1240    -0.4523    -3.4129 H       
@<TRIPOS>BOND
   1    1    2 1
   2    1    5 1
   3    1    6 1
   4    1   23 1
   5    2    3 1
   6    2   24 1
   7    2   25 1
   8    3    4 1
   9    3   22 1
  10    3   26 1
  11    4   27 1
  12    4   28 1
  13    4   29 1
  14    5   30 1
  15    5   31 1
  16    6    7 ar
  17    6   11 ar
  18    7    8 ar
  19    7   32 1
  20    8    9 ar
  21    8   33 1
  22    9   10 ar
  23    9   12 1
  24   10   11 ar
  25   10   34 1
  26   11   35 1
  27   12   13 ar
  28   12   17 ar
  29   13   14 ar
  30   13   36 1
  31   14   15 ar
  32   14   37 1
  33   15   16 ar
  34   15   18 1
  35   16   17 ar
  36   16   38 1
  37   18   19 1
  38   18   20 1
  39   18   21 1
  40   22   39 1
  41   22   40 1
  42   22   41 1

#	End of record

