#	Name: ASD01230140
#	Creating user name:	WinNT
#	Creation time:	15. 06. 2019 19:11

#	Modifying user name:	WinNT
#	Modification time:	15. 06. 2019 19:11

#	Program:	/corina/corina34_cracker 3.40 0067  02.08.2006

@<TRIPOS>MOLECULE
ASD01230140
  62   65    0    0    0
SMALL
NO_CHARGES


@<TRIPOS>ATOM
   1 P1            -0.0888     1.5196    -0.0066 P.3     
   2 O2            -0.1041     0.0396    -0.0121 O.2     
   3 O3             1.4317     2.0409    -0.0971 O.3     
   4 O4            -0.9208     2.0695    -1.2705 O.3     
   5 N5            -0.7912     2.0825     1.4154 N.3     
   6 N6            -2.5342     5.2090     1.6468 N.am    
   7 C7            -1.9480     4.1792     1.0350 C.2     
   8 C8            -0.6757     3.5435     1.5171 C.3     
   9 C9            -0.4188     3.9329     2.9750 C.3     
  10 C10           -0.5757     5.4527     3.1055 C.3     
  11 C11           -2.0440     5.8147     2.8785 C.3     
  12 O12           -2.4706     3.7319     0.0361 O.2     
  13 C13           -3.7434     5.7705     1.0395 C.3     
  14 C14            2.2908     1.3855     0.7272 C.ar    
  15 C15            2.9525     0.2508     0.2809 C.ar    
  16 C16            3.8252    -0.4136     1.1208 C.ar    
  17 C17            4.0393     0.0514     2.4052 C.ar    
  18 C18            3.3807     1.1818     2.8525 C.ar    
  19 C19            2.5117     1.8533     2.0144 C.ar    
  20 C20           -2.1863     1.5335    -1.6621 C.3     
  21 O21           -1.9369     2.2039    -3.9974 O.3     
  22 C22           -2.7548     2.3601    -2.8174 C.3     
  23 C23           -4.1452     1.8262    -3.2274 C.3     
  24 C24           -4.1665     1.9762    -4.7650 C.3     
  25 C25           -2.7864     2.5830    -5.1021 C.3     
  26 O26           -5.1791     2.6135    -2.6330 O.3     
  27 F27           -4.3156     0.7273    -5.3774 F       
  28 F28           -5.1922     2.8423    -5.1588 F       
  29 C29           -2.0342     0.7011    -6.4477 C.2     
  30 N30           -1.5695     0.1644    -7.5746 N.2     
  31 C31           -1.3313     0.9216    -8.6375 C.2     
  32 C32           -1.5730     2.3092    -8.5730 C.2     
  33 C33           -2.0455     2.8398    -7.4203 C.2     
  34 N34           -2.2748     2.0218    -6.3549 N.am    
  35 O35           -2.2500    -0.0171    -5.4856 O.2     
  36 N36           -0.8509     0.3562    -9.7960 N.pl3   
  37 H37           -1.7547     1.7904     1.4831 H       
  38 H38            0.1558     3.8847     0.9005 H       
  39 H39           -1.1402     3.4327     3.6210 H       
  40 H40            0.5925     3.6426     3.2596 H       
  41 H41           -0.2716     5.7674     4.1038 H       
  42 H42            0.0432     5.9498     2.3584 H       
  43 H43           -2.1417     6.8982     2.8110 H       
  44 H44           -2.6379     5.4542     3.7185 H       
  45 H45           -3.9819     5.2204     0.1292 H       
  46 H46           -4.5736     5.6894     1.7411 H       
  47 H47           -3.5744     6.8195     0.7963 H       
  48 H48            2.7853    -0.1130    -0.7221 H       
  49 H49            4.3403    -1.2972     0.7740 H       
  50 H50            4.7220    -0.4695     3.0602 H       
  51 H51            3.5491     1.5426     3.8564 H       
  52 H52            2.0012     2.7391     2.3627 H       
  53 H53           -2.0593     0.4996    -1.9831 H       
  54 H54           -2.8735     1.5698    -0.8168 H       
  55 H55           -2.8195     3.4114    -2.5370 H       
  56 H56           -4.2508     0.7789    -2.9443 H       
  57 H57           -2.8561     3.6685    -5.1721 H       
  58 H58           -6.0734     2.3222    -2.8572 H       
  59 H59           -1.3839     2.9392    -9.4296 H       
  60 H60           -2.2382     3.8999    -7.3460 H       
  61 H61           -0.6853    -0.5987    -9.8372 H       
  62 H62           -0.6778     0.9124   -10.5716 H       
@<TRIPOS>BOND
   1    1    2 2
   2    1    3 1
   3    1    4 1
   4    1    5 1
   5    3   14 1
   6    4   20 1
   7    5    8 1
   8    5   37 1
   9    6    7 am
  10    6   11 1
  11    6   13 1
  12    7    8 1
  13    7   12 2
  14    8    9 1
  15    8   38 1
  16    9   10 1
  17    9   39 1
  18    9   40 1
  19   10   11 1
  20   10   41 1
  21   10   42 1
  22   11   43 1
  23   11   44 1
  24   13   45 1
  25   13   46 1
  26   13   47 1
  27   14   15 ar
  28   14   19 ar
  29   15   16 ar
  30   15   48 1
  31   16   17 ar
  32   16   49 1
  33   17   18 ar
  34   17   50 1
  35   18   19 ar
  36   18   51 1
  37   19   52 1
  38   20   22 1
  39   20   53 1
  40   20   54 1
  41   21   22 1
  42   21   25 1
  43   22   23 1
  44   22   55 1
  45   23   24 1
  46   23   26 1
  47   23   56 1
  48   24   25 1
  49   24   27 1
  50   24   28 1
  51   25   34 1
  52   25   57 1
  53   26   58 1
  54   29   30 1
  55   29   34 am
  56   29   35 2
  57   30   31 2
  58   31   32 1
  59   31   36 1
  60   32   33 2
  61   32   59 1
  62   33   34 1
  63   33   60 1
  64   36   61 1
  65   36   62 1

#	End of record

