#	Name: ASD02408393
#	Creating user name:	WinNT
#	Creation time:	15. 06. 2019 20:21

#	Modifying user name:	WinNT
#	Modification time:	15. 06. 2019 20:21

#	Program:	/corina/corina34_cracker 3.40 0067  02.08.2006

@<TRIPOS>MOLECULE
ASD02408393
  27   28    0    0    0
SMALL
NO_CHARGES


@<TRIPOS>ATOM
   1 C1            -0.0258     1.3579     0.0742 C.2     
   2 C2            -0.0027    -0.0420    -0.1312 C.2     
   3 C3             1.2996     1.7854     0.1119 C.2     
   4 N4             2.0743     0.6919    -0.0627 N.pl3   
   5 N5             1.2412    -0.4223    -0.2102 N.2     
   6 C6             3.4753     0.6767    -0.0912 C.ar    
   7 C7             4.1605     1.4452    -1.0225 C.ar    
   8 C8             5.5415     1.4284    -1.0478 C.ar    
   9 C9             6.2414     0.6470    -0.1471 C.ar    
  10 C10            5.5616    -0.1200     0.7815 C.ar    
  11 C11            4.1812    -0.1027     0.8158 C.ar    
  12 N12            1.7385     3.0810     0.2929 N.pl3   
  13 C13           -1.2193     2.2004     0.2144 C.2     
  14 N14           -2.4464     1.6465     0.1511 N.am    
  15 O15           -1.1011     3.3990     0.3878 O.2     
  16 N16            3.4545    -0.9236     1.8104 N.pl3   
  17 O17            4.0663    -1.6958     2.5265 O.2     
  18 O18            2.2446    -0.8268     1.9126 O.2     
  19 H19           -0.8672    -0.6846    -0.2090 H       
  20 H20            3.6143     2.0552    -1.7267 H       
  21 H21            6.0751     2.0260    -1.7720 H       
  22 H22            7.3211     0.6353    -0.1691 H       
  23 H23            6.1111    -0.7300     1.4833 H       
  24 H24            1.0994     3.8102     0.3210 H       
  25 H25            2.6862     3.2627     0.3920 H       
  26 H26           -2.5406     0.6910     0.0129 H       
  27 H27           -3.2352     2.2033     0.2438 H       
@<TRIPOS>BOND
   1    1    2 1
   2    1    3 2
   3    1   13 1
   4    2    5 2
   5    2   19 1
   6    3    4 1
   7    3   12 1
   8    4    5 1
   9    4    6 1
  10    6    7 ar
  11    6   11 ar
  12    7    8 ar
  13    7   20 1
  14    8    9 ar
  15    8   21 1
  16    9   10 ar
  17    9   22 1
  18   10   11 ar
  19   10   23 1
  20   11   16 1
  21   12   24 1
  22   12   25 1
  23   13   14 am
  24   13   15 2
  25   14   26 1
  26   14   27 1
  27   16   17 2
  28   16   18 2

#	End of record

