#	Name: ASD01816617
#	Creating user name:	WinNT
#	Creation time:	15. 06. 2019 19:35

#	Modifying user name:	WinNT
#	Modification time:	15. 06. 2019 19:35

#	Program:	/corina/corina34_cracker 3.40 0067  02.08.2006

@<TRIPOS>MOLECULE
ASD01816617
  55   59    0    0    0
SMALL
NO_CHARGES


@<TRIPOS>ATOM
   1 C1            -0.0167     1.3813     0.0096 C.ar    
   2 C2             0.0021    -0.0041     0.0020 C.ar    
   3 C3             1.1984    -0.6909    -0.0131 C.ar    
   4 C4             2.4015     0.0059    -0.0204 C.ar    
   5 C5             2.3790     1.4106    -0.0127 C.ar    
   6 C6             1.1663     2.0916     0.0022 C.ar    
   7 N7             3.6053    -0.6772    -0.0347 N.pl3   
   8 C8             4.7970    -0.0586    -0.0423 C.2     
   9 C9             4.9000     1.3103    -0.0364 C.2     
  10 C10            3.6670     2.1302    -0.0207 C.2     
  11 C11            5.9971     2.2730    -0.0418 C.2     
  12 N12            5.4245     3.4961    -0.0307 N.am    
  13 N13            4.0323     3.3799    -0.0182 N.2     
  14 O14            7.1914     2.0229    -0.0536 O.2     
  15 C15            6.1259     4.7074    -0.0309 C.ar    
  16 C16            5.8867     5.6504     0.9607 C.ar    
  17 C17            7.0666     4.9667    -1.0191 C.ar    
  18 C18            7.7573     6.1628    -1.0162 C.ar    
  19 C19            7.5134     7.1013    -0.0305 C.ar    
  20 C20            6.5807     6.8442     0.9579 C.ar    
  21 C21            3.5779    -2.1419    -0.0413 C.3     
  22 C22            3.5555    -2.6375    -1.4643 C.ar    
  23 C23            4.7434    -2.8867    -2.1268 C.ar    
  24 C24            4.7265    -3.3410    -3.4309 C.ar    
  25 C25            3.5142    -3.5475    -4.0771 C.ar    
  26 C26            2.3228    -3.2961    -3.4086 C.ar    
  27 C27            2.3469    -2.8474    -2.1027 C.ar    
  28 N28            3.4934    -4.0064    -5.3961 N.pl3   
  29 C29            4.8706     5.3711     2.0380 C.3     
  30 C30            4.7510    -4.2705    -6.0997 C.3     
  31 C31            2.2141    -4.2236    -6.0760 C.3     
  32 H32           -0.9602     1.9068     0.0170 H       
  33 H33           -0.9288    -0.5516     0.0083 H       
  34 H34            1.2004    -1.7709    -0.0189 H       
  35 H35            1.1506     3.1715     0.0077 H       
  36 H36            5.6983    -0.6536    -0.0530 H       
  37 H37            7.2581     4.2337    -1.7889 H       
  38 H38            8.4890     6.3650    -1.7844 H       
  39 H39            8.0554     8.0355    -0.0301 H       
  40 H40            6.3922     7.5795     1.7261 H       
  41 H41            4.4656    -2.5242     0.4626 H       
  42 H42            2.6860    -2.4910     0.4791 H       
  43 H43            5.6855    -2.7257    -1.6239 H       
  44 H44            5.6546    -3.5351    -3.9479 H       
  45 H45            1.3786    -3.4557    -3.9081 H       
  46 H46            1.4209    -2.6521    -1.5823 H       
  47 H47            5.3588     4.8786     2.8790 H       
  48 H48            4.4291     6.3097     2.3731 H       
  49 H49            4.0892     4.7231     1.6412 H       
  50 H50            5.0481    -5.3064    -5.9363 H       
  51 H51            4.6139    -4.0958    -7.1668 H       
  52 H52            5.5266    -3.6058    -5.7194 H       
  53 H53            1.9116    -3.3071    -6.5825 H       
  54 H54            2.3228    -5.0242    -6.8077 H       
  55 H55            1.4560    -4.5012    -5.3437 H       
@<TRIPOS>BOND
   1    1    2 ar
   2    1    6 ar
   3    1   32 1
   4    2    3 ar
   5    2   33 1
   6    3    4 ar
   7    3   34 1
   8    4    5 ar
   9    4    7 1
  10    5    6 ar
  11    5   10 1
  12    6   35 1
  13    7    8 1
  14    7   21 1
  15    8    9 2
  16    8   36 1
  17    9   10 1
  18    9   11 1
  19   10   13 2
  20   11   12 am
  21   11   14 2
  22   12   13 1
  23   12   15 1
  24   15   16 ar
  25   15   17 ar
  26   16   29 1
  27   16   20 ar
  28   17   18 ar
  29   17   37 1
  30   18   19 ar
  31   18   38 1
  32   19   20 ar
  33   19   39 1
  34   20   40 1
  35   21   22 1
  36   21   41 1
  37   21   42 1
  38   22   23 ar
  39   22   27 ar
  40   23   24 ar
  41   23   43 1
  42   24   25 ar
  43   24   44 1
  44   25   26 ar
  45   25   28 1
  46   26   27 ar
  47   26   45 1
  48   27   46 1
  49   28   30 1
  50   28   31 1
  51   29   47 1
  52   29   48 1
  53   29   49 1
  54   30   50 1
  55   30   51 1
  56   30   52 1
  57   31   53 1
  58   31   54 1
  59   31   55 1

#	End of record

