#	Name: ASD01820063
#	Creating user name:	WinNT
#	Creation time:	15. 06. 2019 19:36

#	Modifying user name:	WinNT
#	Modification time:	15. 06. 2019 19:36

#	Program:	/corina/corina34_cracker 3.40 0067  02.08.2006

@<TRIPOS>MOLECULE
ASD01820063
  85   90    0    0    0
SMALL
NO_CHARGES


@<TRIPOS>ATOM
   1 C1            -0.0167     1.3781     0.0096 C.ar    
   2 C2             0.0021    -0.0041     0.0020 C.ar    
   3 C3             1.2063    -0.6904    -0.0127 C.ar    
   4 C4             2.3989     0.0151    -0.0203 C.ar    
   5 C5             2.3798     1.4244    -0.0130 C.ar    
   6 C6             1.1684     2.0970     0.0022 C.ar    
   7 C7             3.8260    -0.3700    -0.0355 C.2     
   8 N8             4.5720     0.7494    -0.0368 N.am    
   9 C9             3.7959     1.8481    -0.0241 C.2     
  10 O10            4.1923     2.9960    -0.0228 O.2     
  11 O11            4.2534    -1.5068    -0.0446 O.2     
  12 C12            8.0638     0.8038    -1.5099 C.3     
  13 O13            8.5282     0.8166    -2.8613 O.3     
  14 N14            9.9386     0.8363    -2.9855 N.2     
  15 C15           10.4843     0.8494    -4.1574 C.2     
  16 C16           11.9557     0.8700    -4.2870 C.ar    
  17 C17           12.5670     0.8843    -5.5461 C.ar    
  18 C18           13.9448     0.9033    -5.6205 C.ar    
  19 N19           14.6823     0.9080    -4.5270 N.ar    
  20 C20           14.1473     0.8945    -3.3214 C.ar    
  21 C21           12.7776     0.8815    -3.1539 C.ar    
  22 C22           16.1415     0.9284    -4.6554 C.3     
  23 C23           16.6300     2.3778    -4.6932 C.3     
  24 C24           18.1539     2.3991    -4.8273 C.3     
  25 N25           18.6217     3.7869    -4.8634 N.ar    
  26 C26           18.9269     4.3879    -3.7296 C.ar    
  27 C27           19.3717     5.6940    -3.7172 C.ar    
  28 C28           19.4965     6.3798    -4.9311 C.ar    
  29 C29           19.1614     5.7026    -6.1094 C.ar    
  30 C30           18.7295     4.3945    -6.0292 C.ar    
  31 C31           19.9682     7.7793    -4.9675 C.2     
  32 N32           20.0767     8.3956    -6.0988 N.2     
  33 O33           20.5288     9.7371    -6.1337 O.3     
  34 C34           20.6003    10.2923    -7.4485 C.3     
  35 N35           21.6508    13.7143    -8.6943 N.am    
  36 C36           22.9450    14.0778    -8.7462 C.2     
  37 C37           23.0253    15.5500    -8.6419 C.ar    
  38 C38           21.6950    16.0016    -8.5273 C.ar    
  39 C39           20.8513    14.7886    -8.5659 C.2     
  40 C40           24.0662    16.4646    -8.6379 C.ar    
  41 C41           23.7913    17.8182    -8.5211 C.ar    
  42 C42           22.4867    18.2611    -8.4088 C.ar    
  43 C43           21.4354    17.3578    -8.4109 C.ar    
  44 O44           23.8894    13.3226    -8.8594 O.2     
  45 O45           19.6392    14.7655    -8.4938 O.2     
  46 C46            6.5340     0.7830    -1.4966 C.3     
  47 C47            6.0368     0.7693    -0.0497 C.3     
  48 C48           21.0979    11.7367    -7.3658 C.3     
  49 C49           21.1744    12.3312    -8.7735 C.3     
  50 H50           -0.9613     1.9015     0.0169 H       
  51 H51           -0.9280    -0.5530     0.0079 H       
  52 H52            1.2149    -1.7703    -0.0179 H       
  53 H53            1.1477     3.1767     0.0074 H       
  54 H54            8.4437    -0.0835    -1.0036 H       
  55 H55            8.4196     1.6962    -0.9950 H       
  56 H56            9.8643     0.8452    -5.0418 H       
  57 H57           11.9694     0.8802    -6.4457 H       
  58 H58           14.4258     0.9141    -6.5874 H       
  59 H59           14.7899     0.8983    -2.4534 H       
  60 H60           12.3465     0.8704    -2.1638 H       
  61 H61           16.5884     0.4164    -3.8032 H       
  62 H62           16.4323     0.4229    -5.5763 H       
  63 H63           16.1830     2.8898    -5.5454 H       
  64 H64           16.3392     2.8833    -3.7723 H       
  65 H65           18.6009     1.8871    -3.9751 H       
  66 H66           18.4447     1.8936    -5.7482 H       
  67 H67           18.8269     3.8504    -2.7982 H       
  68 H68           19.6194     6.1799    -2.7850 H       
  69 H69           19.2434     6.1952    -7.0670 H       
  70 H70           18.4686     3.8634    -6.9327 H       
  71 H71           20.2223     8.2876    -4.0491 H       
  72 H72           21.2902     9.7045    -8.0541 H       
  73 H73           19.6106    10.2744    -7.9047 H       
  74 H74           25.0875    16.1242    -8.7250 H       
  75 H75           24.6020    18.5317    -8.5176 H       
  76 H76           22.2852    19.3182    -8.3184 H       
  77 H77           20.4180    17.7095    -8.3229 H       
  78 H78            6.1541     1.6704    -2.0029 H       
  79 H79            6.1783    -0.1094    -2.0115 H       
  80 H80            6.3926     1.6617     0.4652 H       
  81 H81            6.4167    -0.1181     0.4567 H       
  82 H82           20.4080    12.3245    -6.7602 H       
  83 H83           22.0876    11.7546    -6.9095 H       
  84 H84           20.1847    12.3134    -9.2298 H       
  85 H85           21.8643    11.7434    -9.3791 H       
@<TRIPOS>BOND
   1    1    2 ar
   2    1    6 ar
   3    1   50 1
   4    2    3 ar
   5    2   51 1
   6    3    4 ar
   7    3   52 1
   8    4    5 ar
   9    4    7 1
  10    5    6 ar
  11    5    9 1
  12    6   53 1
  13    7    8 am
  14    7   11 2
  15    8    9 am
  16    8   47 1
  17    9   10 2
  18   12   13 1
  19   12   46 1
  20   12   54 1
  21   12   55 1
  22   13   14 1
  23   14   15 2
  24   15   16 1
  25   15   56 1
  26   16   17 ar
  27   16   21 ar
  28   17   18 ar
  29   17   57 1
  30   18   19 ar
  31   18   58 1
  32   19   20 ar
  33   19   22 1
  34   20   21 ar
  35   20   59 1
  36   21   60 1
  37   22   23 1
  38   22   61 1
  39   22   62 1
  40   23   24 1
  41   23   63 1
  42   23   64 1
  43   24   25 1
  44   24   65 1
  45   24   66 1
  46   25   26 ar
  47   25   30 ar
  48   26   27 ar
  49   26   67 1
  50   27   28 ar
  51   27   68 1
  52   28   29 ar
  53   28   31 1
  54   29   30 ar
  55   29   69 1
  56   30   70 1
  57   31   32 2
  58   31   71 1
  59   32   33 1
  60   33   34 1
  61   34   48 1
  62   34   72 1
  63   34   73 1
  64   35   36 am
  65   35   39 am
  66   35   49 1
  67   36   37 1
  68   36   44 2
  69   37   38 ar
  70   37   40 ar
  71   38   39 1
  72   38   43 ar
  73   39   45 2
  74   40   41 ar
  75   40   74 1
  76   41   42 ar
  77   41   75 1
  78   42   43 ar
  79   42   76 1
  80   43   77 1
  81   46   47 1
  82   46   78 1
  83   46   79 1
  84   47   80 1
  85   47   81 1
  86   48   49 1
  87   48   82 1
  88   48   83 1
  89   49   84 1
  90   49   85 1

#	End of record

