#	Name: ASD01140419
#	Creating user name:	WinNT
#	Creation time:	15. 06. 2019 19:00

#	Modifying user name:	WinNT
#	Modification time:	15. 06. 2019 19:00

#	Program:	/corina/corina34_cracker 3.40 0067  02.08.2006

@<TRIPOS>MOLECULE
ASD01140419
  32   33    0    0    0
SMALL
NO_CHARGES


@<TRIPOS>ATOM
   1 C1            -0.0168     1.3843     0.0097 C.ar    
   2 C2             0.0021    -0.0041     0.0020 C.ar    
   3 N3            -1.1188    -0.6984     0.0094 N.ar    
   4 C4            -2.2996    -0.1149     0.0243 C.ar    
   5 C5            -2.4064     1.2761     0.0324 C.ar    
   6 C6            -1.2378     2.0449     0.0307 C.ar    
   7 O7             1.1460     2.0880     0.0023 O.3     
   8 C8             2.3602     1.3347    -0.0133 C.3     
   9 C9             3.5541     2.2916    -0.0196 C.3     
  10 C10           -3.6920     1.9068     0.0476 C.1     
  11 C11           -4.7459     2.4239     0.0601 C.1     
  12 C12            4.8743     1.5043    -0.1625 C.3     
  13 C13            5.8839     2.2482     0.7358 C.3     
  14 C14            5.0887     3.4224     1.3459 C.3     
  15 N15            3.6706     2.9832     1.2900 N.3     
  16 C16            2.7599     4.1338     1.3606 C.3     
  17 H17            0.9491    -0.5231    -0.0106 H       
  18 H18           -3.1944    -0.7196     0.0300 H       
  19 H19           -1.2842     3.1239     0.0371 H       
  20 H20            2.4065     0.7017     0.8729 H       
  21 H21            2.3895     0.7113    -0.9070 H       
  22 H22            3.4546     3.0169    -0.8271 H       
  23 H23           -5.6885     2.8864     0.0713 H       
  24 H24            4.7432     0.4791     0.1837 H       
  25 H25            5.2108     1.5145    -1.1992 H       
  26 H26            6.2483     1.5882     1.5230 H       
  27 H27            6.7159     2.6236     0.1400 H       
  28 H28            5.3936     3.5922     2.3786 H       
  29 H29            5.2304     4.3262     0.7533 H       
  30 H30            2.9509     4.8004     0.5195 H       
  31 H31            1.7285     3.7838     1.3199 H       
  32 H32            2.9248     4.6709     2.2946 H       
@<TRIPOS>BOND
   1    1    2 ar
   2    1    7 1
   3    1    6 ar
   4    2    3 ar
   5    2   17 1
   6    3    4 ar
   7    4    5 ar
   8    4   18 1
   9    5    6 ar
  10    5   10 1
  11    6   19 1
  12    7    8 1
  13    8    9 1
  14    8   20 1
  15    8   21 1
  16    9   12 1
  17    9   15 1
  18    9   22 1
  19   10   11 3
  20   11   23 1
  21   12   13 1
  22   12   24 1
  23   12   25 1
  24   13   14 1
  25   13   26 1
  26   13   27 1
  27   14   15 1
  28   14   28 1
  29   14   29 1
  30   15   16 1
  31   16   30 1
  32   16   31 1
  33   16   32 1

#	End of record

