#	Name: ASD00170237
#	Creating user name:	WinNT
#	Creation time:	15. 06. 2019 18:31

#	Modifying user name:	WinNT
#	Modification time:	15. 06. 2019 18:31

#	Program:	/corina/corina34_cracker 3.40 0067  02.08.2006

@<TRIPOS>MOLECULE
ASD00170237
  38   40    0    0    0
SMALL
NO_CHARGES


@<TRIPOS>ATOM
   1 C1             0.0055     1.3244     0.0068 C.2     
   2 C2             0.0169    -0.0127    -0.0003 C.2     
   3 C3            -1.3213    -0.5779     0.0105 C.2     
   4 C4            -2.3088     0.3691     0.0260 C.2     
   5 S5            -1.6408     1.9350     0.0199 S.3     
   6 N6            -3.6628     0.0925     0.0379 N.pl3   
   7 C7            -1.5869    -2.0178     0.0050 C.2     
   8 N8            -1.7215    -2.6738    -1.1647 N.am    
   9 O9            -1.6862    -2.6226     1.0569 O.2     
  10 C10           -1.8636    -4.0651    -1.1739 C.ar    
  11 C11            1.2511     2.1899    -0.0018 C.3     
  12 C12            2.4523     1.3281     0.3964 C.3     
  13 C13            2.4549     0.0526    -0.4515 C.3     
  14 C14            1.2913    -0.8416    -0.0173 C.3     
  15 C15           -2.6710    -4.6759    -2.1246 C.ar    
  16 C16           -2.8089    -6.0501    -2.1313 C.ar    
  17 C17           -2.1444    -6.8177    -1.1924 C.ar    
  18 C18           -1.3401    -6.2126    -0.2441 C.ar    
  19 C19           -1.1931    -4.8394    -0.2359 C.ar    
  20 C20           -2.2975    -8.3169    -1.2023 C.3     
  21 F21           -1.3114    -8.8810    -2.0188 F       
  22 F22           -2.1615    -8.8082     0.1005 F       
  23 F23           -3.5618    -8.6532    -1.6979 F       
  24 H24           -3.9699    -0.8276     0.0356 H       
  25 H25           -4.3061     0.8184     0.0486 H       
  26 H26           -1.7197    -2.1809    -2.0001 H       
  27 H27            1.4075     2.5952    -1.0015 H       
  28 H28            1.1341     3.0058     0.7115 H       
  29 H29            3.3736     1.8838     0.2219 H       
  30 H30            2.3781     1.0645     1.4514 H       
  31 H31            2.3405     0.3142    -1.5034 H       
  32 H32            3.3958    -0.4786    -0.3076 H       
  33 H33            1.4851    -1.2345     0.9808 H       
  34 H34            1.1815    -1.6661    -0.7218 H       
  35 H35           -3.1908    -4.0769    -2.8577 H       
  36 H36           -3.4366    -6.5257    -2.8703 H       
  37 H37           -0.8230    -6.8149     0.4882 H       
  38 H38           -0.5645    -4.3674     0.5048 H       
@<TRIPOS>BOND
   1    1    2 2
   2    1   11 1
   3    1    5 1
   4    2    3 1
   5    2   14 1
   6    3    4 2
   7    3    7 1
   8    4    5 1
   9    4    6 1
  10    6   24 1
  11    6   25 1
  12    7    8 am
  13    7    9 2
  14    8   10 1
  15    8   26 1
  16   10   15 ar
  17   10   19 ar
  18   11   12 1
  19   11   27 1
  20   11   28 1
  21   12   13 1
  22   12   29 1
  23   12   30 1
  24   13   14 1
  25   13   31 1
  26   13   32 1
  27   14   33 1
  28   14   34 1
  29   15   16 ar
  30   15   35 1
  31   16   17 ar
  32   16   36 1
  33   17   18 ar
  34   17   20 1
  35   18   19 ar
  36   18   37 1
  37   19   38 1
  38   20   21 1
  39   20   22 1
  40   20   23 1

#	End of record

