#	Name: ASD00170757
#	Creating user name:	WinNT
#	Creation time:	15. 06. 2019 18:32

#	Modifying user name:	WinNT
#	Modification time:	15. 06. 2019 18:32

#	Program:	/corina/corina34_cracker 3.40 0067  02.08.2006

@<TRIPOS>MOLECULE
ASD00170757
  42   44    0    0    0
SMALL
NO_CHARGES


@<TRIPOS>ATOM
   1 C1            -0.0154     1.2114    -0.0012 C.2     
   2 O2             0.6390     1.0218    -1.0106 O.2     
   3 C3             0.4829     0.7280     1.3048 C.ar    
   4 C4             1.6419    -0.0475     1.3690 C.ar    
   5 C5             2.1021    -0.4952     2.5905 C.ar    
   6 C6             1.4152    -0.1763     3.7518 C.ar    
   7 C7             0.2650     0.5923     3.6931 C.ar    
   8 C8            -0.2007     1.0504     2.4782 C.ar    
   9 Cl9            1.9991    -0.7431     5.2852 Cl      
  10 Cl10           3.5431    -1.4598     2.6731 Cl      
  11 C11           -1.4053     3.2884    -0.0050 C.2     
  12 C12           -1.2899     1.9219    -0.0794 C.2     
  13 C13           -2.5737     1.2585    -0.2453 C.2     
  14 C14           -3.5983     2.1162    -0.2909 C.2     
  15 S15           -3.0345     3.7698    -0.1327 S.3     
  16 C16           -5.0419     1.7165    -0.4558 C.3     
  17 C17           -2.7295    -0.2116    -0.3525 C.ar    
  18 C18           -3.4126    -0.9170     0.6374 C.ar    
  19 C19           -3.5544    -2.2856     0.5322 C.ar    
  20 C20           -3.0202    -2.9578    -0.5526 C.ar    
  21 C21           -2.3410    -2.2633    -1.5375 C.ar    
  22 C22           -2.1983    -0.8938    -1.4463 C.ar    
  23 C23           -1.7613    -3.0031    -2.7155 C.3     
  24 F24           -2.0370    -4.3689    -2.5901 F       
  25 F25           -2.3323    -2.5187    -3.8973 F       
  26 F26           -0.3764    -2.8084    -2.7528 F       
  27 C27           -4.2920    -3.0496     1.6014 C.3     
  28 F28           -5.6501    -3.1183     1.2726 F       
  29 F29           -3.7688    -4.3437     1.6950 F       
  30 F30           -4.1419    -2.3961     2.8292 F       
  31 N31           -0.3441     4.1551     0.1573 N.pl3   
  32 H32            2.1770    -0.2969     0.4646 H       
  33 H33           -0.2662     0.8374     4.6009 H       
  34 H34           -1.0956     1.6535     2.4346 H       
  35 H35           -5.4889     1.5562     0.5254 H       
  36 H36           -5.5811     2.5085    -0.9756 H       
  37 H37           -5.1000     0.7958    -1.0363 H       
  38 H38           -3.8297    -0.3934     1.4849 H       
  39 H39           -3.1337    -4.0290    -0.6306 H       
  40 H40           -1.6723    -0.3520    -2.2185 H       
  41 H41            0.5492     3.8063     0.3030 H       
  42 H42           -0.4914     5.1134     0.1258 H       
@<TRIPOS>BOND
   1    1    2 2
   2    1    3 1
   3    1   12 1
   4    3    4 ar
   5    3    8 ar
   6    4    5 ar
   7    4   32 1
   8    5    6 ar
   9    5   10 1
  10    6    7 ar
  11    6    9 1
  12    7    8 ar
  13    7   33 1
  14    8   34 1
  15   11   12 2
  16   11   15 1
  17   11   31 1
  18   12   13 1
  19   13   14 2
  20   13   17 1
  21   14   15 1
  22   14   16 1
  23   16   35 1
  24   16   36 1
  25   16   37 1
  26   17   18 ar
  27   17   22 ar
  28   18   19 ar
  29   18   38 1
  30   19   20 ar
  31   19   27 1
  32   20   21 ar
  33   20   39 1
  34   21   22 ar
  35   21   23 1
  36   22   40 1
  37   23   24 1
  38   23   25 1
  39   23   26 1
  40   27   28 1
  41   27   29 1
  42   27   30 1
  43   31   41 1
  44   31   42 1

#	End of record

