#	Name: ASD01881731
#	Creating user name:	WinNT
#	Creation time:	15. 06. 2019 19:43

#	Modifying user name:	WinNT
#	Modification time:	15. 06. 2019 19:43

#	Program:	/corina/corina34_cracker 3.40 0067  02.08.2006

@<TRIPOS>MOLECULE
ASD01881731
  46   48    0    0    0
SMALL
NO_CHARGES


@<TRIPOS>ATOM
   1 C1            -0.0180     1.4730     0.0101 C.2     
   2 C2             0.0021    -0.0041     0.0020 C.ar    
   3 C3             1.2190    -0.6889    -0.0133 C.ar    
   4 C4             1.2304    -2.0681    -0.0203 C.ar    
   5 C5             0.0396    -2.7731    -0.0127 C.ar    
   6 C6            -1.1695    -2.1010     0.0020 C.ar    
   7 C7            -1.1954    -0.7216     0.0154 C.ar    
   8 O8             1.0256     2.0946     0.0035 O.2     
   9 O9            -1.1936     2.1307     0.0193 O.3     
  10 C10            2.5427    -2.8089    -0.0368 C.3     
  11 O11            2.9705    -3.0499     1.3052 O.3     
  12 N12            7.6708    -5.7037     2.2373 N.pl3   
  13 N13            7.5974    -5.6608     3.6375 N.2     
  14 N14            6.5208    -5.0522     3.9913 N.2     
  15 C15            5.8254    -4.6604     2.9050 C.ar    
  16 C16            6.5443    -5.0677     1.7677 C.ar    
  17 C17            4.6131    -3.9765     2.7398 C.ar    
  18 C18            4.1462    -3.7135     1.4686 C.ar    
  19 C19            4.8699    -4.1232     0.3513 C.ar    
  20 C20            6.0526    -4.7920     0.4969 C.ar    
  21 C21            8.7394    -6.3019     1.4332 C.3     
  22 C22            8.4073    -7.7692     1.1544 C.3     
  23 C23            7.0844    -7.8565     0.3907 C.3     
  24 C24            9.5232    -8.3940     0.3147 C.3     
  25 C25            8.2821    -8.5244     2.4792 C.3     
  26 Br26           3.6236    -3.4167     4.2509 Br      
  27 H27            2.1490    -0.1399    -0.0199 H       
  28 H28            0.0543    -3.8530    -0.0186 H       
  29 H29           -2.0952    -2.6573     0.0071 H       
  30 H30           -2.1399    -0.1982     0.0318 H       
  31 H31           -1.1561     3.0969     0.0244 H       
  32 H32            2.4165    -3.7600    -0.5542 H       
  33 H33            3.2916    -2.2100    -0.5550 H       
  34 H34            4.4928    -3.9112    -0.6383 H       
  35 H35            6.6062    -5.1056    -0.3758 H       
  36 H36            8.8285    -5.7639     0.4894 H       
  37 H37            9.6818    -6.2397     1.9773 H       
  38 H38            7.1736    -7.3185    -0.5531 H       
  39 H39            6.8479    -8.9018     0.1921 H       
  40 H40            6.2894    -7.4114     0.9889 H       
  41 H41           10.4657    -8.3318     0.8588 H       
  42 H42            9.2867    -9.4393     0.1161 H       
  43 H43            9.6124    -7.8560    -0.6291 H       
  44 H44            7.4871    -8.0792     3.0774 H       
  45 H45            8.0455    -9.5697     2.2806 H       
  46 H46            9.2245    -8.4622     3.0233 H       
@<TRIPOS>BOND
   1    1    2 1
   2    1    8 2
   3    1    9 1
   4    2    3 ar
   5    2    7 ar
   6    3    4 ar
   7    3   27 1
   8    4    5 ar
   9    4   10 1
  10    5    6 ar
  11    5   28 1
  12    6    7 ar
  13    6   29 1
  14    7   30 1
  15    9   31 1
  16   10   11 1
  17   10   32 1
  18   10   33 1
  19   11   18 1
  20   12   13 1
  21   12   16 1
  22   12   21 1
  23   13   14 2
  24   14   15 1
  25   15   16 ar
  26   15   17 ar
  27   16   20 ar
  28   17   18 ar
  29   17   26 1
  30   18   19 ar
  31   19   20 ar
  32   19   34 1
  33   20   35 1
  34   21   22 1
  35   21   36 1
  36   21   37 1
  37   22   23 1
  38   22   24 1
  39   22   25 1
  40   23   38 1
  41   23   39 1
  42   23   40 1
  43   24   41 1
  44   24   42 1
  45   24   43 1
  46   25   44 1
  47   25   45 1
  48   25   46 1

#	End of record

