#	Name: ASD03110007
#	Creating user name:	WinNT
#	Creation time:	15. 06. 2019 20:33

#	Modifying user name:	WinNT
#	Modification time:	15. 06. 2019 20:33

#	Program:	/corina/corina34_cracker 3.40 0067  02.08.2006

@<TRIPOS>MOLECULE
ASD03110007
  38   41    0    0    0
SMALL
NO_CHARGES


@<TRIPOS>ATOM
   1 C1            -0.0167     1.3837     0.0096 C.ar    
   2 C2             0.0021    -0.0041     0.0020 C.ar    
   3 C3             1.2033    -0.6765    -0.0126 C.ar    
   4 C4             2.4013     0.0355    -0.0202 C.ar    
   5 C5             2.3914     1.4362    -0.0130 C.ar    
   6 C6             1.1424     2.0967     0.0024 C.ar    
   7 S7             4.0773    -0.5072    -0.0385 S.3     
   8 C8             4.6287     1.1625    -0.0353 C.2     
   9 N9             3.6194     1.9666    -0.0218 N.2     
  10 C10            6.0454     1.5847    -0.0464 C.ar    
  11 C11            6.3692     2.9433    -0.0426 C.ar    
  12 C12            7.0599     0.6248    -0.0549 C.ar    
  13 C13            8.3792     1.0175    -0.0648 C.ar    
  14 C14            8.7033     2.3767    -0.0668 C.ar    
  15 C15            7.6882     3.3367    -0.0529 C.ar    
  16 C16           10.1190     2.7985    -0.0769 C.2     
  17 O17           11.0025     1.9627    -0.0835 O.2     
  18 N18           10.4315     4.1095    -0.0788 N.am    
  19 N19           11.7741     4.5096    -0.0884 N.2     
  20 C20           12.0758     5.7751    -0.0902 C.2     
  21 C21           13.4809     6.1938    -0.1002 C.2     
  22 S22           14.8657     5.1093    -0.1111 S.3     
  23 C23           13.9192     7.4850    -0.1085 C.2     
  24 C24           15.2897     7.6207    -0.1178 C.2     
  25 C25           15.9756     6.4729    -0.1194 C.2     
  26 H26           -0.9630     1.9042     0.0169 H       
  27 H27           -0.9259    -0.5566     0.0079 H       
  28 H28            1.2173    -1.7564    -0.0178 H       
  29 H29            1.1074     3.1761     0.0082 H       
  30 H30            5.5845     3.6853    -0.0319 H       
  31 H31            6.8093    -0.4257    -0.0534 H       
  32 H32            9.1636     0.2752    -0.0707 H       
  33 H33            7.9384     4.3873    -0.0545 H       
  34 H34            9.7268     4.7761    -0.0735 H       
  35 H35           11.2912     6.5173    -0.0843 H       
  36 H36           13.2476     8.3308    -0.1077 H       
  37 H37           15.7756     8.5852    -0.1254 H       
  38 H38           17.0528     6.3949    -0.1261 H       
@<TRIPOS>BOND
   1    1    2 ar
   2    1    6 ar
   3    1   26 1
   4    2    3 ar
   5    2   27 1
   6    3    4 ar
   7    3   28 1
   8    4    5 ar
   9    4    7 1
  10    5    6 ar
  11    5    9 1
  12    6   29 1
  13    7    8 1
  14    8    9 2
  15    8   10 1
  16   10   11 ar
  17   10   12 ar
  18   11   15 ar
  19   11   30 1
  20   12   13 ar
  21   12   31 1
  22   13   14 ar
  23   13   32 1
  24   14   15 ar
  25   14   16 1
  26   15   33 1
  27   16   17 2
  28   16   18 am
  29   18   19 1
  30   18   34 1
  31   19   20 2
  32   20   21 1
  33   20   35 1
  34   21   22 1
  35   21   23 2
  36   22   25 1
  37   23   24 1
  38   23   36 1
  39   24   25 2
  40   24   37 1
  41   25   38 1

#	End of record

