#	Name: ASD03451016
#	Creating user name:	WinNT
#	Creation time:	15. 06. 2019 20:42

#	Modifying user name:	WinNT
#	Modification time:	15. 06. 2019 20:42

#	Program:	/corina/corina34_cracker 3.40 0067  02.08.2006

@<TRIPOS>MOLECULE
ASD03451016
  36   39    0    0    0
SMALL
NO_CHARGES


@<TRIPOS>ATOM
   1 C1            -0.0013     1.6160     0.0517 C.ar    
   2 C2            -0.0342     0.2341    -0.0134 C.ar    
   3 C3             1.1555    -0.4684    -0.0583 C.ar    
   4 C4             2.3644     0.2436    -0.0368 C.ar    
   5 C5             2.3223     1.6427     0.0234 C.ar    
   6 N6             1.1397     2.2674     0.0683 N.ar    
   7 C7             3.6170    -0.5249    -0.0733 C.2     
   8 N8             4.6673    -0.2337     0.6211 N.2     
   9 C9             4.6929     0.9290     1.5088 C.3     
  10 C10            4.5150     2.1734     0.6844 C.2     
  11 N11            3.4337     2.4198     0.0333 N.2     
  12 C12            3.6789    -1.7041    -0.9590 C.2     
  13 C13            3.5729     0.8234     2.5116 C.2     
  14 S14            2.6772     2.1824     3.1782 S.3     
  15 C15            1.6937     1.0958     4.1506 C.2     
  16 C16            2.0717    -0.1648     3.9333 C.2     
  17 C17            3.1054    -0.3155     3.0251 C.2     
  18 N18            4.7109    -2.4887    -1.1064 N.2     
  19 C19            4.5569    -3.4836    -1.9446 C.2     
  20 C20            3.3598    -3.5641    -2.5399 C.2     
  21 S21            2.3694    -2.2854    -1.9828 S.3     
  22 N22            5.5375     3.0737     0.6247 N.pl3   
  23 C23            5.3923     4.2952    -0.1708 C.3     
  24 H24           -0.9288     2.1684     0.0849 H       
  25 H25           -0.9786    -0.2896    -0.0284 H       
  26 H26            1.1545    -1.5473    -0.1089 H       
  27 H27            5.6494     0.9697     2.0299 H       
  28 H28            0.9046     1.4024     4.8212 H       
  29 H29            1.6040    -1.0046     4.4258 H       
  30 H30            3.5076    -1.2815     2.7578 H       
  31 H31            5.3457    -4.1940    -2.1434 H       
  32 H32            3.0655    -4.3181    -3.2549 H       
  33 H33            6.3609     2.9052     1.1090 H       
  34 H34            6.3049     4.8869    -0.0979 H       
  35 H35            5.2130     4.0310    -1.2130 H       
  36 H36            4.5512     4.8768     0.2065 H       
@<TRIPOS>BOND
   1    1    2 ar
   2    1    6 ar
   3    1   24 1
   4    2    3 ar
   5    2   25 1
   6    3    4 ar
   7    3   26 1
   8    4    5 ar
   9    4    7 1
  10    5    6 ar
  11    5   11 1
  12    7    8 2
  13    7   12 1
  14    8    9 1
  15    9   10 1
  16    9   13 1
  17    9   27 1
  18   10   11 2
  19   10   22 1
  20   12   18 2
  21   12   21 1
  22   13   14 1
  23   13   17 2
  24   14   15 1
  25   15   16 2
  26   15   28 1
  27   16   17 1
  28   16   29 1
  29   17   30 1
  30   18   19 1
  31   19   20 2
  32   19   31 1
  33   20   21 1
  34   20   32 1
  35   22   23 1
  36   22   33 1
  37   23   34 1
  38   23   35 1
  39   23   36 1

#	End of record

