#	Name: ASD01916183
#	Creating user name:	WinNT
#	Creation time:	15. 06. 2019 20:06

#	Modifying user name:	WinNT
#	Modification time:	15. 06. 2019 20:06

#	Program:	/corina/corina34_cracker 3.40 0067  02.08.2006

@<TRIPOS>MOLECULE
ASD01916183
  37   39    0    0    0
SMALL
NO_CHARGES


@<TRIPOS>ATOM
   1 C1            -0.0167     1.3816     0.0096 C.ar    
   2 C2             0.0021    -0.0041     0.0020 C.ar    
   3 C3            -1.1829    -0.7186     0.0095 C.ar    
   4 C4            -2.3921    -0.0560     0.0246 C.ar    
   5 C5            -2.4205     1.3417     0.0328 C.ar    
   6 C6            -1.2210     2.0584     0.0305 C.ar    
   7 F7             1.1446     2.0719     0.0023 F       
   8 C8            -3.6730     2.0357     0.0486 C.1     
   9 C9            -4.6999     2.6046     0.0615 C.1     
  10 C10           -5.9524     3.2985     0.0772 C.ar    
  11 N11           -5.9666     4.6297     0.0850 N.ar    
  12 C12           -7.0937     5.3064     0.0990 C.ar    
  13 C13           -8.3225     4.6414     0.1063 C.ar    
  14 C14           -8.3407     3.2386     0.0984 C.ar    
  15 C15           -7.1466     2.5693     0.0785 C.ar    
  16 C16           -9.5856     5.4051     0.1225 C.2     
  17 N17           -9.5583     6.7526     0.1304 N.am    
  18 O18          -10.6506     4.8186     0.1288 O.2     
  19 C19          -10.8118     7.5106     0.1465 C.3     
  20 C20          -10.6727     8.9185     0.7493 C.3     
  21 C21          -11.6170     9.4028    -0.3637 C.3     
  22 C22          -11.1320     8.2001    -1.1902 C.3     
  23 H23            0.9460    -0.5287    -0.0102 H       
  24 H24           -1.1606    -1.7983     0.0031 H       
  25 H25           -3.3157    -0.6158     0.0297 H       
  26 H26           -1.2353     3.1383     0.0372 H       
  27 H27           -7.0696     6.3861     0.1053 H       
  28 H28           -9.2760     2.6987     0.1038 H       
  29 H29           -7.1265     1.4895     0.0720 H       
  30 H30           -8.7086     7.2205     0.1254 H       
  31 H31          -11.6458     6.9407     0.5562 H       
  32 H32          -11.0949     9.0087     1.7501 H       
  33 H33           -9.6650     9.3274     0.6755 H       
  34 H34          -12.6719     9.3507    -0.0945 H       
  35 H35          -11.3343    10.3664    -0.7875 H       
  36 H36          -10.2499     8.4126    -1.7942 H       
  37 H37          -11.9251     7.7103    -1.7552 H       
@<TRIPOS>BOND
   1    1    2 ar
   2    1    7 1
   3    1    6 ar
   4    2    3 ar
   5    2   23 1
   6    3    4 ar
   7    3   24 1
   8    4    5 ar
   9    4   25 1
  10    5    6 ar
  11    5    8 1
  12    6   26 1
  13    8    9 3
  14    9   10 1
  15   10   11 ar
  16   10   15 ar
  17   11   12 ar
  18   12   13 ar
  19   12   27 1
  20   13   14 ar
  21   13   16 1
  22   14   15 ar
  23   14   28 1
  24   15   29 1
  25   16   17 am
  26   16   18 2
  27   17   19 1
  28   17   30 1
  29   19   20 1
  30   19   22 1
  31   19   31 1
  32   20   21 1
  33   20   32 1
  34   20   33 1
  35   21   22 1
  36   21   34 1
  37   21   35 1
  38   22   36 1
  39   22   37 1

#	End of record

