#	Name: ASD02610050
#	Creating user name:	WinNT
#	Creation time:	15. 06. 2019 20:25

#	Modifying user name:	WinNT
#	Modification time:	15. 06. 2019 20:25

#	Program:	/corina/corina34_cracker 3.40 0067  02.08.2006

@<TRIPOS>MOLECULE
ASD02610050
  60   63    0    0    0
SMALL
NO_CHARGES


@<TRIPOS>ATOM
   1 O1            -0.0103     1.3374     0.0820 O.3     
   2 C2             1.2757     2.0111     0.1064 C.3     
   3 C3             1.1825     3.3772    -0.6006 C.3     
   4 C4             1.6759     2.3626     1.5600 C.3     
   5 O5             0.5282     2.3975     2.4106 O.3     
   6 C6             2.2858     3.7780     1.3956 C.3     
   7 O7             1.4543     4.3877     0.3849 O.3     
   8 N8             2.2013     4.5253     2.6528 N.pl3   
   9 C9             2.2187     3.4536    -1.7237 C.3     
  10 C10            3.0981     4.4735     3.6898 C.ar    
  11 C11            2.6068     5.3508     4.6710 C.ar    
  12 N12            1.4570     5.8828     4.1913 N.2     
  13 C13            1.2203     5.4041     3.0045 C.2     
  14 N14            4.2309     3.8170     3.9191 N.ar    
  15 C15            4.8861     3.9837     5.0484 C.ar    
  16 N16            4.4636     4.7965     5.9998 N.ar    
  17 C17            3.3416     5.4946     5.8605 C.ar    
  18 N18            2.9069     6.3438     6.8630 N.pl3   
  19 O19            2.0478     4.6740    -2.4472 O.3     
  20 P20            2.9700     5.0867    -3.7007 P.3     
  21 O21            4.4563     5.0520    -3.2802 O.co2   
  22 O22            2.7393     4.0913    -4.8596 O.co2   
  23 O23            2.5838     6.5728    -4.1848 O.3     
  24 P24            3.2940     7.6584    -5.1384 P.3     
  25 O25            2.6957     9.1201    -4.8261 O.3     
  26 O26            4.8163     7.6579    -4.8746 O.co2   
  27 O27            3.0274     7.2979    -6.6169 O.co2   
  28 P28            3.1630    10.6192    -5.1816 P.3     
  29 O29            3.2254    10.7916    -6.7375 O.co2   
  30 O30            2.1375    11.6415    -4.5836 O.co2   
  31 O31            4.5808    10.8832    -4.5696 O.co2   
  32 C32            0.0051    -0.0101     0.0663 C.2     
  33 C33           -1.2619    -0.7608     0.0413 C.ar    
  34 O34            1.0643    -0.6058     0.0728 O.2     
  35 C35           -2.4811    -0.0874     0.1615 C.ar    
  36 C36           -3.6622    -0.7954     0.1374 C.ar    
  37 C37           -3.6499    -2.1742    -0.0055 C.ar    
  38 C38           -2.4553    -2.8538    -0.1248 C.ar    
  39 C39           -1.2532    -2.1568    -0.1091 C.ar    
  40 N40           -0.0497    -2.8383    -0.2290 N.pl3   
  41 C41           -0.0343    -4.3032    -0.2296 C.3     
  42 H42            2.0394     1.3904    -0.3622 H       
  43 H43            0.1809     3.5163    -1.0075 H       
  44 H44            2.4180     1.6604     1.9397 H       
  45 H45            0.7277     2.6135     3.3318 H       
  46 H46            3.3200     3.7134     1.0576 H       
  47 H47            3.2208     3.4219    -1.2962 H       
  48 H48            2.0850     2.6088    -2.3994 H       
  49 H49            0.3683     5.6593     2.3919 H       
  50 H50            5.8034     3.4349     5.2030 H       
  51 H51            3.4230     6.4347     7.6792 H       
  52 H52            2.0861     6.8481     6.7494 H       
  53 H53           -2.4968     0.9866     0.2735 H       
  54 H54           -4.6032    -0.2735     0.2308 H       
  55 H55           -4.5816    -2.7201    -0.0232 H       
  56 H56           -2.4545    -3.9281    -0.2351 H       
  57 H57            0.7811    -2.3445    -0.3124 H       
  58 H58           -0.4533    -4.6713     0.7069 H       
  59 H59           -0.6303    -4.6725    -1.0642 H       
  60 H60            0.9920    -4.6558    -0.3320 H       
@<TRIPOS>BOND
   1    1   32 1
   2    1    2 1
   3    2    3 1
   4    2    4 1
   5    2   42 1
   6    3    7 1
   7    3    9 1
   8    3   43 1
   9    4    5 1
  10    4    6 1
  11    4   44 1
  12    5   45 1
  13    6    8 1
  14    6    7 1
  15    6   46 1
  16    8   10 1
  17    8   13 1
  18    9   19 1
  19    9   47 1
  20    9   48 1
  21   10   11 ar
  22   10   14 ar
  23   11   12 1
  24   11   17 ar
  25   12   13 2
  26   13   49 1
  27   14   15 ar
  28   15   16 ar
  29   15   50 1
  30   16   17 ar
  31   17   18 1
  32   18   51 1
  33   18   52 1
  34   19   20 1
  35   20   21 ar
  36   20   22 ar
  37   20   23 1
  38   23   24 1
  39   24   25 1
  40   24   26 ar
  41   24   27 ar
  42   25   28 1
  43   28   29 ar
  44   28   30 ar
  45   28   31 ar
  46   32   33 1
  47   32   34 2
  48   33   35 ar
  49   33   39 ar
  50   35   36 ar
  51   35   53 1
  52   36   37 ar
  53   36   54 1
  54   37   38 ar
  55   37   55 1
  56   38   39 ar
  57   38   56 1
  58   39   40 1
  59   40   41 1
  60   40   57 1
  61   41   58 1
  62   41   59 1
  63   41   60 1

#	End of record

