#	Name: ASD01811206
#	Creating user name:	WinNT
#	Creation time:	15. 06. 2019 19:26

#	Modifying user name:	WinNT
#	Modification time:	15. 06. 2019 19:26

#	Program:	/corina/corina34_cracker 3.40 0067  02.08.2006

@<TRIPOS>MOLECULE
ASD01811206
  59   62    0    0    0
SMALL
NO_CHARGES


@<TRIPOS>ATOM
   1 C1             0.0397     1.4344    -0.6048 C.2     
   2 C2             0.0221    -0.0082    -0.2864 C.ar    
   3 C3             1.2227    -0.6999    -0.1040 C.ar    
   4 C4             1.2078    -2.0478     0.1935 C.ar    
   5 C5             0.0083    -2.7218     0.3128 C.ar    
   6 C6            -1.1990    -2.0429     0.1325 C.ar    
   7 C7            -1.1917    -0.6812    -0.1618 C.ar    
   8 O8             0.9149     2.1454    -0.1531 O.2     
   9 O9            -0.9117     1.9602    -1.4004 O.3     
  10 C10            0.0020    -4.1934     0.6377 C.3     
  11 C11            2.5364     0.0272    -0.2326 C.3     
  12 C12            3.3275     0.1077     1.0836 C.3     
  13 C13            4.5917    -0.1556     0.2485 C.3     
  14 C14            3.6768    -0.8519    -0.7727 C.3     
  15 C15           -2.4821    -2.7665     0.2602 C.2     
  16 O16           -2.6838    -3.4809     1.2227 O.2     
  17 N17           -3.4280    -2.6339    -0.6907 N.am    
  18 C18           -4.7541    -3.2423    -0.5174 C.3     
  19 C19           -5.0607    -4.1130    -1.7399 C.3     
  20 C20           -4.9166    -3.2711    -3.0098 C.3     
  21 C21           -3.4775    -2.7637    -3.1269 C.3     
  22 C22           -3.1548    -1.8730    -1.9175 C.3     
  23 C23           -5.2506    -4.1154    -4.2126 C.ar    
  24 C24           -6.2927    -3.7468    -5.0448 C.ar    
  25 C25           -6.6039    -4.5150    -6.1474 C.ar    
  26 C26           -5.8642    -5.6668    -6.4231 C.ar    
  27 C27           -4.8136    -6.0327    -5.5792 C.ar    
  28 C28           -4.5102    -5.2526    -4.4827 C.ar    
  29 C29           -6.1819    -6.4694    -7.5657 C.1     
  30 N30           -6.4339    -7.1060    -8.4721 N.1     
  31 C31           -0.8320     3.3846    -1.6705 C.3     
  32 H32            2.1384    -2.5778     0.3332 H       
  33 H33           -2.1225    -0.1505    -0.2970 H       
  34 H34            0.0460    -4.3270     1.7186 H       
  35 H35           -0.9114    -4.6466     0.2525 H       
  36 H36            0.8668    -4.6709     0.1771 H       
  37 H37            2.4418     0.9849    -0.7444 H       
  38 H38            3.3071     1.0947     1.5456 H       
  39 H39            3.0922    -0.6936     1.7841 H       
  40 H40            5.0601     0.7519    -0.1324 H       
  41 H41            5.3007    -0.8290     0.7301 H       
  42 H42            3.5370    -1.9156    -0.5797 H       
  43 H43            3.9383    -0.6396    -1.8093 H       
  44 H44           -4.7584    -3.8595     0.3811 H       
  45 H45           -5.5068    -2.4589    -0.4286 H       
  46 H46           -4.3617    -4.9485    -1.7761 H       
  47 H47           -6.0798    -4.4933    -1.6694 H       
  48 H48           -5.5983    -2.4219    -2.9619 H       
  49 H49           -2.7934    -3.6120    -3.1500 H       
  50 H50           -3.3697    -2.1837    -4.0434 H       
  51 H51           -3.7797    -0.9802    -1.9406 H       
  52 H52           -2.1034    -1.5864    -1.9432 H       
  53 H53           -6.8640    -2.8557    -4.8304 H       
  54 H54           -7.4180    -4.2265    -6.7958 H       
  55 H55           -4.2374    -6.9223    -5.7867 H       
  56 H56           -3.6952    -5.5322    -3.8315 H       
  57 H57           -1.6553     3.6776    -2.3219 H       
  58 H58           -0.8966     3.9364    -0.7327 H       
  59 H59            0.1159     3.6092    -2.1596 H       
@<TRIPOS>BOND
   1    1    2 1
   2    1    8 2
   3    1    9 1
   4    2    3 ar
   5    2    7 ar
   6    3    4 ar
   7    3   11 1
   8    4    5 ar
   9    4   32 1
  10    5    6 ar
  11    5   10 1
  12    6    7 ar
  13    6   15 1
  14    7   33 1
  15    9   31 1
  16   10   34 1
  17   10   35 1
  18   10   36 1
  19   11   12 1
  20   11   14 1
  21   11   37 1
  22   12   13 1
  23   12   38 1
  24   12   39 1
  25   13   14 1
  26   13   40 1
  27   13   41 1
  28   14   42 1
  29   14   43 1
  30   15   16 2
  31   15   17 am
  32   17   18 1
  33   17   22 1
  34   18   19 1
  35   18   44 1
  36   18   45 1
  37   19   20 1
  38   19   46 1
  39   19   47 1
  40   20   21 1
  41   20   23 1
  42   20   48 1
  43   21   22 1
  44   21   49 1
  45   21   50 1
  46   22   51 1
  47   22   52 1
  48   23   24 ar
  49   23   28 ar
  50   24   25 ar
  51   24   53 1
  52   25   26 ar
  53   25   54 1
  54   26   27 ar
  55   26   29 1
  56   27   28 ar
  57   27   55 1
  58   28   56 1
  59   29   30 3
  60   31   57 1
  61   31   58 1
  62   31   59 1

#	End of record

