#	Name: ASD02198751
#	Creating user name:	WinNT
#	Creation time:	15. 06. 2019 20:20

#	Modifying user name:	WinNT
#	Modification time:	15. 06. 2019 20:20

#	Program:	/corina/corina34_cracker 3.40 0067  02.08.2006

@<TRIPOS>MOLECULE
ASD02198751
  48   52    0    0    0
SMALL
NO_CHARGES


@<TRIPOS>ATOM
   1 F1             2.3871    -1.9558     1.9163 F       
   2 C2            -0.1305     1.5845     0.0672 C.2     
   3 C3            -0.2101     0.2347     0.1806 C.2     
   4 N4             0.8944    -0.5367     0.0673 N.pl3   
   5 N5             2.0653    -0.0621    -0.1491 N.2     
   6 C6             2.2831     1.2292    -0.2795 C.2     
   7 C7             1.1431     2.1536    -0.1726 C.2     
   8 C8             0.7522    -1.9231     0.1931 C.ar    
   9 C9             1.5117    -2.6186     1.1292 C.ar    
  10 C10            1.3700    -3.9878     1.2527 C.ar    
  11 C11            0.4699    -4.6683     0.4426 C.ar    
  12 C12           -0.2881    -3.9727    -0.4920 C.ar    
  13 C13           -0.1512    -2.6050    -0.6125 C.ar    
  14 C14            3.6461     1.7411    -0.5279 C.2     
  15 N15            4.0394     2.5299    -1.5723 N.pl3   
  16 N16            5.4088     2.7828    -1.4237 N.2     
  17 C17            5.8335     2.1792    -0.3423 C.2     
  18 C18            4.7591     1.5182     0.2529 C.2     
  19 C19            3.2199     3.0009    -2.6059 C.ar    
  20 C20            3.3381     4.3132    -3.0445 C.ar    
  21 C21            2.5286     4.7747    -4.0638 C.ar    
  22 C22            1.6010     3.9314    -4.6476 C.ar    
  23 C23            1.4805     2.6243    -4.2129 C.ar    
  24 C24            2.2914     2.1550    -3.1981 C.ar    
  25 O25            1.2899     3.3615    -0.2858 O.2     
  26 N26            0.3268    -6.0522     0.5669 N.3     
  27 C27            0.6596    -6.7371    -0.7048 C.3     
  28 C28           -1.0930    -6.4227     0.7768 C.3     
  29 C29           -1.2748    -7.7371     0.0536 C.2     
  30 C30           -0.2839    -7.9148    -0.7841 C.2     
  31 H31           -1.0110     2.2041     0.1526 H       
  32 H32           -1.1679    -0.2294     0.3640 H       
  33 H33            1.9591    -4.5285     1.9786 H       
  34 H34           -0.9877    -4.5025    -1.1215 H       
  35 H35           -0.7409    -2.0654    -1.3388 H       
  36 H36            6.8475     2.1937     0.0294 H       
  37 H37            4.7946     0.9318     1.1591 H       
  38 H38            4.0621     4.9723    -2.5886 H       
  39 H39            2.6198     5.7953    -4.4051 H       
  40 H40            0.9691     4.2947    -5.4446 H       
  41 H41            0.7547     1.9683    -4.6704 H       
  42 H42            2.1968     1.1340    -2.8589 H       
  43 H43            0.4977    -6.0662    -1.5485 H       
  44 H44            1.6935    -7.0819    -0.6887 H       
  45 H45           -1.2979    -6.5455     1.8403 H       
  46 H46           -1.7484    -5.6633     0.3504 H       
  47 H47           -2.0949    -8.4236     0.2042 H       
  48 H48           -0.1603    -8.7705    -1.4313 H       
@<TRIPOS>BOND
   1    1    9 1
   2    2    3 2
   3    2    7 1
   4    2   31 1
   5    3    4 1
   6    3   32 1
   7    4    5 1
   8    4    8 1
   9    5    6 2
  10    6    7 1
  11    6   14 1
  12    7   25 2
  13    8    9 ar
  14    8   13 ar
  15    9   10 ar
  16   10   11 ar
  17   10   33 1
  18   11   12 ar
  19   11   26 1
  20   12   13 ar
  21   12   34 1
  22   13   35 1
  23   14   15 1
  24   14   18 2
  25   15   16 1
  26   15   19 1
  27   16   17 2
  28   17   18 1
  29   17   36 1
  30   18   37 1
  31   19   20 ar
  32   19   24 ar
  33   20   21 ar
  34   20   38 1
  35   21   22 ar
  36   21   39 1
  37   22   23 ar
  38   22   40 1
  39   23   24 ar
  40   23   41 1
  41   24   42 1
  42   26   28 1
  43   26   27 1
  44   27   30 1
  45   27   43 1
  46   27   44 1
  47   28   29 1
  48   28   45 1
  49   28   46 1
  50   29   30 2
  51   29   47 1
  52   30   48 1

#	End of record

