#	Name: ASD03240462
#	Creating user name:	WinNT
#	Creation time:	15. 06. 2019 20:35

#	Modifying user name:	WinNT
#	Modification time:	15. 06. 2019 20:35

#	Program:	/corina/corina34_cracker 3.40 0067  02.08.2006

@<TRIPOS>MOLECULE
ASD03240462
  46   49    0    0    0
SMALL
NO_CHARGES


@<TRIPOS>ATOM
   1 C1             0.0757     1.5923     0.1535 C.ar    
   2 C2            -2.8216     1.5852     1.9596 C.ar    
   3 C3            -1.8840     2.4256     1.3870 C.ar    
   4 C4            -1.3319     2.1138     0.0199 C.3     
   5 C5            -3.3304     1.8661     3.2115 C.ar    
   6 C6            -2.8981     2.9982     3.8984 C.ar    
   7 C7            -1.9540     3.8415     3.3169 C.ar    
   8 C8            -1.4516     3.5513     2.0645 C.ar    
   9 C9            -3.4424     3.3056     5.2452 C.2     
  10 C10           -3.1090     4.3745     6.0248 C.2     
  11 N11           -3.8236     4.2867     7.1647 N.pl3   
  12 N12           -4.6203     3.1375     7.0942 N.2     
  13 C13           -4.4013     2.5501     5.9476 C.2     
  14 C14            0.3316     0.2437    -0.0100 C.ar    
  15 C15            1.1118     2.4634     0.4339 C.ar    
  16 C16            2.4038     1.9859     0.5508 C.ar    
  17 C17            2.6596     0.6372     0.3877 C.ar    
  18 C18            1.6236    -0.2338     0.1069 C.ar    
  19 N19           -1.3261     3.3353    -0.7961 N.3     
  20 C20           -2.6909     3.8433    -0.9935 C.3     
  21 C21           -2.6353     5.1559    -1.7786 C.3     
  22 N22           -1.9709     4.9243    -3.0688 N.3     
  23 C23           -0.6061     4.4163    -2.8714 C.3     
  24 C24           -0.6618     3.1037    -2.0863 C.3     
  25 H25           -3.1594     0.7102     1.4243 H       
  26 H26           -1.9549     1.3591    -0.4602 H       
  27 H27           -4.0628     1.2095     3.6576 H       
  28 H28           -1.6155     4.7205     3.8452 H       
  29 H29           -0.7193     4.2041     1.6129 H       
  30 H30           -2.4008     5.1505     5.7742 H       
  31 H31           -3.7912     4.9116     7.9058 H       
  32 H32           -4.8688     1.6400     5.6019 H       
  33 H33           -0.4779    -0.4369    -0.2288 H       
  34 H34            0.9119     3.5171     0.5614 H       
  35 H35            3.2134     2.6665     0.7692 H       
  36 H36            3.6691     0.2643     0.4783 H       
  37 H37            1.8234    -1.2875    -0.0202 H       
  38 H38           -3.2745     3.1106    -1.5509 H       
  39 H39           -3.1573     4.0188    -0.0241 H       
  40 H40           -3.6482     5.5196    -1.9512 H       
  41 H41           -2.0747     5.8970    -1.2087 H       
  42 H42           -2.5105     4.2965    -3.6457 H       
  43 H43           -0.1397     4.2408    -3.8408 H       
  44 H44           -0.0225     5.1490    -2.3140 H       
  45 H45            0.3512     2.7400    -1.9137 H       
  46 H46           -1.2224     2.3626    -2.6561 H       
@<TRIPOS>BOND
   1    1   14 ar
   2    1   15 ar
   3    1    4 1
   4    2    3 ar
   5    2    5 ar
   6    2   25 1
   7    3    4 1
   8    3    8 ar
   9    4   19 1
  10    4   26 1
  11    5    6 ar
  12    5   27 1
  13    6    7 ar
  14    6    9 1
  15    7    8 ar
  16    7   28 1
  17    8   29 1
  18    9   10 2
  19    9   13 1
  20   10   11 1
  21   10   30 1
  22   11   12 1
  23   11   31 1
  24   12   13 2
  25   13   32 1
  26   14   18 ar
  27   14   33 1
  28   15   16 ar
  29   15   34 1
  30   16   17 ar
  31   16   35 1
  32   17   18 ar
  33   17   36 1
  34   18   37 1
  35   19   20 1
  36   19   24 1
  37   20   21 1
  38   20   38 1
  39   20   39 1
  40   21   22 1
  41   21   40 1
  42   21   41 1
  43   22   23 1
  44   22   42 1
  45   23   24 1
  46   23   43 1
  47   23   44 1
  48   24   45 1
  49   24   46 1

#	End of record

