#	Name: ASD00960245
#	Creating user name:	WinNT
#	Creation time:	15. 06. 2019 18:53

#	Modifying user name:	WinNT
#	Modification time:	15. 06. 2019 18:53

#	Program:	/corina/corina34_cracker 3.40 0067  02.08.2006

@<TRIPOS>MOLECULE
ASD00960245
  39   41    0    0    0
SMALL
NO_CHARGES


@<TRIPOS>ATOM
   1 C1            -0.0168     1.3843     0.0097 C.2     
   2 C2             0.0021    -0.0041     0.0020 C.2     
   3 N3             1.2794     1.8115    -0.0004 N.pl3   
   4 C4             2.0956     0.7244     0.0005 C.2     
   5 C5             1.3449    -0.3941    -0.0054 C.2     
   6 N6             1.7941     3.1168     0.0019 N.2     
   7 C7             3.0735     3.2802    -0.2219 C.2     
   8 N8             3.8968     2.2138    -0.5212 N.pl3   
   9 C9             3.6003     0.8749     0.0192 C.3     
  10 N10            4.0998     0.7665     1.3964 N.3     
  11 N11            3.6117     4.5490    -0.1575 N.pl3   
  12 C12            2.7535     5.6935     0.1583 C.3     
  13 C13           -1.2077     2.2335     0.0202 C.2     
  14 O14           -2.3145     1.7289     0.0234 O.2     
  15 O15           -1.0786     3.5764     0.0263 O.3     
  16 C16           -2.2839     4.3440     0.0365 C.3     
  17 C17           -1.9443     5.8123     0.0422 C.ar    
  18 C18           -1.7948     6.4918    -1.1523 C.ar    
  19 C19           -1.4833     7.8385    -1.1471 C.ar    
  20 C20           -1.3218     8.5059     0.0527 C.ar    
  21 C21           -1.4721     7.8267     1.2472 C.ar    
  22 C22           -1.7879     6.4809     1.2420 C.ar    
  23 H23           -0.8572    -0.6584     0.0021 H       
  24 H24            1.7136    -1.4092    -0.0142 H       
  25 H25            4.6726     2.3459    -1.0884 H       
  26 H26            4.0595     0.1097    -0.6067 H       
  27 H27            5.0978     0.9105     1.4315 H       
  28 H28            3.6198     1.4107     2.0069 H       
  29 H29            4.5583     4.6832    -0.3214 H       
  30 H30            3.3511     6.6051     0.1641 H       
  31 H31            1.9691     5.7780    -0.5939 H       
  32 H32            2.3017     5.5490     1.1397 H       
  33 H33           -2.8710     4.1103    -0.8516 H       
  34 H34           -2.8617     4.1013     0.9283 H       
  35 H35           -1.9211     5.9703    -2.0896 H       
  36 H36           -1.3659     8.3692    -2.0803 H       
  37 H37           -1.0777     9.5580     0.0567 H       
  38 H38           -1.3456     8.3480     2.1845 H       
  39 H39           -1.9091     5.9510     2.1752 H       
@<TRIPOS>BOND
   1    1    2 2
   2    1    3 1
   3    1   13 1
   4    2    5 1
   5    2   23 1
   6    3    4 1
   7    3    6 1
   8    4    5 2
   9    4    9 1
  10    5   24 1
  11    6    7 2
  12    7    8 1
  13    7   11 1
  14    8    9 1
  15    8   25 1
  16    9   10 1
  17    9   26 1
  18   10   27 1
  19   10   28 1
  20   11   12 1
  21   11   29 1
  22   12   30 1
  23   12   31 1
  24   12   32 1
  25   13   14 2
  26   13   15 1
  27   15   16 1
  28   16   17 1
  29   16   33 1
  30   16   34 1
  31   17   18 ar
  32   17   22 ar
  33   18   19 ar
  34   18   35 1
  35   19   20 ar
  36   19   36 1
  37   20   21 ar
  38   20   37 1
  39   21   22 ar
  40   21   38 1
  41   22   39 1

#	End of record

