#	Name: ASD01000140
#	Creating user name:	WinNT
#	Creation time:	15. 06. 2019 18:54

#	Modifying user name:	WinNT
#	Modification time:	15. 06. 2019 18:54

#	Program:	/corina/corina34_cracker 3.40 0067  02.08.2006

@<TRIPOS>MOLECULE
ASD01000140
  51   53    0    0    0
SMALL
NO_CHARGES


@<TRIPOS>ATOM
   1 C1             0.8887     1.3240    -0.1509 C.3     
   2 C2             1.8007    -3.4336    -8.2025 C.ar    
   3 C3            -3.4961    -3.7848    -3.6722 C.ar    
   4 C4             1.8084    -4.0102    -6.9410 C.ar    
   5 C5             1.1650    -2.2235    -8.4038 C.ar    
   6 C6            -3.6520    -2.8257    -4.6554 C.ar    
   7 C7            -2.2554    -3.9916    -3.0989 C.ar    
   8 C8             3.0467    -1.4881    -2.9229 C.ar    
   9 C9             2.6015    -1.0252    -1.6990 C.ar    
  10 C10            1.1773    -3.3699    -5.8842 C.ar    
  11 C11            0.5365    -1.5877    -7.3494 C.ar    
  12 C12           -2.5668    -2.0746    -5.0666 C.ar    
  13 C13           -1.1700    -3.2408    -3.5104 C.ar    
  14 C14            2.1587    -1.6296    -3.9731 C.ar    
  15 C15            0.3798    -0.8483    -2.5739 C.ar    
  16 C16            0.5319     2.4649    -6.3124 C.3     
  17 C17            0.8430     1.0522    -5.8139 C.3     
  18 C18            0.7821    -0.2018    -0.1897 C.3     
  19 C19            1.2678    -0.7055    -1.5244 C.ar    
  20 C20            0.5432    -2.1603    -6.0906 C.ar    
  21 C21           -1.3258    -2.2823    -4.4943 C.ar    
  22 C22            0.8253    -1.3104    -3.7984 C.ar    
  23 C23           -0.1425    -1.4642    -4.9433 C.3     
  24 N24            1.7883     3.1767    -6.5822 N.3     
  25 O25            2.4326    -5.2006    -6.7405 O.3     
  26 S26           -0.7085     0.1733    -5.4807 S.3     
  27 H27            1.9280     1.6194    -0.2945 H       
  28 H28            0.2765     1.7512    -0.9452 H       
  29 H29            0.5374     1.6883     0.8144 H       
  30 H30            2.2951    -3.9279    -9.0257 H       
  31 H31           -4.3449    -4.3685    -3.3477 H       
  32 H32            1.1587    -1.7741    -9.3859 H       
  33 H33           -4.6213    -2.6644    -5.1035 H       
  34 H34           -2.1336    -4.7407    -2.3305 H       
  35 H35            4.0894    -1.7336    -3.0605 H       
  36 H36            3.2954    -0.9137    -0.8789 H       
  37 H37            1.1816    -3.8170    -4.9011 H       
  38 H38            0.0398    -0.6420    -7.5088 H       
  39 H39           -2.6885    -1.3258    -5.8352 H       
  40 H40           -0.2005    -3.4029    -3.0630 H       
  41 H41            2.5067    -1.9910    -4.9295 H       
  42 H42           -0.6622    -0.5992    -2.4373 H       
  43 H43           -0.0560     2.4057    -7.2283 H       
  44 H44           -0.0340     3.0023    -5.5515 H       
  45 H45            1.4089     0.5148    -6.5748 H       
  46 H46            1.4309     1.1114    -4.8979 H       
  47 H47            1.3943    -0.6290     0.6045 H       
  48 H48           -0.2572    -0.4972    -0.0461 H       
  49 H49            2.3604     2.6649    -7.2370 H       
  50 H50            1.6096     4.1130    -6.9130 H       
  51 H51            3.3638    -5.1196    -6.4926 H       
@<TRIPOS>BOND
   1    1   18 1
   2    1   27 1
   3    1   28 1
   4    1   29 1
   5    2    4 ar
   6    2    5 ar
   7    2   30 1
   8    3    6 ar
   9    3    7 ar
  10    3   31 1
  11    4   10 ar
  12    4   25 1
  13    5   11 ar
  14    5   32 1
  15    6   12 ar
  16    6   33 1
  17    7   13 ar
  18    7   34 1
  19    8    9 ar
  20    8   14 ar
  21    8   35 1
  22    9   19 ar
  23    9   36 1
  24   10   20 ar
  25   10   37 1
  26   11   20 ar
  27   11   38 1
  28   12   21 ar
  29   12   39 1
  30   13   21 ar
  31   13   40 1
  32   14   22 ar
  33   14   41 1
  34   15   19 ar
  35   15   22 ar
  36   15   42 1
  37   16   17 1
  38   16   24 1
  39   16   43 1
  40   16   44 1
  41   17   26 1
  42   17   45 1
  43   17   46 1
  44   18   19 1
  45   18   47 1
  46   18   48 1
  47   20   23 1
  48   21   23 1
  49   22   23 1
  50   23   26 1
  51   24   49 1
  52   24   50 1
  53   25   51 1

#	End of record

