#	Name: ASD01885321
#	Creating user name:	WinNT
#	Creation time:	15. 06. 2019 19:49

#	Modifying user name:	WinNT
#	Modification time:	15. 06. 2019 19:49

#	Program:	/corina/corina34_cracker 3.40 0067  02.08.2006

@<TRIPOS>MOLECULE
ASD01885321
  50   53    0    0    0
SMALL
NO_CHARGES


@<TRIPOS>ATOM
   1 C1            -0.0164     1.3571     0.0095 C.ar    
   2 C2             0.0021    -0.0041     0.0020 C.ar    
   3 C3             1.2043    -0.7068    -0.0132 C.ar    
   4 C4             2.3988    -0.0481    -0.0206 C.ar    
   5 C5             2.4167     1.3498    -0.0133 C.ar    
   6 C6             1.1961     2.0711     0.0018 C.ar    
   7 C7             3.6741     2.0999    -0.0213 C.ar    
   8 C8             3.5876     3.4919    -0.0135 C.ar    
   9 C9             2.3310     4.1001     0.0013 C.ar    
  10 N10            1.2098     3.4046     0.0083 N.ar    
  11 C11            4.9758     1.4131    -0.0364 C.2     
  12 C12            2.2537     5.5808     0.0095 C.2     
  13 O13            3.2727     6.2424     0.0033 O.2     
  14 N14            1.0530     6.1928     0.0238 N.am    
  15 C15           -1.2999    -0.7629     0.0109 C.3     
  16 N16           -1.7367    -1.0021    -1.3712 N.3     
  17 C17           -2.8698    -1.9379    -1.4111 C.3     
  18 C18           -3.3301    -2.1119    -2.8608 C.3     
  19 O19           -2.2286    -2.5612    -3.6548 O.3     
  20 C20           -1.1076    -1.6732    -3.6392 C.3     
  21 C21           -0.6249    -1.4947    -2.1973 C.3     
  22 C22           -4.4566    -3.1456    -2.9186 C.3     
  23 F23           -5.5317    -2.7077    -2.1378 F       
  24 F24           -4.8767    -3.3040    -4.2436 F       
  25 F25           -3.9916    -4.3701    -2.4272 F       
  26 C26            6.0005     1.6673    -0.8824 C.2     
  27 N27            7.0591     0.9137    -0.6893 N.2     
  28 C28            6.9962     0.0375     0.2664 C.2     
  29 S29            5.4786     0.1196     1.0490 S.3     
  30 O30            7.9927    -0.8166     0.5993 O.3     
  31 C31            9.1974    -0.7374    -0.1652 C.3     
  32 H32           -0.9576     1.8867     0.0168 H       
  33 H33            1.1907    -1.7867    -0.0189 H       
  34 H34            3.3252    -0.6032    -0.0317 H       
  35 H35            4.4844     4.0937    -0.0185 H       
  36 H36            0.2394     5.6646     0.0288 H       
  37 H37            1.0024     7.1615     0.0291 H       
  38 H38           -1.1606    -1.7176     0.5182 H       
  39 H39           -2.0568    -0.1798     0.5354 H       
  40 H40           -2.5595    -2.9025    -1.0094 H       
  41 H41           -3.6907    -1.5412    -0.8137 H       
  42 H42           -3.6906    -1.1578    -3.2453 H       
  43 H43           -0.3029    -2.0923    -4.2432 H       
  44 H44           -1.4036    -0.7063    -4.0462 H       
  45 H45            0.1930    -0.7745    -2.1738 H       
  46 H46           -0.2787    -2.4522    -1.8082 H       
  47 H47            5.9522     2.4245    -1.6510 H       
  48 H48            8.9766    -0.9392    -1.2133 H       
  49 H49            9.6235     0.2613    -0.0694 H       
  50 H50            9.9111    -1.4739     0.2041 H       
@<TRIPOS>BOND
   1    1    2 ar
   2    1    6 ar
   3    1   32 1
   4    2    3 ar
   5    2   15 1
   6    3    4 ar
   7    3   33 1
   8    4    5 ar
   9    4   34 1
  10    5    7 ar
  11    5    6 ar
  12    6   10 ar
  13    7    8 ar
  14    7   11 1
  15    8    9 ar
  16    8   35 1
  17    9   10 ar
  18    9   12 1
  19   11   26 2
  20   11   29 1
  21   12   13 2
  22   12   14 am
  23   14   36 1
  24   14   37 1
  25   15   16 1
  26   15   38 1
  27   15   39 1
  28   16   17 1
  29   16   21 1
  30   17   18 1
  31   17   40 1
  32   17   41 1
  33   18   19 1
  34   18   22 1
  35   18   42 1
  36   19   20 1
  37   20   21 1
  38   20   43 1
  39   20   44 1
  40   21   45 1
  41   21   46 1
  42   22   23 1
  43   22   24 1
  44   22   25 1
  45   26   27 1
  46   26   47 1
  47   27   28 2
  48   28   29 1
  49   28   30 1
  50   30   31 1
  51   31   48 1
  52   31   49 1
  53   31   50 1

#	End of record

