#	Name: ASD01870441
#	Creating user name:	WinNT
#	Creation time:	15. 06. 2019 19:39

#	Modifying user name:	WinNT
#	Modification time:	15. 06. 2019 19:39

#	Program:	/corina/corina34_cracker 3.40 0067  02.08.2006

@<TRIPOS>MOLECULE
ASD01870441
  54   59    0    0    0
SMALL
NO_CHARGES


@<TRIPOS>ATOM
   1 N1            -0.6067     1.2333     0.3954 N.am    
   2 C2            -0.7713    -0.0969     0.5370 C.2     
   3 C3            -2.1527    -0.6694     0.7246 C.3     
   4 O4             0.1922    -0.8330     0.5134 O.2     
   5 C5            -2.1738    -2.2017     0.8714 C.3     
   6 N6            -3.1662    -1.9851     1.9419 N.am    
   7 C7            -2.6503    -0.6231     2.1806 C.3     
   8 S8            -4.3738    -2.9019     2.6079 S.o2    
   9 C9            -3.6672    -3.8006     3.9487 C.ar    
  10 C10           -4.0762    -3.5667     5.2202 C.ar    
  11 O11           -5.3008    -1.9898     3.1805 O.2     
  12 O12           -4.7351    -3.8638     1.6263 O.2     
  13 C13           -2.6767    -4.7727     3.7091 C.ar    
  14 C14           -2.1067    -5.5086     4.8653 C.ar    
  15 C15           -2.5787    -5.2067     6.1574 C.ar    
  16 C16           -3.5385    -4.2612     6.3112 C.ar    
  17 C17            0.6769     1.9203     0.2064 C.3     
  18 C18            0.4007     3.4338     0.1609 C.3     
  19 C19           -1.0121     3.5636     0.8156 C.3     
  20 C20           -1.6850     2.2352     0.3984 C.3     
  21 C21            1.3242     4.1437     1.1677 C.3     
  22 N22            0.6215     4.1971     2.4609 N.3     
  23 C23           -0.6760     3.5061     2.3220 C.3     
  24 C24            1.3881     3.6207     3.4693 C.ar    
  25 C25            2.7759     3.7594     3.4810 C.ar    
  26 C26            3.4992     3.1728     4.4980 C.ar    
  27 N27            2.8945     2.4880     5.4507 N.ar    
  28 C28            1.5838     2.3341     5.4748 C.ar    
  29 C29            0.7881     2.8942     4.4976 C.ar    
  30 N30           -2.0316    -5.2876     2.6916 N.2     
  31 O31           -1.2560    -6.1295     3.0979 O.3     
  32 N32           -1.2392    -6.3107     4.2989 N.2     
  33 H33           -2.8727    -0.2880     0.0006 H       
  34 H34           -2.5734    -2.7211     0.0004 H       
  35 H35           -1.2320    -2.6223     1.2239 H       
  36 H36           -1.8485    -0.5800     2.9178 H       
  37 H37           -3.4304     0.1179     2.3549 H       
  38 H38           -4.8388    -2.8226     5.3969 H       
  39 H39           -2.1824    -5.7259     7.0175 H       
  40 H40           -3.8959    -4.0341     7.3047 H       
  41 H41            1.3435     1.6917     1.0379 H       
  42 H42            1.1322     1.6000    -0.7307 H       
  43 H43            0.4497     3.8474    -0.8463 H       
  44 H44           -1.5661     4.4506     0.5084 H       
  45 H45           -2.1224     2.3302    -0.5954 H       
  46 H46           -2.4505     1.9568     1.1228 H       
  47 H47            2.2533     3.5838     1.2751 H       
  48 H48            1.5393     5.1548     0.8222 H       
  49 H49           -1.4425     4.0226     2.8997 H       
  50 H50           -0.5891     2.4703     2.6500 H       
  51 H51            3.2770     4.3180     2.7043 H       
  52 H52            4.5743     3.2746     4.5149 H       
  53 H53            1.1283     1.7658     6.2723 H       
  54 H54           -0.2838     2.7647     4.5234 H       
@<TRIPOS>BOND
   1    1    2 am
   2    1   17 1
   3    1   20 1
   4    2    3 1
   5    2    4 2
   6    3    5 1
   7    3    7 1
   8    3   33 1
   9    5    6 1
  10    5   34 1
  11    5   35 1
  12    6    7 1
  13    6    8 am
  14    7   36 1
  15    7   37 1
  16    8    9 1
  17    8   11 2
  18    8   12 2
  19    9   13 ar
  20    9   10 ar
  21   10   16 ar
  22   10   38 1
  23   13   14 ar
  24   13   30 2
  25   14   15 ar
  26   14   32 2
  27   15   16 ar
  28   15   39 1
  29   16   40 1
  30   17   18 1
  31   17   41 1
  32   17   42 1
  33   18   19 1
  34   18   21 1
  35   18   43 1
  36   19   20 1
  37   19   23 1
  38   19   44 1
  39   20   45 1
  40   20   46 1
  41   21   22 1
  42   21   47 1
  43   21   48 1
  44   22   23 1
  45   22   24 1
  46   23   49 1
  47   23   50 1
  48   24   25 ar
  49   24   29 ar
  50   25   26 ar
  51   25   51 1
  52   26   27 ar
  53   26   52 1
  54   27   28 ar
  55   28   29 ar
  56   28   53 1
  57   29   54 1
  58   30   31 1
  59   31   32 1

#	End of record

