#	Name: ASD01811129
#	Creating user name:	WinNT
#	Creation time:	15. 06. 2019 19:26

#	Modifying user name:	WinNT
#	Modification time:	15. 06. 2019 19:26

#	Program:	/corina/corina34_cracker 3.40 0067  02.08.2006

@<TRIPOS>MOLECULE
ASD01811129
  53   57    0    0    0
SMALL
NO_CHARGES


@<TRIPOS>ATOM
   1 C1             8.0722    -0.4336     1.8193 C.2     
   2 C2             7.0685     0.1423     1.0288 C.2     
   3 C3             5.9702    -0.5952     0.6957 C.2     
   4 C4             5.8639    -1.9199     1.1510 C.2     
   5 N5             6.8589    -2.4569     1.9219 N.am    
   6 C6             7.9522    -1.7104     2.2482 C.2     
   7 C7             4.7361    -2.6799     0.8102 C.2     
   8 C8             4.6228    -3.9676     1.2476 C.2     
   9 C9             5.6482    -4.5166     2.0398 C.2     
  10 C10            6.7696    -3.7268     2.3659 C.2     
  11 O11            7.6630    -4.1946     3.0515 O.2     
  12 C12            5.5506    -5.8959     2.5223 C.2     
  13 O13            6.5369    -6.4164     3.2813 O.3     
  14 O14            4.5801    -6.5723     2.2387 O.2     
  15 C15            3.6484    -2.0744    -0.0391 C.3     
  16 N16            3.8452    -2.4680    -1.4407 N.3     
  17 C17            5.0835    -1.8863    -1.9829 C.3     
  18 C18            5.4276    -2.6068    -3.2868 C.3     
  19 C19            4.2221    -2.6385    -4.1908 C.ar    
  20 C20            2.9527    -2.3940    -3.7128 C.ar    
  21 C21            2.6970    -2.0742    -2.2633 C.3     
  22 C22            4.4105    -2.9233    -5.5349 C.ar    
  23 C23            3.3331    -2.9647    -6.3968 C.ar    
  24 C24            2.0592    -2.7217    -5.9174 C.ar    
  25 C25            1.8706    -2.4382    -4.5800 C.ar    
  26 C26            1.4721    -2.8183    -1.7975 C.ar    
  27 C27            0.2832    -2.1400    -1.6043 C.ar    
  28 C28           -0.8404    -2.8226    -1.1770 C.ar    
  29 C29           -0.7751    -4.1835    -0.9434 C.ar    
  30 C30            0.4135    -4.8619    -1.1375 C.ar    
  31 C31            1.5360    -4.1801    -1.5690 C.ar    
  32 H32            8.9465     0.1428     2.0832 H       
  33 H33            7.1636     1.1621     0.6862 H       
  34 H34            5.1888    -0.1641     0.0874 H       
  35 H35            8.7316    -2.1439     2.8572 H       
  36 H36            3.7563    -4.5582     0.9892 H       
  37 H37            6.4279    -7.3308     3.5762 H       
  38 H38            2.6776    -2.4307     0.3054 H       
  39 H39            3.6864    -0.9881     0.0420 H       
  40 H40            4.9338    -0.8247    -2.1796 H       
  41 H41            5.8944    -2.0182    -1.2666 H       
  42 H42            6.2412    -2.0812    -3.7868 H       
  43 H43            5.7404    -3.6271    -3.0648 H       
  44 H44            2.5268    -1.0030    -2.1553 H       
  45 H45            5.4055    -3.1135    -5.9094 H       
  46 H46            3.4849    -3.1859    -7.4429 H       
  47 H47            1.2134    -2.7538    -6.5882 H       
  48 H48            0.8751    -2.2487    -4.2065 H       
  49 H49            0.2322    -1.0768    -1.7868 H       
  50 H50           -1.7691    -2.2926    -1.0253 H       
  51 H51           -1.6528    -4.7167    -0.6089 H       
  52 H52            0.4646    -5.9251    -0.9547 H       
  53 H53            2.4647    -4.7102    -1.7206 H       
@<TRIPOS>BOND
   1    1    2 1
   2    1    6 2
   3    1   32 1
   4    2    3 2
   5    2   33 1
   6    3    4 1
   7    3   34 1
   8    4    5 1
   9    4    7 2
  10    5    6 1
  11    5   10 am
  12    6   35 1
  13    7    8 1
  14    7   15 1
  15    8    9 2
  16    8   36 1
  17    9   10 1
  18    9   12 1
  19   10   11 2
  20   12   13 1
  21   12   14 2
  22   13   37 1
  23   15   16 1
  24   15   38 1
  25   15   39 1
  26   16   17 1
  27   16   21 1
  28   17   18 1
  29   17   40 1
  30   17   41 1
  31   18   19 1
  32   18   42 1
  33   18   43 1
  34   19   20 ar
  35   19   22 ar
  36   20   21 1
  37   20   25 ar
  38   21   26 1
  39   21   44 1
  40   22   23 ar
  41   22   45 1
  42   23   24 ar
  43   23   46 1
  44   24   25 ar
  45   24   47 1
  46   25   48 1
  47   26   27 ar
  48   26   31 ar
  49   27   28 ar
  50   27   49 1
  51   28   29 ar
  52   28   50 1
  53   29   30 ar
  54   29   51 1
  55   30   31 ar
  56   30   52 1
  57   31   53 1

#	End of record

