#	Name: ASD01810542
#	Creating user name:	WinNT
#	Creation time:	15. 06. 2019 19:24

#	Modifying user name:	WinNT
#	Modification time:	15. 06. 2019 19:24

#	Program:	/corina/corina34_cracker 3.40 0067  02.08.2006

@<TRIPOS>MOLECULE
ASD01810542
  54   58    0    0    0
SMALL
NO_CHARGES


@<TRIPOS>ATOM
   1 C1            -0.0167     1.3806     0.0096 C.ar    
   2 C2             0.0021    -0.0041     0.0020 C.ar    
   3 C3             1.1998    -0.6911    -0.0131 C.ar    
   4 C4             2.4004     0.0077    -0.0208 C.ar    
   5 C5             2.3781     1.4099    -0.0130 C.ar    
   6 C6             1.1674     2.0918     0.0021 C.ar    
   7 N7             3.6109    -0.6699    -0.0355 N.pl3   
   8 C8             4.8188    -0.0117    -0.0425 C.2     
   9 C9             4.8995     1.3161    -0.0357 C.2     
  10 C10            3.6707     2.1349    -0.0215 C.2     
  11 C11            3.6025    -2.1349    -0.0432 C.3     
  12 C12            3.5866    -2.6296    -1.4666 C.ar    
  13 C13            4.7764    -2.8633    -2.1304 C.ar    
  14 C14            4.7619    -3.3170    -3.4361 C.ar    
  15 C15            3.5575    -3.5375    -4.0778 C.ar    
  16 C16            2.3677    -3.3047    -3.4137 C.ar    
  17 C17            2.3823    -2.8551    -2.1066 C.ar    
  18 C18            6.0375     2.3087    -0.0394 C.3     
  19 N19            5.3634     3.6181    -0.0260 N.pl3   
  20 N20            3.9848     3.3965    -0.0165 N.2     
  21 C21            6.0243     4.9255    -0.0230 C.3     
  22 C22            6.2398     5.3827    -1.4428 C.ar    
  23 C23            5.1974     5.9498    -2.1522 C.ar    
  24 C24            7.4811     5.2402    -2.0338 C.ar    
  25 C25            7.6788     5.6596    -3.3363 C.ar    
  26 C26            6.6351     6.2209    -4.0475 C.ar    
  27 C27            5.3949     6.3686    -3.4544 C.ar    
  28 C28            3.8457     6.1108    -1.5057 C.3     
  29 C29            9.0325     5.5052    -3.9803 C.3     
  30 H30           -0.9602     1.9061     0.0169 H       
  31 H31           -0.9287    -0.5517     0.0083 H       
  32 H32            1.2031    -1.7711    -0.0186 H       
  33 H33            1.1523     3.1717     0.0077 H       
  34 H34            5.7302    -0.5911    -0.0536 H       
  35 H35            4.4951    -2.5060     0.4605 H       
  36 H36            2.7152    -2.4959     0.4768 H       
  37 H37            5.7174    -2.6910    -1.6291 H       
  38 H38            5.6914    -3.4989    -3.9550 H       
  39 H39            3.5461    -3.8913    -5.0982 H       
  40 H40            1.4268    -3.4766    -3.9152 H       
  41 H41            1.4527    -2.6732    -1.5877 H       
  42 H42            6.6544     2.1868     0.8509 H       
  43 H43            6.6393     2.1974    -0.9413 H       
  44 H44            5.3980     5.6481     0.5002 H       
  45 H45            6.9865     4.8451     0.4828 H       
  46 H46            8.2967     4.8016    -1.4780 H       
  47 H47            6.7896     6.5489    -5.0648 H       
  48 H48            4.5794     6.8072    -4.0102 H       
  49 H49            3.7937     7.0796    -1.0088 H       
  50 H50            3.0689     6.0512    -2.2680 H       
  51 H51            3.6968     5.3180    -0.7726 H       
  52 H52            9.0904     4.5363    -4.4763 H       
  53 H53            9.1784     6.2981    -4.7138 H       
  54 H54            9.8076     5.5693    -3.2167 H       
@<TRIPOS>BOND
   1    1    2 ar
   2    1    6 ar
   3    1   30 1
   4    2    3 ar
   5    2   31 1
   6    3    4 ar
   7    3   32 1
   8    4    5 ar
   9    4    7 1
  10    5    6 ar
  11    5   10 1
  12    6   33 1
  13    7    8 1
  14    7   11 1
  15    8    9 2
  16    8   34 1
  17    9   10 1
  18    9   18 1
  19   10   20 2
  20   11   12 1
  21   11   35 1
  22   11   36 1
  23   12   13 ar
  24   12   17 ar
  25   13   14 ar
  26   13   37 1
  27   14   15 ar
  28   14   38 1
  29   15   16 ar
  30   15   39 1
  31   16   17 ar
  32   16   40 1
  33   17   41 1
  34   18   19 1
  35   18   42 1
  36   18   43 1
  37   19   20 1
  38   19   21 1
  39   21   22 1
  40   21   44 1
  41   21   45 1
  42   22   23 ar
  43   22   24 ar
  44   23   28 1
  45   23   27 ar
  46   24   25 ar
  47   24   46 1
  48   25   26 ar
  49   25   29 1
  50   26   27 ar
  51   26   47 1
  52   27   48 1
  53   28   49 1
  54   28   50 1
  55   28   51 1
  56   29   52 1
  57   29   53 1
  58   29   54 1

#	End of record

