#	Name: ASD07930226
#	Creating user name:	WinNT
#	Creation time:	15. 06. 2019 21:11

#	Modifying user name:	WinNT
#	Modification time:	15. 06. 2019 21:11

#	Program:	/corina/corina34_cracker 3.40 0067  02.08.2006

@<TRIPOS>MOLECULE
ASD07930226
  56   60    0    0    0
SMALL
NO_CHARGES


@<TRIPOS>ATOM
   1 C1            -0.0165     1.3638     0.0095 C.2     
   2 C2             0.0021    -0.0041     0.0020 C.2     
   3 C3             1.2948    -0.6930    -0.0137 C.2     
   4 N4             2.4269     0.0320    -0.0184 N.am    
   5 C5             2.3819     1.4078    -0.0126 C.2     
   6 C6             1.1929     2.0698     0.0018 C.2     
   7 C7             3.7400    -0.6270    -0.0278 C.3     
   8 C8             4.6599     0.1585    -0.9744 C.3     
   9 N9             4.7714     1.5377    -0.4785 N.am    
  10 C10            3.6569     2.1587    -0.0238 C.2     
  11 C11            6.0638     2.2277    -0.4763 C.3     
  12 O12            3.7031     3.3090     0.3671 O.2     
  13 O13            1.3435    -1.9113    -0.0219 O.2     
  14 N14           -1.1914    -0.7315     0.0096 N.pl3   
  15 C15           -1.6504    -1.5415    -0.9805 C.2     
  16 N16           -2.7956    -2.0446    -0.6082 N.2     
  17 C17           -3.1078    -1.5843     0.6125 C.2     
  18 C18           -2.1178    -0.7676     1.0201 C.2     
  19 C19           -4.3493    -1.9268     1.3951 C.3     
  20 C20            6.2498     2.9665    -1.8031 C.3     
  21 O21            5.2694     4.0003    -1.9141 O.3     
  22 C22            5.2960     4.7568    -3.0421 C.ar    
  23 C23            4.3653     5.7878    -3.2189 C.ar    
  24 C24            6.2474     4.5150    -4.0190 C.ar    
  25 C25            6.2739     5.2858    -5.1664 C.ar    
  26 C26            5.3528     6.3024    -5.3469 C.ar    
  27 C27            4.4017     6.5587    -4.3802 C.ar    
  28 C28            3.3487     6.0574    -2.1795 C.2     
  29 C29            3.0315     7.2674    -1.6030 C.2     
  30 C30            2.0356     7.2008    -0.6596 C.2     
  31 N31            1.5005     6.0438    -0.4041 N.2     
  32 S32            2.2581     4.8977    -1.4002 S.3     
  33 C33            1.5741     8.4401     0.0630 C.3     
  34 H34           -0.9567     1.8952     0.0169 H       
  35 H35            1.1819     3.1497     0.0071 H       
  36 H36            4.1596    -0.6262     0.9782 H       
  37 H37            3.6350    -1.6521    -0.3830 H       
  38 H38            5.6465    -0.3045    -0.9940 H       
  39 H39            4.2345     0.1634    -1.9779 H       
  40 H40            6.0920     2.9435     0.3453 H       
  41 H41            6.8645     1.4989    -0.3509 H       
  42 H42           -1.1514    -1.7356    -1.9184 H       
  43 H43           -2.0667    -0.2372     1.9595 H       
  44 H44           -4.1600    -2.8068     2.0099 H       
  45 H45           -4.6181    -1.0869     2.0358 H       
  46 H46           -5.1676    -2.1343     0.7057 H       
  47 H47            7.2467     3.4059    -1.8376 H       
  48 H48            6.1331     2.2650    -2.6291 H       
  49 H49            6.9698     3.7235    -3.8842 H       
  50 H50            7.0176     5.0937    -5.9256 H       
  51 H51            5.3806     6.9002    -6.2459 H       
  52 H52            3.6843     7.3530    -4.5246 H       
  53 H53            3.5243     8.1905    -1.8702 H       
  54 H54            0.7595     8.9031    -0.4937 H       
  55 H55            1.2258     8.1707     1.0601 H       
  56 H56            2.4034     9.1427     0.1453 H       
@<TRIPOS>BOND
   1    1    2 2
   2    1    6 1
   3    1   34 1
   4    2    3 1
   5    2   14 1
   6    3    4 am
   7    3   13 2
   8    4    5 1
   9    4    7 1
  10    5    6 2
  11    5   10 1
  12    6   35 1
  13    7    8 1
  14    7   36 1
  15    7   37 1
  16    8    9 1
  17    8   38 1
  18    8   39 1
  19    9   10 am
  20    9   11 1
  21   10   12 2
  22   11   20 1
  23   11   40 1
  24   11   41 1
  25   14   15 1
  26   14   18 1
  27   15   16 2
  28   15   42 1
  29   16   17 1
  30   17   18 2
  31   17   19 1
  32   18   43 1
  33   19   44 1
  34   19   45 1
  35   19   46 1
  36   20   21 1
  37   20   47 1
  38   20   48 1
  39   21   22 1
  40   22   23 ar
  41   22   24 ar
  42   23   28 1
  43   23   27 ar
  44   24   25 ar
  45   24   49 1
  46   25   26 ar
  47   25   50 1
  48   26   27 ar
  49   26   51 1
  50   27   52 1
  51   28   29 2
  52   28   32 1
  53   29   30 1
  54   29   53 1
  55   30   31 2
  56   30   33 1
  57   31   32 1
  58   33   54 1
  59   33   55 1
  60   33   56 1

#	End of record

