#	Name: ASD07301095
#	Creating user name:	WinNT
#	Creation time:	15. 06. 2019 21:10

#	Modifying user name:	WinNT
#	Modification time:	15. 06. 2019 21:10

#	Program:	/corina/corina34_cracker 3.40 0067  02.08.2006

@<TRIPOS>MOLECULE
ASD07301095
  32   32    0    0    0
SMALL
NO_CHARGES


@<TRIPOS>ATOM
   1 C1            -0.0342     1.4629    -0.1359 C.2     
   2 C2            -0.0011    -0.0025    -0.0193 C.2     
   3 C3             1.2784    -0.7091    -0.0452 C.2     
   4 C4             1.3123    -2.2109     0.0744 C.3     
   5 O5             1.0027     2.0972    -0.1229 O.2     
   6 O6            -1.2141     2.1025    -0.2628 O.3     
   7 O7             2.3134    -0.0861    -0.1629 O.2     
   8 O8             2.6671    -2.6624     0.0229 O.3     
   9 C9             2.8118    -4.0801     0.1284 C.3     
  10 N10           -1.1281    -0.6809     0.1089 N.2     
  11 N11           -2.2371    -0.0557     0.3171 N.pl3   
  12 C12           -3.4430    -0.7580     0.3260 C.ar    
  13 C13           -4.6409    -0.0847     0.5505 C.ar    
  14 C14           -5.8338    -0.7834     0.5588 C.ar    
  15 C15           -5.8381    -2.1504     0.3443 C.ar    
  16 C16           -4.6476    -2.8236     0.1210 C.ar    
  17 C17           -3.4514    -2.1296     0.1053 C.ar    
  18 F18           -4.6561    -4.1584    -0.0876 F       
  19 F19           -4.6374     1.2498     0.7605 F       
  20 Br20          -7.4722    -3.1021     0.3565 Br      
  21 C21           -1.1709     3.5496    -0.3731 C.3     
  22 H22            0.8654    -2.5102     1.0224 H       
  23 H23            0.7503    -2.6537    -0.7480 H       
  24 H24            2.2809    -4.5616    -0.6928 H       
  25 H25            3.8688    -4.3420     0.0810 H       
  26 H26            2.3960    -4.4181     1.0776 H       
  27 H27           -2.2329     0.9025     0.4674 H       
  28 H28           -6.7632    -0.2618     0.7332 H       
  29 H29           -2.5244    -2.6540    -0.0735 H       
  30 H30           -2.1852     3.9371    -0.4695 H       
  31 H31           -0.7054     3.9683     0.5192 H       
  32 H32           -0.5899     3.8299    -1.2516 H       
@<TRIPOS>BOND
   1    1    2 1
   2    1    5 2
   3    1    6 1
   4    2    3 1
   5    2   10 2
   6    3    4 1
   7    3    7 2
   8    4    8 1
   9    4   22 1
  10    4   23 1
  11    6   21 1
  12    8    9 1
  13    9   24 1
  14    9   25 1
  15    9   26 1
  16   10   11 1
  17   11   12 1
  18   11   27 1
  19   12   13 ar
  20   12   17 ar
  21   13   14 ar
  22   13   19 1
  23   14   15 ar
  24   14   28 1
  25   15   16 ar
  26   15   20 1
  27   16   17 ar
  28   16   18 1
  29   17   29 1
  30   21   30 1
  31   21   31 1
  32   21   32 1

#	End of record

