#	Name: ASD01230779
#	Creating user name:	WinNT
#	Creation time:	15. 06. 2019 19:15

#	Modifying user name:	WinNT
#	Modification time:	15. 06. 2019 19:15

#	Program:	/corina/corina34_cracker 3.40 0067  02.08.2006

@<TRIPOS>MOLECULE
ASD01230779
  44   47    0    0    0
SMALL
NO_CHARGES


@<TRIPOS>ATOM
   1 C1            -0.0166     1.3737     0.0096 C.2     
   2 C2             0.0021    -0.0041     0.0020 C.2     
   3 C3            -1.2146    -0.7002     0.0078 C.2     
   4 C4            -2.3849    -0.0393     0.0099 C.2     
   5 N5            -2.4623     1.3312     0.0007 N.pl3   
   6 C6            -1.3175     2.0758     0.0320 C.2     
   7 C7            -3.8098     1.9045    -0.0495 C.3     
   8 C8            -3.8782     3.1900     0.7801 C.3     
   9 S9            -2.6220     4.3262     0.1123 S.o2    
  10 N10           -1.2620     3.3847     0.0819 N.am    
  11 C11            1.2497     2.1409     0.0016 C.ar    
  12 O12           -2.8868     4.6257    -1.2513 O.2     
  13 O13           -2.3213     5.3520     1.0486 O.2     
  14 C14            2.1016     2.0727    -1.1012 C.ar    
  15 C15            3.2812     2.7891    -1.1054 C.ar    
  16 C16            3.6208     3.5770    -0.0131 C.ar    
  17 C17            2.7753     3.6468     1.0866 C.ar    
  18 C18            1.5910     2.9383     1.0945 C.ar    
  19 O19            4.7838     4.2811    -0.0202 O.3     
  20 C20            4.7360     5.6072    -0.5504 C.3     
  21 C21            6.1075     6.2275    -0.4765 C.ar    
  22 Cl22           3.2051     4.6322     2.4497 Cl      
  23 Cl23           4.3419     2.7049    -2.4770 Cl      
  24 C24            6.9882     6.0852    -1.5325 C.ar    
  25 C25            8.2462     6.6541    -1.4647 C.ar    
  26 C26            8.6234     7.3656    -0.3411 C.ar    
  27 C27            7.7424     7.5086     0.7145 C.ar    
  28 C28            6.4828     6.9434     0.6449 C.ar    
  29 H29            0.9399    -0.5395    -0.0085 H       
  30 H30           -1.2115    -1.7802     0.0101 H       
  31 H31           -3.3019    -0.6098     0.0189 H       
  32 H32           -4.0662     2.1304    -1.0845 H       
  33 H33           -4.5229     1.1820     0.3475 H       
  34 H34           -4.8683     3.6372     0.6912 H       
  35 H35           -3.6616     2.9695     1.8253 H       
  36 H36            1.8384     1.4597    -1.9505 H       
  37 H37            0.9340     2.9929     1.9499 H       
  38 H38            4.4089     5.5715    -1.5895 H       
  39 H39            4.0347     6.2059     0.0309 H       
  40 H40            6.6935     5.5294    -2.4103 H       
  41 H41            8.9345     6.5424    -2.2894 H       
  42 H42            9.6065     7.8094    -0.2879 H       
  43 H43            8.0372     8.0642     1.5924 H       
  44 H44            5.7945     7.0551     1.4696 H       
@<TRIPOS>BOND
   1    1    2 2
   2    1   11 1
   3    1    6 1
   4    2    3 1
   5    2   29 1
   6    3    4 2
   7    3   30 1
   8    4    5 1
   9    4   31 1
  10    5    6 1
  11    5    7 1
  12    6   10 2
  13    7    8 1
  14    7   32 1
  15    7   33 1
  16    8    9 1
  17    8   34 1
  18    8   35 1
  19    9   10 am
  20    9   12 2
  21    9   13 2
  22   11   14 ar
  23   11   18 ar
  24   14   15 ar
  25   14   36 1
  26   15   16 ar
  27   15   23 1
  28   16   17 ar
  29   16   19 1
  30   17   18 ar
  31   17   22 1
  32   18   37 1
  33   19   20 1
  34   20   21 1
  35   20   38 1
  36   20   39 1
  37   21   24 ar
  38   21   28 ar
  39   24   25 ar
  40   24   40 1
  41   25   26 ar
  42   25   41 1
  43   26   27 ar
  44   26   42 1
  45   27   28 ar
  46   27   43 1
  47   28   44 1

#	End of record

