#	Name: ASD00170460
#	Creating user name:	WinNT
#	Creation time:	15. 06. 2019 18:32

#	Modifying user name:	WinNT
#	Modification time:	15. 06. 2019 18:32

#	Program:	/corina/corina34_cracker 3.40 0067  02.08.2006

@<TRIPOS>MOLECULE
ASD00170460
 100  106    0    0    0
SMALL
NO_CHARGES


@<TRIPOS>ATOM
   1 C1             0.5764     4.1129    -1.2192 C.2     
   2 N2             0.8889     5.1484    -2.0489 N.pl3   
   3 C3             2.2351     5.0785    -2.3047 C.ar    
   4 C4             2.7068     3.9615    -1.5943 C.ar    
   5 N5             1.6443     3.4179    -0.9538 N.2     
   6 N6             3.0918     5.7949    -3.0249 N.ar    
   7 C7             4.3657     5.4661    -3.0746 C.ar    
   8 N8             4.8553     4.4263    -2.4248 N.ar    
   9 C9             4.0747     3.6509    -1.6788 C.ar    
  10 N10            4.5972     2.5626    -1.0009 N.pl3   
  11 C11           -0.0418     6.1518    -2.5715 C.3     
  12 O12           -1.3926     5.6420    -2.5697 O.3     
  13 C13           -2.2706     6.7799    -2.5930 C.3     
  14 C14           -1.5113     7.9577    -1.9520 C.3     
  15 C15           -0.1156     7.3747    -1.6220 C.3     
  16 C16           -3.5362     6.4771    -1.7883 C.3     
  17 O17           -1.3951     9.0407    -2.8770 O.3     
  18 O18            0.9151     8.3174    -1.9237 O.3     
  19 O19           -4.2842     5.4517    -2.4448 O.3     
  20 C20            5.9784     2.3344    -1.0024 C.ar    
  21 C21            6.8598     3.4073    -1.0261 C.ar    
  22 C22            8.2221     3.1812    -1.0271 C.ar    
  23 C23            8.7102     1.8830    -1.0047 C.ar    
  24 C24            7.8305     0.8107    -0.9814 C.ar    
  25 C25            6.4679     1.0351    -0.9742 C.ar    
  26 O26           10.0519     1.6613    -1.0061 O.3     
  27 C27           12.0136     0.2500    -0.9877 C.3     
  28 N28           19.9218    -5.7783    -0.9072 N.3     
  29 C29           20.4057    -7.1414    -0.6453 C.3     
  30 C30           21.8840    -7.2386    -1.0355 C.3     
  31 C31           22.6219    -6.0741    -0.3933 C.2     
  32 C32           21.9891    -5.0004     0.0946 C.2     
  33 C33           20.4834    -4.8253     0.0616 C.3     
  34 S34           23.1331    -3.8505     0.7626 S.3     
  35 C35           24.4705    -4.8315     0.3766 C.2     
  36 C36           24.0614    -5.9894    -0.2367 C.2     
  37 N37           25.7852    -4.5066     0.6429 N.pl3   
  38 C38           24.9834    -7.0319    -0.6866 C.2     
  39 C39           25.4961    -7.0173    -2.0736 C.ar    
  40 O40           25.3289    -7.9119     0.0810 O.2     
  41 C41           26.2889    -8.0683    -2.5388 C.ar    
  42 C42           26.7644    -8.0498    -3.8329 C.ar    
  43 C43           26.4573    -6.9912    -4.6718 C.ar    
  44 C44           25.6708    -5.9448    -4.2163 C.ar    
  45 C45           25.1845    -5.9556    -2.9245 C.ar    
  46 Cl46          25.2912    -4.6218    -5.2742 Cl      
  47 Cl47          27.0602    -6.9748    -6.2996 Cl      
  48 C48           18.4536    -5.7307    -0.9020 C.3     
  49 C49           17.9905    -4.2727    -0.9275 C.3     
  50 C50           16.4613    -4.2232    -0.9221 C.3     
  51 C51           15.9982    -2.7651    -0.9476 C.3     
  52 C52           14.4690    -2.7156    -0.9422 C.3     
  53 C53           14.0059    -1.2576    -0.9676 C.3     
  54 C54           12.4767    -1.2080    -0.9623 C.3     
  55 C55           10.4844     0.2995    -0.9823 C.3     
  56 H56           -0.4109     3.9030    -0.8351 H       
  57 H57            5.0353     6.0694    -3.6697 H       
  58 H58            4.0062     1.9583    -0.5250 H       
  59 H59            0.2511     6.4593    -3.5753 H       
  60 H60           -2.5331     7.0245    -3.6223 H       
  61 H61           -2.0131     8.2847    -1.0413 H       
  62 H62           -0.0614     7.0615    -0.5794 H       
  63 H63           -3.2596     6.1417    -0.7887 H       
  64 H64           -4.1438     7.3789    -1.7137 H       
  65 H65           -2.2433     9.4061    -3.1633 H       
  66 H66            0.9104     9.1004    -1.3562 H       
  67 H67           -5.1016     5.2081    -1.9892 H       
  68 H68            6.4800     4.4181    -1.0443 H       
  69 H69            8.9078     4.0155    -1.0456 H       
  70 H70            8.2113    -0.1997    -0.9644 H       
  71 H71            5.7831     0.2003    -0.9512 H       
  72 H72           12.3970     0.7684    -0.1089 H       
  73 H73           12.3897     0.7350    -1.8885 H       
  74 H74           20.2934    -7.3698     0.4146 H       
  75 H75           19.8264    -7.8524    -1.2344 H       
  76 H76           22.2983    -8.1802    -0.6752 H       
  77 H77           21.9826    -7.1837    -2.1196 H       
  78 H78           20.2399    -3.8075    -0.2430 H       
  79 H79           20.0703    -5.0228     1.0508 H       
  80 H80           26.0057    -3.6327     1.0016 H       
  81 H81           26.4886    -5.1520     0.4714 H       
  82 H82           26.5296    -8.8942    -1.8859 H       
  83 H83           27.3780    -8.8623    -4.1932 H       
  84 H84           24.5677    -5.1423    -2.5716 H       
  85 H85           18.0702    -6.2491    -1.7809 H       
  86 H86           18.0776    -6.2157    -0.0012 H       
  87 H87           18.3739    -3.7543    -0.0487 H       
  88 H88           18.3666    -3.7877    -1.8283 H       
  89 H89           16.0779    -4.7416    -1.8009 H       
  90 H90           16.0853    -4.7082    -0.0213 H       
  91 H91           16.3816    -2.2467    -0.0687 H       
  92 H92           16.3743    -2.2802    -1.8484 H       
  93 H93           14.0856    -3.2340    -1.8210 H       
  94 H94           14.0929    -3.2006    -0.0414 H       
  95 H95           14.3893    -0.7392    -0.0888 H       
  96 H96           14.3820    -0.7726    -1.8684 H       
  97 H97           12.1006    -1.6930    -0.0614 H       
  98 H98           12.0933    -1.7265    -1.8411 H       
  99 H99           10.1083    -0.1855    -0.0815 H       
 100 H100          10.1010    -0.2189    -1.8612 H       
@<TRIPOS>BOND
   1    1    2 1
   2    1    5 2
   3    1   56 1
   4    2    3 1
   5    2   11 1
   6    3    6 ar
   7    3    4 ar
   8    4    5 1
   9    4    9 ar
  10    6    7 ar
  11    7    8 ar
  12    7   57 1
  13    8    9 ar
  14    9   10 1
  15   10   20 1
  16   10   58 1
  17   11   12 1
  18   11   15 1
  19   11   59 1
  20   12   13 1
  21   13   14 1
  22   13   16 1
  23   13   60 1
  24   14   15 1
  25   14   17 1
  26   14   61 1
  27   15   18 1
  28   15   62 1
  29   16   19 1
  30   16   63 1
  31   16   64 1
  32   17   65 1
  33   18   66 1
  34   19   67 1
  35   20   21 ar
  36   20   25 ar
  37   21   22 ar
  38   21   68 1
  39   22   23 ar
  40   22   69 1
  41   23   24 ar
  42   23   26 1
  43   24   25 ar
  44   24   70 1
  45   25   71 1
  46   26   55 1
  47   27   54 1
  48   27   55 1
  49   27   72 1
  50   27   73 1
  51   28   29 1
  52   28   33 1
  53   28   48 1
  54   29   30 1
  55   29   74 1
  56   29   75 1
  57   30   31 1
  58   30   76 1
  59   30   77 1
  60   31   32 2
  61   31   36 1
  62   32   33 1
  63   32   34 1
  64   33   78 1
  65   33   79 1
  66   34   35 1
  67   35   36 2
  68   35   37 1
  69   36   38 1
  70   37   80 1
  71   37   81 1
  72   38   39 1
  73   38   40 2
  74   39   41 ar
  75   39   45 ar
  76   41   42 ar
  77   41   82 1
  78   42   43 ar
  79   42   83 1
  80   43   44 ar
  81   43   47 1
  82   44   45 ar
  83   44   46 1
  84   45   84 1
  85   48   49 1
  86   48   85 1
  87   48   86 1
  88   49   50 1
  89   49   87 1
  90   49   88 1
  91   50   51 1
  92   50   89 1
  93   50   90 1
  94   51   52 1
  95   51   91 1
  96   51   92 1
  97   52   53 1
  98   52   93 1
  99   52   94 1
 100   53   54 1
 101   53   95 1
 102   53   96 1
 103   54   97 1
 104   54   98 1
 105   55   99 1
 106   55  100 1

#	End of record

