#	Name: ASD01150219
#	Creating user name:	WinNT
#	Creation time:	15. 06. 2019 19:03

#	Modifying user name:	WinNT
#	Modification time:	15. 06. 2019 19:03

#	Program:	/corina/corina34_cracker 3.40 0067  02.08.2006

@<TRIPOS>MOLECULE
ASD01150219
  51   54    0    0    0
SMALL
NO_CHARGES


@<TRIPOS>ATOM
   1 C1            -0.0159     1.3195     0.0093 C.ar    
   2 N2             0.0021    -0.0041     0.0020 N.ar    
   3 C3             1.1578    -0.6499    -0.0120 C.ar    
   4 C4             2.3551     0.0552    -0.0189 C.ar    
   5 N5             2.3491     1.3767    -0.0126 N.ar    
   6 C6             1.1973     2.0303     0.0015 C.ar    
   7 C7             1.1405     3.5066     0.0100 C.2     
   8 N8            -0.0731     4.0993     0.0262 N.am    
   9 C9            -1.2014     3.3723     0.0343 C.2     
  10 N10           -1.2027     2.0286     0.0302 N.am    
  11 C11           -0.1595     5.5617     0.0356 C.3     
  12 O12            2.1590     4.1702     0.0030 O.2     
  13 C13           -0.2041     6.0714    -1.3819 C.ar    
  14 C14           -1.4197     6.2344    -2.0196 C.ar    
  15 C15           -1.4613     6.7019    -3.3196 C.ar    
  16 C16           -0.2859     7.0066    -3.9828 C.ar    
  17 C17            0.9305     6.8433    -3.3440 C.ar    
  18 C18            0.9704     6.3811    -2.0420 C.ar    
  19 Cl19          -0.3372     7.5932    -5.6158 Cl      
  20 O20           -2.2684     3.9548     0.0497 O.2     
  21 C21           -2.4772     1.3062     0.0393 C.3     
  22 C22           -2.9336     1.0592    -1.4000 C.3     
  23 C23           -4.2646     0.3048    -1.3906 C.3     
  24 C24            1.4434    -2.1368    -0.0227 C.3     
  25 C25            2.9126    -2.2635    -0.4777 C.3     
  26 C26            3.5173    -0.9147    -0.0341 C.3     
  27 C27            4.5796    -0.4547    -1.0346 C.3     
  28 C28            1.2704    -2.7206     1.3809 C.3     
  29 H29           -1.0639     5.8689     0.5608 H       
  30 H30            0.7129     5.9740     0.5427 H       
  31 H31           -2.3372     5.9962    -1.5020 H       
  32 H32           -2.4110     6.8288    -3.8179 H       
  33 H33            1.8483     7.0810    -3.8611 H       
  34 H34            1.9198     6.2536    -1.5433 H       
  35 H35           -2.3499     0.3512     0.5490 H       
  36 H36           -3.2275     1.8997     0.5616 H       
  37 H37           -3.0609     2.0142    -1.9098 H       
  38 H38           -2.1833     0.4657    -1.9224 H       
  39 H39           -4.1373    -0.6502    -0.8808 H       
  40 H40           -5.0150     0.8983    -0.8682 H       
  41 H41           -4.5898     0.1288    -2.4159 H       
  42 H42            0.7842    -2.6434    -0.7276 H       
  43 H43            3.4046    -3.0937     0.0291 H       
  44 H44            2.9741    -2.3781    -1.5599 H       
  45 H45            3.9489    -1.0034     0.9628 H       
  46 H46            4.1249    -0.3346    -2.0179 H       
  47 H47            4.9973     0.4979    -0.7086 H       
  48 H48            5.3734    -1.1996    -1.0899 H       
  49 H49            0.2402    -2.5801     1.7084 H       
  50 H50            1.5040    -3.7851     1.3631 H       
  51 H51            1.9435    -2.2124     2.0714 H       
@<TRIPOS>BOND
   1    1    2 ar
   2    1    6 ar
   3    1   10 1
   4    2    3 ar
   5    3    4 ar
   6    3   24 1
   7    4    5 ar
   8    4   26 1
   9    5    6 ar
  10    6    7 1
  11    7    8 am
  12    7   12 2
  13    8    9 am
  14    8   11 1
  15    9   10 am
  16    9   20 2
  17   10   21 1
  18   11   13 1
  19   11   29 1
  20   11   30 1
  21   13   14 ar
  22   13   18 ar
  23   14   15 ar
  24   14   31 1
  25   15   16 ar
  26   15   32 1
  27   16   17 ar
  28   16   19 1
  29   17   18 ar
  30   17   33 1
  31   18   34 1
  32   21   22 1
  33   21   35 1
  34   21   36 1
  35   22   23 1
  36   22   37 1
  37   22   38 1
  38   23   39 1
  39   23   40 1
  40   23   41 1
  41   24   25 1
  42   24   28 1
  43   24   42 1
  44   25   26 1
  45   25   43 1
  46   25   44 1
  47   26   27 1
  48   26   45 1
  49   27   46 1
  50   27   47 1
  51   27   48 1
  52   28   49 1
  53   28   50 1
  54   28   51 1

#	End of record

