#	Name: ASD01882995
#	Creating user name:	WinNT
#	Creation time:	15. 06. 2019 19:45

#	Modifying user name:	WinNT
#	Modification time:	15. 06. 2019 19:45

#	Program:	/corina/corina34_cracker 3.40 0067  02.08.2006

@<TRIPOS>MOLECULE
ASD01882995
  51   53    0    0    0
SMALL
NO_CHARGES


@<TRIPOS>ATOM
   1 C1            -0.0170     1.4020     0.0098 C.2     
   2 C2             0.0021    -0.0041     0.0020 C.2     
   3 C3            -1.2244    -0.6972     0.0105 C.2     
   4 C4            -2.3887    -0.0097     0.0258 C.2     
   5 N5            -2.4081     1.3480     0.0328 N.am    
   6 C6            -1.2689     2.0648     0.0312 C.2     
   7 C7            -3.6955     2.0471     0.0484 C.3     
   8 C8            -4.1301     2.2832     1.4962 C.3     
   9 C9             1.2047     2.1489     0.0021 C.1     
  10 N10            2.1739     2.7414    -0.0040 N.1     
  11 O11           -1.3144     3.2832     0.0387 O.2     
  12 C12           -5.4746     3.0132     1.5125 C.3     
  13 C13            1.2833    -0.7401    -0.0152 C.ar    
  14 C14           -5.9093     3.2493     2.9604 C.3     
  15 C15            1.6473    -1.5377     1.0724 C.ar    
  16 C16            2.8423    -2.2226     1.0524 C.ar    
  17 C17            3.6854    -2.1206    -0.0476 C.ar    
  18 C18            3.3271    -1.3277    -1.1312 C.ar    
  19 C19            2.1310    -0.6446    -1.1215 C.ar    
  20 O20            4.8625    -2.7968    -0.0634 O.3     
  21 C21            5.6811    -2.6472    -1.2251 C.3     
  22 C22            6.9368    -3.4647    -1.0635 C.ar    
  23 C23            7.1298    -4.1989     0.0911 C.ar    
  24 C24            8.2886    -4.9478     0.2300 C.ar    
  25 C25            9.2135    -4.9297    -0.8025 C.ar    
  26 C26            8.9518    -4.1711    -1.9280 C.ar    
  27 N27            7.8363    -3.4753    -2.0279 N.ar    
  28 C28            8.5368    -5.7616     1.4738 C.3     
  29 H29           -1.2348    -1.7771     0.0044 H       
  30 H30           -3.3228    -0.5518     0.0322 H       
  31 H31           -3.5949     3.0052    -0.4616 H       
  32 H32           -4.4442     1.4409    -0.4615 H       
  33 H33           -4.2307     1.3251     2.0062 H       
  34 H34           -3.3813     2.8893     2.0061 H       
  35 H35           -5.3740     3.9713     1.0025 H       
  36 H36           -6.2234     2.4070     1.0026 H       
  37 H37           -6.0098     2.2912     3.4703 H       
  38 H38           -5.1605     3.8554     3.4703 H       
  39 H39           -6.8671     3.7694     2.9720 H       
  40 H40            0.9929    -1.6170     1.9279 H       
  41 H41            3.1244    -2.8395     1.8928 H       
  42 H42            3.9853    -1.2504    -1.9839 H       
  43 H43            1.8530    -0.0290    -1.9641 H       
  44 H44            5.1336    -2.9919    -2.1022 H       
  45 H45            5.9449    -1.5971    -1.3509 H       
  46 H46            6.3876    -4.1894     0.8757 H       
  47 H47           10.1272    -5.5007    -0.7283 H       
  48 H48            9.6675    -4.1513    -2.7366 H       
  49 H49            8.1281    -6.7632     1.3402 H       
  50 H50            9.6093    -5.8282     1.6564 H       
  51 H51            8.0525    -5.2820     2.3244 H       
@<TRIPOS>BOND
   1    1    2 2
   2    1    9 1
   3    1    6 1
   4    2    3 1
   5    2   13 1
   6    3    4 2
   7    3   29 1
   8    4    5 1
   9    4   30 1
  10    5    7 1
  11    5    6 am
  12    6   11 2
  13    7    8 1
  14    7   31 1
  15    7   32 1
  16    8   12 1
  17    8   33 1
  18    8   34 1
  19    9   10 3
  20   12   14 1
  21   12   35 1
  22   12   36 1
  23   13   15 ar
  24   13   19 ar
  25   14   37 1
  26   14   38 1
  27   14   39 1
  28   15   16 ar
  29   15   40 1
  30   16   17 ar
  31   16   41 1
  32   17   18 ar
  33   17   20 1
  34   18   19 ar
  35   18   42 1
  36   19   43 1
  37   20   21 1
  38   21   22 1
  39   21   44 1
  40   21   45 1
  41   22   23 ar
  42   22   27 ar
  43   23   24 ar
  44   23   46 1
  45   24   25 ar
  46   24   28 1
  47   25   26 ar
  48   25   47 1
  49   26   27 ar
  50   26   48 1
  51   28   49 1
  52   28   50 1
  53   28   51 1

#	End of record

