#	Name: ASD01208015
#	Creating user name:	WinNT
#	Creation time:	15. 06. 2019 19:09

#	Modifying user name:	WinNT
#	Modification time:	15. 06. 2019 19:09

#	Program:	/corina/corina34_cracker 3.40 0067  02.08.2006

@<TRIPOS>MOLECULE
ASD01208015
  56   58    0    0    0
SMALL
NO_CHARGES


@<TRIPOS>ATOM
   1 C1            -0.0841     1.4340     0.0276 C.ar    
   2 C2             0.0186     0.0511    -0.0130 C.ar    
   3 C3            -1.1244    -0.7352     0.0266 C.ar    
   4 C4            -2.3732    -0.1416     0.1066 C.ar    
   5 C5            -2.4810     1.2493     0.1478 C.ar    
   6 C6            -1.3288     2.0358     0.1138 C.ar    
   7 C7            -3.8113     1.8872     0.2326 C.2     
   8 C8            -4.0537     3.2454     0.2793 C.2     
   9 N9            -5.0072     1.2343     0.2719 N.pl3   
  10 C10           -6.0160     2.1717     0.3493 C.2     
  11 C11           -5.4303     3.4278     0.3545 C.2     
  12 O12            1.0383     2.1992    -0.0115 O.3     
  13 C13            0.8562     3.6144    -0.0906 C.3     
  14 C14            2.0903     4.2523    -0.7318 C.3     
  15 O15            3.2214     4.0637     0.1209 O.3     
  16 C16            0.6611     4.1829     1.3164 C.3     
  17 O17           -1.0182    -2.0893    -0.0135 O.3     
  18 C18           -1.4869    -2.7337    -1.1142 C.ar    
  19 C19           -1.9375    -2.0059    -2.2063 C.ar    
  20 C20           -1.5105    -4.1206    -1.1503 C.ar    
  21 C21           -1.9870    -4.7731    -2.2707 C.ar    
  22 C22           -2.4404    -4.0455    -3.3556 C.ar    
  23 C23           -2.4131    -2.6634    -3.3242 C.ar    
  24 S24           -3.0471    -4.8810    -4.7833 S.o2    
  25 C25           -4.8215    -5.0866    -4.4676 C.3     
  26 O26           -2.8327    -3.9613    -5.8451 O.2     
  27 O27           -2.3874    -6.1394    -4.7597 O.2     
  28 C28            4.4329     4.6252    -0.3879 C.3     
  29 C29           -7.4002     1.8998     0.4089 C.2     
  30 O30           -7.7948     0.7511     0.3937 O.2     
  31 C31           -8.3881     3.0349     0.4912 C.3     
  32 H32            0.9908    -0.4149    -0.0761 H       
  33 H33           -3.2622    -0.7541     0.1367 H       
  34 H34           -1.4078     3.1124     0.1455 H       
  35 H35           -3.3078     4.0263     0.2614 H       
  36 H36           -5.1284     0.2722     0.2489 H       
  37 H37           -5.9478     4.3743     0.4072 H       
  38 H38           -0.0227     3.8343    -0.6965 H       
  39 H39            2.2812     3.7839    -1.6974 H       
  40 H40            1.9158     5.3188    -0.8734 H       
  41 H41            0.5222     5.2623     1.2560 H       
  42 H42           -0.2181     3.7285     1.7732 H       
  43 H43            1.5400     3.9630     1.9223 H       
  44 H44           -1.9168    -0.9264    -2.1822 H       
  45 H45           -1.1561    -4.6894    -0.3034 H       
  46 H46           -2.0052    -5.8526    -2.2994 H       
  47 H47           -2.7681    -2.0974    -4.1728 H       
  48 H48           -5.2840    -4.1076    -4.3418 H       
  49 H49           -5.2833    -5.6010    -5.3104 H       
  50 H50           -4.9635    -5.6747    -3.5609 H       
  51 H51            4.6724     4.1646    -1.3464 H       
  52 H52            4.3071     5.6995    -0.5224 H       
  53 H53            5.2434     4.4397     0.3169 H       
  54 H54           -8.6764     3.3393    -0.5149 H       
  55 H55           -9.2719     2.7083     1.0393 H       
  56 H56           -7.9305     3.8780     1.0088 H       
@<TRIPOS>BOND
   1    1    2 ar
   2    1   12 1
   3    1    6 ar
   4    2    3 ar
   5    2   32 1
   6    3    4 ar
   7    3   17 1
   8    4    5 ar
   9    4   33 1
  10    5    6 ar
  11    5    7 1
  12    6   34 1
  13    7    8 2
  14    7    9 1
  15    8   11 1
  16    8   35 1
  17    9   10 1
  18    9   36 1
  19   10   11 2
  20   10   29 1
  21   11   37 1
  22   12   13 1
  23   13   14 1
  24   13   16 1
  25   13   38 1
  26   14   15 1
  27   14   39 1
  28   14   40 1
  29   15   28 1
  30   16   41 1
  31   16   42 1
  32   16   43 1
  33   17   18 1
  34   18   19 ar
  35   18   20 ar
  36   19   23 ar
  37   19   44 1
  38   20   21 ar
  39   20   45 1
  40   21   22 ar
  41   21   46 1
  42   22   23 ar
  43   22   24 1
  44   23   47 1
  45   24   25 1
  46   24   26 2
  47   24   27 2
  48   25   48 1
  49   25   49 1
  50   25   50 1
  51   28   51 1
  52   28   52 1
  53   28   53 1
  54   29   30 2
  55   29   31 1
  56   31   54 1
  57   31   55 1
  58   31   56 1

#	End of record

