#	Name: ASD04590823
#	Creating user name:	WinNT
#	Creation time:	15. 06. 2019 20:51

#	Modifying user name:	WinNT
#	Modification time:	15. 06. 2019 20:51

#	Program:	/corina/corina34_cracker 3.40 0067  02.08.2006

@<TRIPOS>MOLECULE
ASD04590823
  55   60    0    0    0
SMALL
NO_CHARGES


@<TRIPOS>ATOM
   1 N1            -0.0170     1.3232    -0.0113 N.ar    
   2 C2             0.0017    -0.0035    -0.0049 C.ar    
   3 N3             1.1298    -0.6949    -0.0118 N.ar    
   4 C4             2.3049    -0.0729    -0.0259 C.ar    
   5 C5             2.3189     1.3365    -0.0335 C.ar    
   6 C6             1.1072     2.0201    -0.0254 C.ar    
   7 N7             3.6031    -0.5197    -0.0356 N.pl3   
   8 C8             4.4823     0.5493    -0.0494 C.ar    
   9 C9             3.7312     1.7383    -0.0487 C.ar    
  10 C10            5.8680     0.6416    -0.0628 C.ar    
  11 N11            6.4613     1.8178    -0.0745 N.ar    
  12 C12            5.7851     2.9530    -0.0741 C.ar    
  13 C13            4.4065     2.9583    -0.0620 C.ar    
  14 N14           -1.2022    -0.6888     0.0098 N.pl3   
  15 C15           -2.3999     0.0106     0.1301 C.ar    
  16 N16           -2.3860     1.3200     0.3310 N.ar    
  17 N17           -3.4649     2.0055     0.4479 N.ar    
  18 C18           -4.6660     1.4480     0.3753 C.ar    
  19 C19           -4.7810     0.0694     0.1649 C.ar    
  20 C20           -3.6169    -0.6659     0.0335 C.ar    
  21 C21           -5.8833     2.2828     0.5171 C.ar    
  22 C22           -7.1443     1.6935     0.5461 C.ar    
  23 N23           -8.2287     2.4321     0.6715 N.ar    
  24 C24           -8.1662     3.7496     0.7745 C.ar    
  25 C25           -6.9430     4.4101     0.7541 C.ar    
  26 C26           -5.7808     3.6741     0.6296 C.ar    
  27 C27            4.0016    -1.9294    -0.0315 C.3     
  28 C28            3.4608    -2.6264     1.2292 C.3     
  29 C29            2.5277    -3.7545     0.7431 C.3     
  30 C30            3.0201    -4.0625    -0.6928 C.3     
  31 C31            3.3783    -2.6583    -1.2398 C.3     
  32 O32           -9.3111     4.4657     0.9014 O.3     
  33 C33          -10.5372     3.7318     0.9155 C.3     
  34 H34            1.0849     3.0999    -0.0311 H       
  35 H35            6.4644    -0.2588    -0.0632 H       
  36 H36            6.3205     3.8909    -0.0837 H       
  37 H37            3.8598     3.8897    -0.0618 H       
  38 H38           -1.2106    -1.6560    -0.0636 H       
  39 H39           -5.7492    -0.4052     0.1024 H       
  40 H40           -3.6486    -1.7330    -0.1303 H       
  41 H41           -7.2349     0.6204     0.4645 H       
  42 H42           -6.9018     5.4860     0.8385 H       
  43 H43           -4.8169     4.1610     0.6113 H       
  44 H44            5.0881    -2.0100    -0.0657 H       
  45 H45            4.2847    -3.0460     1.8064 H       
  46 H46            2.9017    -1.9157     1.8380 H       
  47 H47            2.6298    -4.6344     1.3783 H       
  48 H48            1.4927    -3.4130     0.7264 H       
  49 H49            3.9008    -4.7043    -0.6698 H       
  50 H50            2.2253    -4.5164    -1.2847 H       
  51 H51            2.4807    -2.1397    -1.5767 H       
  52 H52            4.1013    -2.7382    -2.0516 H       
  53 H53          -11.3732     4.4231     1.0218 H       
  54 H54          -10.6400     3.1781    -0.0177 H       
  55 H55          -10.5336     3.0345     1.7533 H       
@<TRIPOS>BOND
   1    1    2 ar
   2    1    6 ar
   3    2    3 ar
   4    2   14 1
   5    3    4 ar
   6    4    5 ar
   7    4    7 1
   8    5    6 ar
   9    5    9 1
  10    6   34 1
  11    7    8 1
  12    7   27 1
  13    8    9 ar
  14    8   10 ar
  15    9   13 ar
  16   10   11 ar
  17   10   35 1
  18   11   12 ar
  19   12   13 ar
  20   12   36 1
  21   13   37 1
  22   14   15 1
  23   14   38 1
  24   15   16 ar
  25   15   20 ar
  26   16   17 ar
  27   17   18 ar
  28   18   19 ar
  29   18   21 1
  30   19   20 ar
  31   19   39 1
  32   20   40 1
  33   21   22 ar
  34   21   26 ar
  35   22   23 ar
  36   22   41 1
  37   23   24 ar
  38   24   25 ar
  39   24   32 1
  40   25   26 ar
  41   25   42 1
  42   26   43 1
  43   27   28 1
  44   27   31 1
  45   27   44 1
  46   28   29 1
  47   28   45 1
  48   28   46 1
  49   29   30 1
  50   29   47 1
  51   29   48 1
  52   30   31 1
  53   30   49 1
  54   30   50 1
  55   31   51 1
  56   31   52 1
  57   32   33 1
  58   33   53 1
  59   33   54 1
  60   33   55 1

#	End of record

