#	Name: ASD03240227
#	Creating user name:	WinNT
#	Creation time:	15. 06. 2019 20:34

#	Modifying user name:	WinNT
#	Modification time:	15. 06. 2019 20:34

#	Program:	/corina/corina34_cracker 3.40 0067  02.08.2006

@<TRIPOS>MOLECULE
ASD03240227
 106  110    0    0    0
SMALL
NO_CHARGES


@<TRIPOS>ATOM
   1 C1            -0.1142     1.2183    -0.6104 C.2     
   2 N2            -0.0097    -0.0234    -0.0295 N.pl3   
   3 C3            -3.6698     2.2405    -0.0315 C.3     
   4 C4            -2.4758     1.2896     0.0739 C.3     
   5 N5            -1.3115     1.8934    -0.5788 N.pl3   
   6 N6             0.9231     1.7578    -1.1864 N.2     
   7 N7            -4.8341     1.6367     0.6212 N.pl3   
   8 C8            -6.0435     2.3186     0.6532 C.ar    
   9 C9            -7.1583     1.7403     1.2782 C.ar    
  10 C10           -8.3651     2.4249     1.3081 C.ar    
  11 C11           -8.4626     3.6854     0.7158 C.ar    
  12 C12           -7.3460     4.2541     0.0949 C.ar    
  13 C13           -6.1476     3.5768     0.0707 C.ar    
  14 C14           -9.7434     4.4169     0.7445 C.2     
  15 N15           -9.8373     5.6337     0.1727 N.am    
  16 O16          -10.7144     3.9220     1.2841 O.2     
  17 C17          -11.0782     6.2799     0.1007 C.ar    
  18 C18          -11.1492     7.6617     0.2183 C.ar    
  19 C19          -12.2365     5.5390    -0.0939 C.ar    
  20 C20          -13.4594     6.1758    -0.1653 C.ar    
  21 C21          -13.5312     7.5573    -0.0420 C.ar    
  22 C22          -12.3721     8.2986     0.1479 C.ar    
  23 N23          -14.7703     8.2027    -0.1148 N.pl3   
  24 C24          -14.8459     9.6599     0.0152 C.3     
  25 C25          -15.9922     7.4212    -0.3211 C.3     
  26 C26           -7.0476     0.4006     1.9050 C.ar    
  27 C27           -7.4970     0.1991     3.2088 C.ar    
  28 C28           -7.3920    -1.0497     3.7868 C.ar    
  29 C29           -6.8415    -2.1002     3.0749 C.ar    
  30 C30           -6.3934    -1.9058     1.7807 C.ar    
  31 C31           -6.4992    -0.6628     1.1904 C.ar    
  32 C32          -16.5633     7.0199     1.0144 C.ar    
  33 C33          -14.7198    10.2930    -1.3465 C.ar    
  34 C34          -17.4731     7.8422     1.6524 C.ar    
  35 C35          -17.9969     7.4741     2.8775 C.ar    
  36 C36          -17.6113     6.2834     3.4645 C.ar    
  37 C37          -16.7022     5.4607     2.8261 C.ar    
  38 C38          -16.1816     5.8268     1.5990 C.ar    
  39 C39          -15.8505    10.5335    -2.1044 C.ar    
  40 C40          -15.7348    11.1142    -3.3535 C.ar    
  41 C41          -14.4883    11.4548    -3.8446 C.ar    
  42 C42          -13.3576    11.2151    -3.0863 C.ar    
  43 C43          -13.4737    10.6384    -1.8354 C.ar    
  44 C44          -18.1816     5.8826     4.8006 C.3     
  45 C45          -14.3620    12.0869    -5.2068 C.3     
  46 C46          -13.7095    13.4641    -5.0714 C.3     
  47 C47          -13.4969    11.1985    -6.1030 C.3     
  48 C48          -18.9233     4.5518     4.6600 C.3     
  49 C49          -17.0461     5.7289     5.8144 C.3     
  50 C50           -6.7291    -3.4613     3.7117 C.3     
  51 C51           -7.5231    -4.4770     2.8878 C.3     
  52 C52           -5.2589    -3.8818     3.7603 C.3     
  53 H53            0.8361    -0.4980    -0.0484 H       
  54 H54           -0.7816    -0.4249     0.3991 H       
  55 H55           -3.4274     3.1838     0.4580 H       
  56 H56           -3.8965     2.4239    -1.0818 H       
  57 H57           -2.2491     1.1061     1.1242 H       
  58 H58           -2.7183     0.3463    -0.4155 H       
  59 H59           -1.3853     2.7694    -0.9886 H       
  60 H60            1.7688     1.2832    -1.2053 H       
  61 H61           -4.7603     0.7606     1.0310 H       
  62 H62           -9.2263     1.9838     1.7878 H       
  63 H63           -7.4229     5.2291    -0.3632 H       
  64 H64           -5.2881     4.0204    -0.4098 H       
  65 H65           -9.0458     6.0621    -0.1890 H       
  66 H66          -10.2478     8.2382     0.3653 H       
  67 H67          -12.1806     4.4647    -0.1898 H       
  68 H68          -14.3601     5.5996    -0.3174 H       
  69 H69          -12.4278     9.3729     0.2438 H       
  70 H70          -15.8034     9.9361     0.4570 H       
  71 H71          -14.0360    10.0101     0.6552 H       
  72 H72          -16.7218     8.0238    -0.8620 H       
  73 H73          -15.7586     6.5275    -0.8998 H       
  74 H74           -7.9263     1.0188     3.7658 H       
  75 H75           -7.7399    -1.2070     4.7971 H       
  76 H76           -5.9642    -2.7295     1.2296 H       
  77 H77           -6.1493    -0.5122     0.1798 H       
  78 H78          -17.7744     8.7724     1.1938 H       
  79 H79          -18.7072     8.1168     3.3763 H       
  80 H80          -16.4006     4.5306     3.2849 H       
  81 H81          -15.4714     5.1840     1.1002 H       
  82 H82          -16.8244    10.2675    -1.7207 H       
  83 H83          -16.6182    11.3015    -3.9459 H       
  84 H84          -12.3837    11.4808    -3.4701 H       
  85 H85          -12.5903    10.4511    -1.2430 H       
  86 H86          -18.8747     6.6502     5.1449 H       
  87 H87          -15.3519    12.1958    -5.6499 H       
  88 H88          -12.7196    13.3552    -4.6282 H       
  89 H89          -13.6181    13.9213    -6.0566 H       
  90 H90          -14.3258    14.0970    -4.4328 H       
  91 H91          -12.5071    11.0896    -5.6599 H       
  92 H92          -13.9618    10.2174    -6.1995 H       
  93 H93          -13.4056    11.6558    -7.0883 H       
  94 H94          -19.7322     4.6612     3.9377 H       
  95 H95          -18.2302     3.7842     4.3157 H       
  96 H96          -19.3358     4.2618     5.6263 H       
  97 H97          -16.5177     6.6770     5.9146 H       
  98 H98          -17.4586     5.4390     6.7808 H       
  99 H99          -16.3530     4.9613     5.4702 H       
 100 H100          -7.1296    -3.4227     4.7247 H       
 101 H101          -7.1226    -4.5157     1.8748 H       
 102 H102          -7.4418    -5.4616     3.3484 H       
 103 H103          -8.5706    -4.1775     2.8532 H       
 104 H104          -4.6932    -3.1583     4.3473 H       
 105 H105          -5.1776    -4.8664     4.2209 H       
 106 H106          -4.8584    -3.9205     2.7473 H       
@<TRIPOS>BOND
   1    1    2 1
   2    1    6 2
   3    1    5 1
   4    2   53 1
   5    2   54 1
   6    3    4 1
   7    3    7 1
   8    3   55 1
   9    3   56 1
  10    4    5 1
  11    4   57 1
  12    4   58 1
  13    5   59 1
  14    6   60 1
  15    7    8 1
  16    7   61 1
  17    8    9 ar
  18    8   13 ar
  19    9   10 ar
  20    9   26 1
  21   10   11 ar
  22   10   62 1
  23   11   12 ar
  24   11   14 1
  25   12   13 ar
  26   12   63 1
  27   13   64 1
  28   14   15 am
  29   14   16 2
  30   15   17 1
  31   15   65 1
  32   17   18 ar
  33   17   19 ar
  34   18   22 ar
  35   18   66 1
  36   19   20 ar
  37   19   67 1
  38   20   21 ar
  39   20   68 1
  40   21   22 ar
  41   21   23 1
  42   22   69 1
  43   23   24 1
  44   23   25 1
  45   24   33 1
  46   24   70 1
  47   24   71 1
  48   25   32 1
  49   25   72 1
  50   25   73 1
  51   26   27 ar
  52   26   31 ar
  53   27   28 ar
  54   27   74 1
  55   28   29 ar
  56   28   75 1
  57   29   30 ar
  58   29   50 1
  59   30   31 ar
  60   30   76 1
  61   31   77 1
  62   32   34 ar
  63   32   38 ar
  64   33   39 ar
  65   33   43 ar
  66   34   35 ar
  67   34   78 1
  68   35   36 ar
  69   35   79 1
  70   36   37 ar
  71   36   44 1
  72   37   38 ar
  73   37   80 1
  74   38   81 1
  75   39   40 ar
  76   39   82 1
  77   40   41 ar
  78   40   83 1
  79   41   42 ar
  80   41   45 1
  81   42   43 ar
  82   42   84 1
  83   43   85 1
  84   44   48 1
  85   44   49 1
  86   44   86 1
  87   45   46 1
  88   45   47 1
  89   45   87 1
  90   46   88 1
  91   46   89 1
  92   46   90 1
  93   47   91 1
  94   47   92 1
  95   47   93 1
  96   48   94 1
  97   48   95 1
  98   48   96 1
  99   49   97 1
 100   49   98 1
 101   49   99 1
 102   50   51 1
 103   50   52 1
 104   50  100 1
 105   51  101 1
 106   51  102 1
 107   51  103 1
 108   52  104 1
 109   52  105 1
 110   52  106 1

#	End of record

