#	Name: ASD01911440
#	Creating user name:	WinNT
#	Creation time:	15. 06. 2019 19:57

#	Modifying user name:	WinNT
#	Modification time:	15. 06. 2019 19:57

#	Program:	/corina/corina34_cracker 3.40 0067  02.08.2006

@<TRIPOS>MOLECULE
ASD01911440
  40   42    0    0    0
SMALL
NO_CHARGES


@<TRIPOS>ATOM
   1 N1            -0.0036     1.3812     0.2119 N.2     
   2 N2             0.0016    -0.0034     0.0011 N.pl3   
   3 C3             1.2358     1.8189     0.1321 C.2     
   4 C4             2.0746     0.7239    -0.1330 C.2     
   5 C5             1.2923    -0.3913    -0.2101 C.2     
   6 C6             1.7588    -1.7700    -0.4739 C.ar    
   7 C7             1.6718     3.2285     0.2942 C.ar    
   8 C8            -1.1719    -0.8804     0.0068 C.3     
   9 C9            -1.6609    -1.0745    -1.4054 C.2     
  10 O10           -2.7329    -1.8461    -1.6443 O.3     
  11 O11           -1.0879    -0.5355    -2.3225 O.2     
  12 C12            0.7337     4.2247     0.5562 C.ar    
  13 C13            3.0212     3.5592     0.1907 C.ar    
  14 C14            3.4212     4.8714     0.3428 C.ar    
  15 C15            2.4851     5.8573     0.5975 C.ar    
  16 C16            1.1447     5.5338     0.7065 C.ar    
  17 C17            3.1009    -2.0005    -0.7755 C.ar    
  18 C18            3.5219    -3.2959    -1.0199 C.ar    
  19 C19            2.5875    -4.3199    -0.9550 C.ar    
  20 C20            1.2722    -4.0204    -0.6504 C.ar    
  21 N21            0.8976    -2.7793    -0.4165 N.ar    
  22 C22            3.0022    -5.7453    -1.2146 C.3     
  23 C23            4.9631    -3.5880    -1.3497 C.3     
  24 H24            3.1472     0.7586    -0.2546 H       
  25 H25           -0.9016    -1.8462     0.4337 H       
  26 H26           -1.9616    -0.4267     0.6056 H       
  27 H27           -3.0091    -1.9406    -2.5662 H       
  28 H28           -0.3131     3.9732     0.6411 H       
  29 H29            3.7529     2.7901    -0.0078 H       
  30 H30            4.4670     5.1288     0.2631 H       
  31 H31            2.8023     6.8829     0.7158 H       
  32 H32            0.4178     6.3075     0.9051 H       
  33 H33            3.8015    -1.1797    -0.8180 H       
  34 H34            0.5429    -4.8154    -0.5996 H       
  35 H35            3.3061    -6.2117    -0.2774 H       
  36 H36            2.1630    -6.2963    -1.6392 H       
  37 H37            3.8374    -5.7589    -1.9148 H       
  38 H38            5.5146    -3.7808    -0.4295 H       
  39 H39            5.0175    -4.4639    -1.9962 H       
  40 H40            5.3996    -2.7306    -1.8621 H       
@<TRIPOS>BOND
   1    1    2 1
   2    1    3 2
   3    2    8 1
   4    2    5 1
   5    3    4 1
   6    3    7 1
   7    4    5 2
   8    4   24 1
   9    5    6 1
  10    6   17 ar
  11    6   21 ar
  12    7   12 ar
  13    7   13 ar
  14    8    9 1
  15    8   25 1
  16    8   26 1
  17    9   10 1
  18    9   11 2
  19   10   27 1
  20   12   16 ar
  21   12   28 1
  22   13   14 ar
  23   13   29 1
  24   14   15 ar
  25   14   30 1
  26   15   16 ar
  27   15   31 1
  28   16   32 1
  29   17   18 ar
  30   17   33 1
  31   18   19 ar
  32   18   23 1
  33   19   20 ar
  34   19   22 1
  35   20   21 ar
  36   20   34 1
  37   22   35 1
  38   22   36 1
  39   22   37 1
  40   23   38 1
  41   23   39 1
  42   23   40 1

#	End of record

