#	Name: ASD01140053
#	Creating user name:	WinNT
#	Creation time:	15. 06. 2019 18:59

#	Modifying user name:	WinNT
#	Modification time:	15. 06. 2019 18:59

#	Program:	/corina/corina34_cracker 3.40 0067  02.08.2006

@<TRIPOS>MOLECULE
ASD01140053
  46   49    0    0    0
SMALL
NO_CHARGES


@<TRIPOS>ATOM
   1 C1             0.0718     1.3194     0.2030 C.ar    
   2 C2             0.0462    -0.0703     0.0900 C.ar    
   3 N3            -1.1370    -0.8105     0.0731 N.pl3   
   4 C4            -2.2613    -0.5672     0.7966 C.2     
   5 C5            -2.4506     0.5965     1.7317 C.3     
   6 N6            -2.2418     1.8306     0.9552 N.am    
   7 C7            -1.1373     2.1487     0.2724 C.2     
   8 C8             1.3133     1.9790     0.2363 C.ar    
   9 C9             2.4865     1.2649     0.1479 C.ar    
  10 C10            2.4533    -0.1139     0.0249 C.ar    
  11 C11            1.2447    -0.7759    -0.0033 C.ar    
  12 C12           -3.8989     0.6232     2.2553 C.3     
  13 C13           -4.2175     2.1422     2.2897 C.3     
  14 C14           -3.4689     2.6461     1.0318 C.3     
  15 C15           -1.3721    -1.9285    -0.6719 C.2     
  16 N16           -2.5692    -2.3686    -0.4117 N.2     
  17 C17           -3.1548    -1.5490     0.5017 C.2     
  18 Br18           1.3712     3.8617     0.4031 Br      
  19 O19           -1.1341     3.2017    -0.3354 O.2     
  20 H20           -1.7387     0.5410     2.5552 H       
  21 C21           -4.5055    -1.6973     1.0670 C.2     
  22 O22           -5.5851    -1.3764     0.3263 O.3     
  23 O23           -4.6476    -2.1090     2.2017 O.2     
  24 C24           -6.8859    -1.5479     0.9484 C.3     
  25 C25           -6.9717    -0.6729     2.2006 C.3     
  26 C26           -7.9809    -1.1360    -0.0376 C.3     
  27 C27           -7.0757    -3.0153     1.3375 C.3     
  28 H28            3.4349     1.7810     0.1743 H       
  29 H29            3.3754    -0.6712    -0.0488 H       
  30 H30            1.2260    -1.8515    -0.0992 H       
  31 H31           -4.5679     0.1031     1.5697 H       
  32 H32           -3.9569     0.1930     3.2551 H       
  33 H33           -5.2897     2.3185     2.2030 H       
  34 H34           -3.8190     2.6045     3.1928 H       
  35 H35           -3.2153     3.7007     1.1403 H       
  36 H36           -4.0799     2.4935     0.1422 H       
  37 H37           -0.6769    -2.3766    -1.3664 H       
  38 H38           -6.8364     0.3725     1.9233 H       
  39 H39           -7.9481    -0.8016     2.6675 H       
  40 H40           -6.1915    -0.9664     2.9030 H       
  41 H41           -7.9198    -1.7593    -0.9297 H       
  42 H42           -8.9574    -1.2646     0.4293 H       
  43 H43           -7.8457    -0.0905    -0.3149 H       
  44 H44           -6.2955    -3.3088     2.0399 H       
  45 H45           -8.0521    -3.1440     1.8045 H       
  46 H46           -7.0145    -3.6386     0.4454 H       
@<TRIPOS>BOND
   1    1    2 ar
   2    1    8 ar
   3    1    7 1
   4    2    3 1
   5    2   11 ar
   6    3    4 1
   7    3   15 1
   8    4    5 1
   9    4   17 2
  10    5    6 1
  11    5   12 1
  12    5   20 1
  13    6    7 am
  14    6   14 1
  15    7   19 2
  16    8    9 ar
  17    8   18 1
  18    9   10 ar
  19    9   28 1
  20   10   11 ar
  21   10   29 1
  22   11   30 1
  23   12   13 1
  24   12   31 1
  25   12   32 1
  26   13   14 1
  27   13   33 1
  28   13   34 1
  29   14   35 1
  30   14   36 1
  31   15   16 2
  32   15   37 1
  33   16   17 1
  34   17   21 1
  35   21   22 1
  36   21   23 2
  37   22   24 1
  38   24   25 1
  39   24   26 1
  40   24   27 1
  41   25   38 1
  42   25   39 1
  43   25   40 1
  44   26   41 1
  45   26   42 1
  46   26   43 1
  47   27   44 1
  48   27   45 1
  49   27   46 1

#	End of record

