#	Name: ASD01913656
#	Creating user name:	WinNT
#	Creation time:	15. 06. 2019 20:02

#	Modifying user name:	WinNT
#	Modification time:	15. 06. 2019 20:02

#	Program:	/corina/corina34_cracker 3.40 0067  02.08.2006

@<TRIPOS>MOLECULE
ASD01913656
  41   43    0    0    0
SMALL
NO_CHARGES


@<TRIPOS>ATOM
   1 C1            -0.0167     1.3802     0.0096 C.ar    
   2 C2             0.0021    -0.0041     0.0020 C.ar    
   3 C3            -1.1857    -0.7109     0.0095 C.ar    
   4 C4            -2.3920    -0.0361     0.0242 C.ar    
   5 C5            -2.4120     1.3464     0.0318 C.ar    
   6 C6            -1.2257     2.0550     0.0306 C.ar    
   7 C7            -3.7279     2.0806     0.0472 C.3     
   8 O8            -4.1321     2.3054     1.3993 O.3     
   9 C9            -5.3036     2.9589     1.5906 C.ar    
  10 N10           -6.0096     3.3533     0.5422 N.ar    
  11 C11           -7.1534     3.9914     0.6762 C.ar    
  12 C12           -7.6642     4.2762     1.9429 C.ar    
  13 C13           -6.9407     3.8720     3.0748 C.ar    
  14 C14           -5.7503     3.2009     2.8863 C.ar    
  15 C15           -8.9465     4.9927     2.0899 C.2     
  16 N16           -9.6331     5.3768     0.9956 N.am    
  17 O17           -9.3832     5.2362     3.1981 O.2     
  18 F18            1.1437     2.0720     0.0023 F       
  19 C19          -10.9056     6.0878     1.1414 C.3     
  20 C20          -11.4652     6.4010    -0.2224 C.ar    
  21 C21          -12.3852     5.5445    -0.7962 C.ar    
  22 C22          -12.8940     5.8419    -2.0515 C.ar    
  23 C23          -12.4561     6.9947    -2.6848 C.ar    
  24 C24          -11.5335     7.8037    -2.0484 C.ar    
  25 N25          -11.0752     7.4923    -0.8520 N.ar    
  26 H26            0.9445    -0.5315    -0.0101 H       
  27 H27           -1.1713    -1.7907     0.0036 H       
  28 H28           -3.3196    -0.5892     0.0293 H       
  29 H29           -1.2416     3.1349     0.0368 H       
  30 H30           -3.6161     3.0376    -0.4625 H       
  31 H31           -4.4833     1.4831    -0.4632 H       
  32 H32           -7.7013     4.2975    -0.2027 H       
  33 H33           -7.3088     4.0773     4.0692 H       
  34 H34           -5.1672     2.8745     3.7347 H       
  35 H35           -9.2846     5.1825     0.1114 H       
  36 H36          -11.6108     5.4621     1.6885 H       
  37 H37          -10.7426     7.0159     1.6892 H       
  38 H38          -12.7038     4.6545    -0.2739 H       
  39 H39          -13.6140     5.1907    -2.5247 H       
  40 H40          -12.8309     7.2573    -3.6630 H       
  41 H41          -11.1870     8.7034    -2.5352 H       
@<TRIPOS>BOND
   1    1    2 ar
   2    1   18 1
   3    1    6 ar
   4    2    3 ar
   5    2   26 1
   6    3    4 ar
   7    3   27 1
   8    4    5 ar
   9    4   28 1
  10    5    6 ar
  11    5    7 1
  12    6   29 1
  13    7    8 1
  14    7   30 1
  15    7   31 1
  16    8    9 1
  17    9   10 ar
  18    9   14 ar
  19   10   11 ar
  20   11   12 ar
  21   11   32 1
  22   12   13 ar
  23   12   15 1
  24   13   14 ar
  25   13   33 1
  26   14   34 1
  27   15   16 am
  28   15   17 2
  29   16   19 1
  30   16   35 1
  31   19   20 1
  32   19   36 1
  33   19   37 1
  34   20   21 ar
  35   20   25 ar
  36   21   22 ar
  37   21   38 1
  38   22   23 ar
  39   22   39 1
  40   23   24 ar
  41   23   40 1
  42   24   25 ar
  43   24   41 1

#	End of record

