#	Name: ASD03110023
#	Creating user name:	WinNT
#	Creation time:	15. 06. 2019 20:33

#	Modifying user name:	WinNT
#	Modification time:	15. 06. 2019 20:33

#	Program:	/corina/corina34_cracker 3.40 0067  02.08.2006

@<TRIPOS>MOLECULE
ASD03110023
  44   47    0    0    0
SMALL
NO_CHARGES


@<TRIPOS>ATOM
   1 C1            -0.0167     1.3837     0.0096 C.ar    
   2 C2             0.0021    -0.0041     0.0020 C.ar    
   3 C3             1.2033    -0.6765    -0.0126 C.ar    
   4 C4             2.4013     0.0355    -0.0202 C.ar    
   5 C5             2.3914     1.4362    -0.0130 C.ar    
   6 C6             1.1424     2.0967     0.0024 C.ar    
   7 S7             4.0773    -0.5072    -0.0395 S.3     
   8 C8             4.6287     1.1626    -0.0366 C.2     
   9 N9             3.6194     1.9666    -0.0225 N.2     
  10 C10            6.0454     1.5847    -0.0478 C.ar    
  11 C11            6.3691     2.9433    -0.0442 C.ar    
  12 C12            7.0599     0.6248    -0.0560 C.ar    
  13 C13            8.3792     1.0176    -0.0655 C.ar    
  14 C14            8.7033     2.3767    -0.0673 C.ar    
  15 C15            7.6882     3.3367    -0.0546 C.ar    
  16 C16           10.1190     2.7985    -0.0770 C.2     
  17 O17           11.0026     1.9628    -0.0834 O.2     
  18 N18           10.4315     4.1096    -0.0788 N.am    
  19 N19           11.7742     4.5096    -0.0880 N.2     
  20 C20           12.0754     5.7734    -0.0897 C.2     
  21 C21           13.4858     6.1936    -0.0993 C.ar    
  22 C22           13.8149     7.5568    -0.1012 C.ar    
  23 C23           14.5073     5.2329    -0.1008 C.ar    
  24 C24           15.8309     5.6357    -0.1094 C.ar    
  25 C25           16.1488     6.9871    -0.1165 C.ar    
  26 C26           15.1430     7.9441    -0.1098 C.ar    
  27 O27           12.8325     8.4943    -0.0950 O.3     
  28 O28           14.1982     3.9106    -0.0934 O.3     
  29 O29           17.4505     7.3750    -0.1250 O.3     
  30 H30           -0.9630     1.9042     0.0169 H       
  31 H31           -0.9259    -0.5566     0.0079 H       
  32 H32            1.2173    -1.7564    -0.0178 H       
  33 H33            1.1074     3.1761     0.0082 H       
  34 H34            5.5845     3.6854    -0.0337 H       
  35 H35            6.8093    -0.4257    -0.0546 H       
  36 H36            9.1636     0.2753    -0.0712 H       
  37 H37            7.9385     4.3873    -0.0560 H       
  38 H38            9.7269     4.7761    -0.0737 H       
  39 H39           11.2908     6.5155    -0.0840 H       
  40 H40           16.6187     4.8970    -0.1102 H       
  41 H41           15.3981     8.9935    -0.1157 H       
  42 H42           12.5533     8.7657     0.7902 H       
  43 H43           14.1038     3.5238    -0.9746 H       
  44 H44           17.8228     7.4837    -1.0108 H       
@<TRIPOS>BOND
   1    1    2 ar
   2    1    6 ar
   3    1   30 1
   4    2    3 ar
   5    2   31 1
   6    3    4 ar
   7    3   32 1
   8    4    5 ar
   9    4    7 1
  10    5    6 ar
  11    5    9 1
  12    6   33 1
  13    7    8 1
  14    8    9 2
  15    8   10 1
  16   10   11 ar
  17   10   12 ar
  18   11   15 ar
  19   11   34 1
  20   12   13 ar
  21   12   35 1
  22   13   14 ar
  23   13   36 1
  24   14   15 ar
  25   14   16 1
  26   15   37 1
  27   16   17 2
  28   16   18 am
  29   18   19 1
  30   18   38 1
  31   19   20 2
  32   20   21 1
  33   20   39 1
  34   21   22 ar
  35   21   23 ar
  36   22   27 1
  37   22   26 ar
  38   23   24 ar
  39   23   28 1
  40   24   25 ar
  41   24   40 1
  42   25   26 ar
  43   25   29 1
  44   26   41 1
  45   27   42 1
  46   28   43 1
  47   29   44 1

#	End of record

