#	Name: ASD08150153
#	Creating user name:	WinNT
#	Creation time:	15. 06. 2019 21:15

#	Modifying user name:	WinNT
#	Modification time:	15. 06. 2019 21:15

#	Program:	/corina/corina34_cracker 3.40 0067  02.08.2006

@<TRIPOS>MOLECULE
ASD08150153
  56   58    0    0    0
SMALL
NO_CHARGES


@<TRIPOS>ATOM
   1 O1             1.1969    -0.6952     2.1881 O.3     
   2 C2             1.6185    -1.9408     1.9431 C.2     
   3 N3             2.7831    -1.9988     1.2826 N.am    
   4 C4             3.2519    -0.6289     1.0234 C.3     
   5 C5             2.1575     0.2579     1.6481 C.3     
   6 O6             1.0022    -2.9295     2.2884 O.2     
   7 C7             1.5013     1.1334     0.5786 C.3     
   8 C8             2.7417     1.1228     2.7668 C.3     
   9 C9             3.3574    -0.3726    -0.4813 C.3     
  10 O10            4.3902    -1.1919    -1.0328 O.3     
  11 Si11           4.5666    -1.0400    -2.6471 Si      
  12 C12            5.5373    -2.4933    -3.3068 C.ar    
  13 C13            5.0008    -3.2880    -4.3025 C.ar    
  14 C14            5.7191    -4.3634    -4.7907 C.ar    
  15 C15            6.9741    -4.6438    -4.2835 C.ar    
  16 C16            7.5110    -3.8485    -3.2885 C.ar    
  17 C17            6.7945    -2.7705    -2.8033 C.ar    
  18 C18            2.8833    -0.9968    -3.4560 C.ar    
  19 C19            2.2098    -2.1761    -3.7137 C.ar    
  20 C20            0.9642    -2.1441    -4.3123 C.ar    
  21 C21            0.3920    -0.9327    -4.6528 C.ar    
  22 C22            1.0651     0.2467    -4.3943 C.ar    
  23 C23            2.3088     0.2148    -3.7917 C.ar    
  24 C24            5.4786     0.5396    -3.0263 C.3     
  25 C25            6.9542     0.3780    -2.6559 C.3     
  26 C26            5.3587     0.8519    -4.5193 C.3     
  27 C27            4.8718     1.6862    -2.2151 C.3     
  28 H28            3.2420    -2.8115     1.0186 H       
  29 H29            4.2111    -0.4538     1.5108 H       
  30 H30            0.6845     1.7009     1.0246 H       
  31 H31            2.2404     1.8215     0.1686 H       
  32 H32            1.1113     0.5013    -0.2192 H       
  33 H33            3.2235     0.4834     3.5065 H       
  34 H34            3.4760     1.8111     2.3482 H       
  35 H35            1.9419     1.6902     3.2427 H       
  36 H36            2.4078    -0.6147    -0.9585 H       
  37 H37            3.5943     0.6770    -0.6554 H       
  38 H38            4.0203    -3.0690    -4.6988 H       
  39 H39            5.2997    -4.9848    -5.5682 H       
  40 H40            7.5351    -5.4845    -4.6645 H       
  41 H41            8.4914    -4.0678    -2.8920 H       
  42 H42            7.2154    -2.1470    -2.0285 H       
  43 H43            2.6569    -3.1226    -3.4476 H       
  44 H44            0.4383    -3.0656    -4.5143 H       
  45 H45           -0.5809    -0.9078    -5.1212 H       
  46 H46            0.6181     1.1931    -4.6607 H       
  47 H47            2.8331     1.1365    -3.5864 H       
  48 H48            7.3696    -0.4802    -3.1843 H       
  49 H49            7.5005     1.2779    -2.9387 H       
  50 H50            7.0440     0.2212    -1.5810 H       
  51 H51            4.3207     1.0814    -4.7603 H       
  52 H52            5.9863     1.7092    -4.7627 H       
  53 H53            5.6836    -0.0124    -5.0985 H       
  54 H54            5.0847     1.5350    -1.1568 H       
  55 H55            5.3054     2.6314    -2.5415 H       
  56 H56            3.7929     1.7089    -2.3690 H       
@<TRIPOS>BOND
   1    1    2 1
   2    1    5 1
   3    2    3 am
   4    2    6 2
   5    3    4 1
   6    3   28 1
   7    4    5 1
   8    4    9 1
   9    4   29 1
  10    5    7 1
  11    5    8 1
  12    7   30 1
  13    7   31 1
  14    7   32 1
  15    8   33 1
  16    8   34 1
  17    8   35 1
  18    9   10 1
  19    9   36 1
  20    9   37 1
  21   10   11 1
  22   11   12 1
  23   11   18 1
  24   11   24 1
  25   12   13 ar
  26   12   17 ar
  27   13   14 ar
  28   13   38 1
  29   14   15 ar
  30   14   39 1
  31   15   16 ar
  32   15   40 1
  33   16   17 ar
  34   16   41 1
  35   17   42 1
  36   18   19 ar
  37   18   23 ar
  38   19   20 ar
  39   19   43 1
  40   20   21 ar
  41   20   44 1
  42   21   22 ar
  43   21   45 1
  44   22   23 ar
  45   22   46 1
  46   23   47 1
  47   24   25 1
  48   24   27 1
  49   24   26 1
  50   25   48 1
  51   25   49 1
  52   25   50 1
  53   26   51 1
  54   26   52 1
  55   26   53 1
  56   27   54 1
  57   27   55 1
  58   27   56 1

#	End of record

