#	Name: ASD08170078
#	Creating user name:	WinNT
#	Creation time:	15. 06. 2019 21:17

#	Modifying user name:	WinNT
#	Modification time:	15. 06. 2019 21:17

#	Program:	/corina/corina34_cracker 3.40 0067  02.08.2006

@<TRIPOS>MOLECULE
ASD08170078
  66   69    0    0    0
SMALL
NO_CHARGES


@<TRIPOS>ATOM
   1 N1            -0.0150     1.2583     0.0090 N.2     
   2 N2             0.0021    -0.0041     0.0020 N.2     
   3 C3             1.1271     1.8769     0.0014 C.2     
   4 S4             2.3826     0.7116    -0.0169 S.3     
   5 C5             1.1681    -0.5677    -0.0121 C.2     
   6 C6             1.4387    -2.0502    -0.0227 C.3     
   7 C7             1.5165    -2.5442    -1.4687 C.3     
   8 C8             1.8690    -4.5432    -2.9254 C.3     
   9 C9             2.1395    -6.0257    -2.9359 C.2     
  10 N10            1.2478    -6.9651    -2.9329 N.2     
  11 S11            3.7275    -6.7933    -2.9623 S.3     
  12 C12            2.9647    -8.3272    -2.9581 C.2     
  13 N13            1.6777    -8.1521    -2.9433 N.2     
  14 N14            3.6154    -9.5562    -2.9730 N.am    
  15 C15            2.8993   -10.6980    -2.9678 C.2     
  16 O16            1.6874   -10.6536    -2.9501 O.2     
  17 C17            3.6044   -12.0297    -2.9839 C.3     
  18 N18            1.3017     3.2566     0.0067 N.am    
  19 C19            0.2284     4.0717     0.0214 C.2     
  20 C20            0.4176     5.5667     0.0272 C.3     
  21 O21           -0.8897     3.6019     0.0299 O.2     
  22 C22            1.7912    -4.0493    -1.4794 C.3     
  23 C23            2.5684   -13.1555    -2.9740 C.3     
  24 C24           -0.9494     6.2538     0.0441 C.3     
  25 O25            1.8446   -13.1259    -1.7422 O.3     
  26 O26           -1.6426     5.9651    -1.1717 O.3     
  27 C27           -0.7614     7.7434     0.1737 C.ar    
  28 C28            3.2677   -14.4831    -3.1138 C.ar    
  29 C29            3.4028   -15.0652    -4.3603 C.ar    
  30 C30            4.0443   -16.2829    -4.4886 C.ar    
  31 C31            4.5511   -16.9184    -3.3705 C.ar    
  32 C32            4.4168   -16.3358    -2.1241 C.ar    
  33 C33            3.7792   -15.1160    -1.9964 C.ar    
  34 C34           -0.8136     8.3408     1.4191 C.ar    
  35 C35           -0.5310     8.5115    -0.9523 C.ar    
  36 C36           -0.3585     9.8779    -0.8334 C.ar    
  37 C37           -0.4169    10.4762     0.4113 C.ar    
  38 C38           -0.6412     9.7072     1.5380 C.ar    
  39 H39            2.3843    -2.2506     0.4811 H       
  40 H40            0.6334    -2.5702     0.4961 H       
  41 H41            0.5709    -2.3438    -1.9724 H       
  42 H42            2.3218    -2.0242    -1.9874 H       
  43 H43            2.6743    -4.0232    -3.4441 H       
  44 H44            0.9234    -4.3429    -3.4291 H       
  45 H45            4.5846    -9.5917    -2.9871 H       
  46 H46            4.2156   -12.1064    -3.8831 H       
  47 H47            4.2413   -12.1143    -2.1034 H       
  48 H48            2.1959     3.6323    -0.0001 H       
  49 H49            0.9817     5.8582     0.9132 H       
  50 H50            0.9643     5.8672    -0.8667 H       
  51 H51            2.7368    -4.2496    -0.9756 H       
  52 H52            0.9858    -4.5693    -0.9606 H       
  53 H53            1.8765   -13.0200    -3.8053 H       
  54 H54           -1.5304     5.8859     0.8897 H       
  55 H55            2.3983   -13.2408    -0.9578 H       
  56 H56           -1.1824     6.2650    -1.9676 H       
  57 H57            3.0069   -14.5687    -5.2339 H       
  58 H58            4.1492   -16.7381    -5.4624 H       
  59 H59            5.0516   -17.8701    -3.4706 H       
  60 H60            4.8125   -16.8324    -1.2505 H       
  61 H61            3.6743   -14.6609    -1.0226 H       
  62 H62           -0.9895     7.7402     2.2993 H       
  63 H63           -0.4854     8.0440    -1.9248 H       
  64 H64           -0.1779    10.4779    -1.7131 H       
  65 H65           -0.2818    11.5437     0.5043 H       
  66 H66           -0.6868    10.1747     2.5105 H       
@<TRIPOS>BOND
   1    1    2 1
   2    1    3 2
   3    2    5 2
   4    3    4 1
   5    3   18 1
   6    4    5 1
   7    5    6 1
   8    6    7 1
   9    6   39 1
  10    6   40 1
  11    7   22 1
  12    7   41 1
  13    7   42 1
  14    8    9 1
  15    8   22 1
  16    8   43 1
  17    8   44 1
  18    9   10 2
  19    9   11 1
  20   10   13 1
  21   11   12 1
  22   12   13 2
  23   12   14 1
  24   14   15 am
  25   14   45 1
  26   15   16 2
  27   15   17 1
  28   17   23 1
  29   17   46 1
  30   17   47 1
  31   18   19 am
  32   18   48 1
  33   19   20 1
  34   19   21 2
  35   20   24 1
  36   20   49 1
  37   20   50 1
  38   22   51 1
  39   22   52 1
  40   23   25 1
  41   23   28 1
  42   23   53 1
  43   24   26 1
  44   24   27 1
  45   24   54 1
  46   25   55 1
  47   26   56 1
  48   27   34 ar
  49   27   35 ar
  50   28   29 ar
  51   28   33 ar
  52   29   30 ar
  53   29   57 1
  54   30   31 ar
  55   30   58 1
  56   31   32 ar
  57   31   59 1
  58   32   33 ar
  59   32   60 1
  60   33   61 1
  61   34   38 ar
  62   34   62 1
  63   35   36 ar
  64   35   63 1
  65   36   37 ar
  66   36   64 1
  67   37   38 ar
  68   37   65 1
  69   38   66 1

#	End of record

