#	Name: ASD01230178
#	Creating user name:	WinNT
#	Creation time:	15. 06. 2019 19:11

#	Modifying user name:	WinNT
#	Modification time:	15. 06. 2019 19:11

#	Program:	/corina/corina34_cracker 3.40 0067  02.08.2006

@<TRIPOS>MOLECULE
ASD01230178
  29   30    0    0    0
SMALL
NO_CHARGES


@<TRIPOS>ATOM
   1 C1            -0.0166     1.3749     0.0096 C.ar    
   2 C2             0.0021    -0.0041     0.0020 C.ar    
   3 C3            -1.1775    -0.7337     0.0180 C.ar    
   4 C4            -2.3905    -0.0381     0.0169 C.ar    
   5 C5            -2.4081     1.3394     0.0229 C.ar    
   6 C6            -1.2229     2.0534     0.0305 C.ar    
   7 S7             1.5546    -0.8521    -0.0482 S.o2    
   8 N8             1.1372    -2.4613     0.1220 N.am    
   9 C9            -0.1229    -2.8453    -0.5489 C.3     
  10 N10           -1.2320    -2.1204     0.0566 N.3     
  11 Cl11          -1.2487     3.7891     0.0529 Cl      
  12 C12           -1.4915    -2.5992     1.4209 C.3     
  13 C13           -0.0363    -2.4966    -2.0361 C.3     
  14 C14            1.9548    -3.4153     0.8755 C.3     
  15 O15            2.0691    -0.6953    -1.3635 O.2     
  16 O16            2.2656    -0.4829     1.1254 O.2     
  17 H17            0.9119     1.9264     0.0037 H       
  18 H18           -3.3215    -0.5854     0.0108 H       
  19 H19           -3.3518     1.8646     0.0300 H       
  20 H20           -0.2834    -3.9175    -0.4354 H       
  21 H21           -2.4093    -2.1466     1.7964 H       
  22 H22           -1.5990    -3.6839     1.4110 H       
  23 H23           -0.6589    -2.3225     2.0677 H       
  24 H24            0.7952    -3.0372    -2.4883 H       
  25 H25           -0.9656    -2.7799    -2.5304 H       
  26 H26            0.1231    -1.4243    -2.1492 H       
  27 H27            2.8306    -2.9054     1.2771 H       
  28 H28            1.3676    -3.8291     1.6953 H       
  29 H29            2.2746    -4.2210     0.2148 H       
@<TRIPOS>BOND
   1    1    2 ar
   2    1   17 1
   3    1    6 ar
   4    2    7 1
   5    2    3 ar
   6    3   10 1
   7    3    4 ar
   8    4   18 1
   9    4    5 ar
  10    5    6 ar
  11    5   19 1
  12    6   11 1
  13    7    8 am
  14    7   16 2
  15    7   15 2
  16    8    9 1
  17    8   14 1
  18    9   13 1
  19    9   20 1
  20    9   10 1
  21   10   12 1
  22   12   21 1
  23   12   22 1
  24   12   23 1
  25   13   24 1
  26   13   25 1
  27   13   26 1
  28   14   27 1
  29   14   28 1
  30   14   29 1

#	End of record

