#	Name: ASD02440024
#	Creating user name:	WinNT
#	Creation time:	15. 06. 2019 20:21

#	Modifying user name:	WinNT
#	Modification time:	15. 06. 2019 20:21

#	Program:	/corina/corina34_cracker 3.40 0067  02.08.2006

@<TRIPOS>MOLECULE
ASD02440024
  87   91    0    0    0
SMALL
NO_CHARGES


@<TRIPOS>ATOM
   1 C1             1.4697     2.8651     0.3475 C.3     
   2 C2             0.6694     1.6819    -0.1871 C.3     
   3 C3             0.6867     0.5071     0.7970 C.3     
   4 C4             2.1006     0.1740     1.2212 C.3     
   5 C5             2.9373     1.3524     1.7053 C.3     
   6 C6             2.9114     2.4413     0.6157 C.3     
   7 C7             2.1682    -0.9572     2.2449 C.3     
   8 C8             3.6155    -1.4805     2.2418 C.3     
   9 C9             4.5806    -0.3815     2.6771 C.3     
  10 C10            4.3891     0.8946     1.8672 C.3     
  11 C11            6.0297    -0.8536     2.5427 C.3     
  12 C12            7.0065     0.2925     2.5886 C.2     
  13 C13            6.6657     1.5451     2.5623 C.2     
  14 C14            5.2371     2.0132     2.4776 C.3     
  15 C15            6.3763    -1.9171     3.5764 C.3     
  16 C16            7.8678    -2.2627     3.5641 C.3     
  17 C17            8.7093    -1.0066     3.8049 C.3     
  18 C18            8.4851    -0.0563     2.6278 C.3     
  19 C19           10.1877    -1.3818     3.8883 C.3     
  20 C20           11.0522    -0.1321     4.0273 C.3     
  21 C21           10.8179     0.8361     2.8700 C.3     
  22 C22            9.3344     1.1967     2.7696 C.3     
  23 C23           11.6176     2.1204     3.1348 C.3     
  24 C24           11.3047     0.2205     1.5593 C.3     
  25 C25            8.2829    -0.3595     5.0950 C.2     
  26 O26            8.3745    -1.0389     6.2490 O.3     
  27 C27            6.2022    -1.4951     1.1565 C.3     
  28 C28            4.3308    -0.0983     4.1690 C.3     
  29 C29            2.4059     1.9718     2.9922 C.3     
  30 C30           -0.2554     0.7782     1.9644 C.3     
  31 C31            0.1161    -0.7081     0.0243 C.3     
  32 O32           -0.6856     2.0853    -0.4071 O.3     
  33 C33           -0.9342     2.5970    -1.7180 C.3     
  34 O34            7.8580     0.7716     5.0919 O.2     
  35 C35           -2.4065     2.9949    -1.8394 C.3     
  36 H36            1.4771     3.6553    -0.4170 H       
  37 H37            1.0046     3.2732     1.2381 H       
  38 H38            1.0986     1.3533    -1.1376 H       
  39 H39            2.6192    -0.2115     0.3084 H       
  40 H40            3.3533     2.0391    -0.2956 H       
  41 H41            3.4889     3.2989     0.9574 H       
  42 H42            1.8885    -0.6265     3.2342 H       
  43 H43            1.5162    -1.7814     1.9463 H       
  44 H44            3.6802    -2.3220     2.9337 H       
  45 H45            3.8138    -1.8285     1.2312 H       
  46 H46            4.7764     0.7133     0.8452 H       
  47 H47            7.4340     2.3028     2.6009 H       
  48 H48            5.2035     2.8882     1.8176 H       
  49 H49            4.9009     2.3074     3.4623 H       
  50 H50            6.0960    -1.6501     4.5876 H       
  51 H51            5.8205    -2.8362     3.3209 H       
  52 H52            8.0724    -2.9787     4.3664 H       
  53 H53            8.1477    -2.7122     2.6147 H       
  54 H54            8.7454    -0.5728     1.6977 H       
  55 H55           10.3384    -2.0193     4.7677 H       
  56 H56           10.4734    -1.9480     3.0033 H       
  57 H57           10.8482     0.3712     4.9719 H       
  58 H58           12.1086    -0.4296     4.0271 H       
  59 H59            9.1914     1.8279     1.8820 H       
  60 H60            9.0372     1.7716     3.6457 H       
  61 H61           12.6781     1.8795     3.2077 H       
  62 H62           11.4598     2.8220     2.3156 H       
  63 H63           11.2823     2.5711     4.0689 H       
  64 H64           10.7592    -0.7035     1.3671 H       
  65 H65           11.1318     0.9211     0.7424 H       
  66 H66           12.3706     0.0044     1.6331 H       
  67 H67            8.0886    -0.5815     7.0516 H       
  68 H68            5.9758    -0.7593     0.3849 H       
  69 H69            7.2301    -1.8388     1.0406 H       
  70 H70            5.5229    -2.3423     1.0612 H       
  71 H71            4.5717    -0.9868     4.7528 H       
  72 H72            4.9609     0.7304     4.4919 H       
  73 H73            3.2831     0.1620     4.3190 H       
  74 H74            2.1768     1.1822     3.7079 H       
  75 H75            3.1598     2.6366     3.4138 H       
  76 H76            1.5010     2.5395     2.7756 H       
  77 H77           -1.2843     0.7927     1.6050 H       
  78 H78           -0.1427    -0.0069     2.7121 H       
  79 H79           -0.0127     1.7425     2.4107 H       
  80 H80            0.7424    -0.9132    -0.8439 H       
  81 H81            0.1034    -1.5806     0.6774 H       
  82 H82           -0.8990    -0.4855    -0.3044 H       
  83 H83           -0.3062     3.4708    -1.8921 H       
  84 H84           -0.7028     1.8302    -2.4573 H       
  85 H85           -3.0345     2.1211    -1.6653 H       
  86 H86           -2.6379     3.7617    -1.1001 H       
  87 H87           -2.5962     3.3852    -2.8393 H       
@<TRIPOS>BOND
   1    1    2 1
   2    1    6 1
   3    1   36 1
   4    1   37 1
   5    2    3 1
   6    2   32 1
   7    2   38 1
   8    3    4 1
   9    3   30 1
  10    3   31 1
  11    4    5 1
  12    4    7 1
  13    4   39 1
  14    5    6 1
  15    5   29 1
  16    5   10 1
  17    6   40 1
  18    6   41 1
  19    7    8 1
  20    7   42 1
  21    7   43 1
  22    8    9 1
  23    8   44 1
  24    8   45 1
  25    9   10 1
  26    9   11 1
  27    9   28 1
  28   10   14 1
  29   10   46 1
  30   11   12 1
  31   11   15 1
  32   11   27 1
  33   12   13 2
  34   12   18 1
  35   13   14 1
  36   13   47 1
  37   14   48 1
  38   14   49 1
  39   15   16 1
  40   15   50 1
  41   15   51 1
  42   16   17 1
  43   16   52 1
  44   16   53 1
  45   17   18 1
  46   17   19 1
  47   17   25 1
  48   18   22 1
  49   18   54 1
  50   19   20 1
  51   19   55 1
  52   19   56 1
  53   20   21 1
  54   20   57 1
  55   20   58 1
  56   21   22 1
  57   21   23 1
  58   21   24 1
  59   22   59 1
  60   22   60 1
  61   23   61 1
  62   23   62 1
  63   23   63 1
  64   24   64 1
  65   24   65 1
  66   24   66 1
  67   25   26 1
  68   25   34 2
  69   26   67 1
  70   27   68 1
  71   27   69 1
  72   27   70 1
  73   28   71 1
  74   28   72 1
  75   28   73 1
  76   29   74 1
  77   29   75 1
  78   29   76 1
  79   30   77 1
  80   30   78 1
  81   30   79 1
  82   31   80 1
  83   31   81 1
  84   31   82 1
  85   32   33 1
  86   33   35 1
  87   33   83 1
  88   33   84 1
  89   35   85 1
  90   35   86 1
  91   35   87 1

#	End of record

