#	Name: ASD02508402
#	Creating user name:	WinNT
#	Creation time:	15. 06. 2019 20:24

#	Modifying user name:	WinNT
#	Modification time:	15. 06. 2019 20:24

#	Program:	/corina/corina34_cracker 3.40 0067  02.08.2006

@<TRIPOS>MOLECULE
ASD02508402
  32   34    0    0    0
SMALL
NO_CHARGES


@<TRIPOS>ATOM
   1 N1             0.5502     1.4557     0.6081 N.2     
   2 C2             0.4172     0.1206     0.6116 C.2     
   3 C3             1.5686    -0.4186     0.1704 C.2     
   4 N4             2.4160     0.6252    -0.1054 N.pl3   
   5 C5             1.7418     1.7711     0.1812 C.2     
   6 C6             3.7211     0.5290    -0.5876 C.ar    
   7 N7             4.4124     1.6364    -0.8040 N.ar    
   8 N8             4.2395    -0.6674    -0.8125 N.ar    
   9 C9             5.4742    -0.7947    -1.2697 C.ar    
  10 C10            6.2254     0.3445    -1.5129 C.ar    
  11 C11            5.6525     1.5813    -1.2609 C.ar    
  12 S12            1.9207    -2.1349    -0.0167 S.o2    
  13 O13            1.6532    -2.4536    -1.3754 O.2     
  14 O14            3.1821    -2.3552     0.5994 O.2     
  15 N15            0.8080    -2.9649     0.8861 N.am    
  16 C16            0.7639    -2.7922     2.2729 C.ar    
  17 C17           -0.4532    -2.5887     2.9100 C.ar    
  18 C18           -0.4944    -2.4187     4.2801 C.ar    
  19 C19            0.6766    -2.4511     5.0184 C.ar    
  20 C20            1.8912    -2.6538     4.3852 C.ar    
  21 C21            1.9366    -2.8295     3.0160 C.ar    
  22 F22            0.6340    -2.2841     6.3583 F       
  23 H23           -0.4624    -0.4271     0.9164 H       
  24 H24            2.1280     2.7739     0.0731 H       
  25 H25            5.8919    -1.7741    -1.4509 H       
  26 H26            7.2361     0.2701    -1.8863 H       
  27 H27            6.2101     2.4888    -1.4395 H       
  28 H28            0.1868    -3.5710     0.4529 H       
  29 H29           -1.3667    -2.5630     2.3346 H       
  30 H30           -1.4406    -2.2601     4.7760 H       
  31 H31            2.8034    -2.6784     4.9629 H       
  32 H32            2.8842    -2.9877     2.5226 H       
@<TRIPOS>BOND
   1    1    2 1
   2    1    5 2
   3    2    3 2
   4    2   23 1
   5    3    4 1
   6    3   12 1
   7    4    5 1
   8    4    6 1
   9    5   24 1
  10    6    7 ar
  11    6    8 ar
  12    7   11 ar
  13    8    9 ar
  14    9   10 ar
  15    9   25 1
  16   10   11 ar
  17   10   26 1
  18   11   27 1
  19   12   13 2
  20   12   14 2
  21   12   15 am
  22   15   16 1
  23   15   28 1
  24   16   17 ar
  25   16   21 ar
  26   17   18 ar
  27   17   29 1
  28   18   19 ar
  29   18   30 1
  30   19   20 ar
  31   19   22 1
  32   20   21 ar
  33   20   31 1
  34   21   32 1

#	End of record

