#	Name: ASD01328029
#	Creating user name:	WinNT
#	Creation time:	15. 06. 2019 19:16

#	Modifying user name:	WinNT
#	Modification time:	15. 06. 2019 19:16

#	Program:	/corina/corina34_cracker 3.40 0067  02.08.2006

@<TRIPOS>MOLECULE
ASD01328029
  41   42    0    0    0
SMALL
NO_CHARGES


@<TRIPOS>ATOM
   1 N1            -0.0162     1.3436     0.0094 N.am    
   2 C2             0.0021    -0.0041     0.0020 C.2     
   3 O3             1.0628    -0.5974    -0.0113 O.2     
   4 N4            -1.1558    -0.6938     0.0094 N.am    
   5 C5            -1.1360    -2.1586     0.0013 C.3     
   6 C6            -2.3032    -2.6896     0.8375 C.3     
   7 O7            -2.1495    -2.2680     2.1942 O.3     
   8 C8            -2.3113    -4.2201     0.7749 C.3     
   9 O9            -3.4406    -4.7220     1.4924 O.3     
  10 C10           -2.3981    -4.6598    -0.6898 C.3     
  11 O11           -2.3333    -6.0854    -0.7651 O.3     
  12 C12           -1.2271    -4.0527    -1.4670 C.3     
  13 O13           -1.2611    -2.6295    -1.3421 O.3     
  14 C14           -1.3401    -4.4381    -2.9434 C.3     
  15 O15           -0.1877    -3.9705    -3.6472 O.3     
  16 C16            1.1417     2.0332     0.0021 C.2     
  17 C17            1.1217     3.5108     0.0102 C.ar    
  18 C18            2.3193     4.2283     0.0026 C.ar    
  19 C19            2.2934     5.6075     0.0103 C.ar    
  20 C20            1.0841     6.2798     0.0260 C.ar    
  21 C21           -0.1065     5.5748     0.0340 C.ar    
  22 C22           -0.0950     4.1955     0.0197 C.ar    
  23 O23            2.2021     1.4401    -0.0112 O.2     
  24 H24           -0.8627     1.8171     0.0160 H       
  25 H25           -2.0023    -0.2203     0.0200 H       
  26 H26           -0.1955    -2.5119     0.4243 H       
  27 H27           -3.2416    -2.3030     0.4400 H       
  28 H28           -2.1312    -1.3079     2.3080 H       
  29 H29           -1.3949    -4.6081     1.2197 H       
  30 H30           -3.4540    -4.4752     2.4273 H       
  31 H31           -3.3390    -4.3148    -1.1186 H       
  32 H32           -3.0438    -6.5370    -0.2895 H       
  33 H33           -0.2879    -4.4307    -1.0633 H       
  34 H34           -1.4046    -5.5226    -3.0318 H       
  35 H35           -2.2350    -3.9849    -3.3698 H       
  36 H36           -0.1916    -4.1801    -4.5913 H       
  37 H37            3.2638     3.7048    -0.0089 H       
  38 H38            3.2191     6.1638     0.0045 H       
  39 H39            1.0695     7.3597     0.0323 H       
  40 H40           -1.0469     6.1057     0.0466 H       
  41 H41           -1.0251     3.6464     0.0212 H       
@<TRIPOS>BOND
   1    1    2 am
   2    1   16 am
   3    1   24 1
   4    2    3 2
   5    2    4 am
   6    4    5 1
   7    4   25 1
   8    5    6 1
   9    5   13 1
  10    5   26 1
  11    6    7 1
  12    6    8 1
  13    6   27 1
  14    7   28 1
  15    8    9 1
  16    8   10 1
  17    8   29 1
  18    9   30 1
  19   10   11 1
  20   10   12 1
  21   10   31 1
  22   11   32 1
  23   12   13 1
  24   12   14 1
  25   12   33 1
  26   14   15 1
  27   14   34 1
  28   14   35 1
  29   15   36 1
  30   16   17 1
  31   16   23 2
  32   17   18 ar
  33   17   22 ar
  34   18   19 ar
  35   18   37 1
  36   19   20 ar
  37   19   38 1
  38   20   21 ar
  39   20   39 1
  40   21   22 ar
  41   21   40 1
  42   22   41 1

#	End of record

