#	Name: ASD02500887
#	Creating user name:	WinNT
#	Creation time:	15. 06. 2019 20:23

#	Modifying user name:	WinNT
#	Modification time:	15. 06. 2019 20:23

#	Program:	/corina/corina34_cracker 3.40 0067  02.08.2006

@<TRIPOS>MOLECULE
ASD02500887
  45   46    0    0    0
SMALL
NO_CHARGES


@<TRIPOS>ATOM
   1 S1             0.0086     1.6858     0.6195 S.3     
   2 C2             0.0078    -0.0564     0.2805 C.2     
   3 C3             1.4228    -0.4365     0.3633 C.2     
   4 N4             2.2510     0.5546     0.6479 N.am    
   5 C5             1.7649     1.7872     0.8338 C.2     
   6 S6             2.6672     3.1936     1.2064 S.2     
   7 C7            -1.0566    -0.8536     0.0082 C.2     
   8 O8             1.8053    -1.5780     0.1840 O.2     
   9 C9             3.6902     0.3045     0.7591 C.3     
  10 C10            4.3377     0.4881    -0.5893 C.2     
  11 O11            3.6659     0.7962    -1.5451 O.2     
  12 O12            5.6607     0.3093    -0.7284 O.3     
  13 C13           -2.4209    -0.3257     0.1352 C.ar    
  14 C14           -3.4799    -0.9454    -0.5398 C.ar    
  15 C15           -4.7570    -0.4462    -0.4172 C.ar    
  16 C16           -4.9962     0.6712     0.3745 C.ar    
  17 C17           -3.9488     1.2903     1.0468 C.ar    
  18 C18           -2.6687     0.7959     0.9363 C.ar    
  19 O19           -6.2576     1.1599     0.4912 O.3     
  20 C20            6.2161     0.5030    -2.0559 C.3     
  21 C21            7.7258     0.2574    -2.0180 C.3     
  22 N22            7.9846    -1.1510    -1.6902 N.3     
  23 C23            7.5133    -2.0366    -2.7633 C.3     
  24 C24            9.4098    -1.3734    -1.4119 C.3     
  25 C25           -6.4334     2.3104     1.3203 C.3     
  26 H26           -0.8999    -1.8763    -0.3018 H       
  27 H27            4.1269     1.0056     1.4704 H       
  28 H28            3.8560    -0.7155     1.1059 H       
  29 H29           -3.2950    -1.8131    -1.1557 H       
  30 H30           -5.5745    -0.9233    -0.9373 H       
  31 H31           -4.1403     2.1583     1.6602 H       
  32 H32           -1.8557     1.2774     1.4593 H       
  33 H33            5.7513    -0.1973    -2.7499 H       
  34 H34            6.0222     1.5238    -2.3855 H       
  35 H35            8.1561     0.4886    -2.9924 H       
  36 H36            8.1789     0.8961    -1.2599 H       
  37 H37            8.0324    -1.7924    -3.6901 H       
  38 H38            7.7173    -3.0731    -2.4948 H       
  39 H39            6.4405    -1.9013    -2.9011 H       
  40 H40            9.7158    -0.7560    -0.5674 H       
  41 H41            9.5736    -2.4240    -1.1722 H       
  42 H42            9.9975    -1.1052    -2.2899 H       
  43 H43           -6.1141     2.0782     2.3363 H       
  44 H44           -5.8351     3.1339     0.9306 H       
  45 H45           -7.4852     2.5965     1.3264 H       
@<TRIPOS>BOND
   1    1    2 1
   2    1    5 1
   3    2    3 1
   4    2    7 2
   5    3    4 am
   6    3    8 2
   7    4    5 am
   8    4    9 1
   9    5    6 2
  10    7   13 1
  11    7   26 1
  12    9   10 1
  13    9   27 1
  14    9   28 1
  15   10   11 2
  16   10   12 1
  17   12   20 1
  18   13   14 ar
  19   13   18 ar
  20   14   15 ar
  21   14   29 1
  22   15   16 ar
  23   15   30 1
  24   16   17 ar
  25   16   19 1
  26   17   18 ar
  27   17   31 1
  28   18   32 1
  29   19   25 1
  30   20   21 1
  31   20   33 1
  32   20   34 1
  33   21   22 1
  34   21   35 1
  35   21   36 1
  36   22   23 1
  37   22   24 1
  38   23   37 1
  39   23   38 1
  40   23   39 1
  41   24   40 1
  42   24   41 1
  43   24   42 1
  44   25   43 1
  45   25   44 1
  46   25   45 1

#	End of record

