#	Name: ASD05250098
#	Creating user name:	WinNT
#	Creation time:	15. 06. 2019 20:58

#	Modifying user name:	WinNT
#	Modification time:	15. 06. 2019 20:58

#	Program:	/corina/corina34_cracker 3.40 0067  02.08.2006

@<TRIPOS>MOLECULE
ASD05250098
  44   46    0    0    0
SMALL
NO_CHARGES


@<TRIPOS>ATOM
   1 C1            -0.0167     1.3834     0.0096 C.ar    
   2 C2             0.0021    -0.0041     0.0020 C.ar    
   3 C3             1.2007    -0.6798    -0.0126 C.ar    
   4 C4             2.4059     0.0267    -0.0199 C.ar    
   5 C5             2.3903     1.4248    -0.0127 C.ar    
   6 C6             1.1462     2.0918     0.0023 C.ar    
   7 S7             4.0674    -0.5505    -0.0384 S.3     
   8 C8             4.7072     1.0814    -0.0362 C.2     
   9 C9             3.7322     1.9819    -0.0225 C.2     
  10 C10            1.1048     3.5982     0.0103 C.3     
  11 N11            6.0644     1.3931    -0.0469 N.am    
  12 C12            6.9823     0.4064    -0.0605 C.2     
  13 C13            8.4206     0.7368    -0.0718 C.ar    
  14 C14            9.3733    -0.2852    -0.0859 C.ar    
  15 C15           10.7198     0.0270    -0.0970 C.ar    
  16 C16           11.1271     1.3584    -0.0937 C.ar    
  17 C17           10.1798     2.3787    -0.0796 C.ar    
  18 C18            8.8319     2.0720    -0.0743 C.ar    
  19 O19           11.6476    -0.9673    -0.1107 O.3     
  20 C20           11.1594    -2.3103    -0.1129 C.3     
  21 O21           12.4515     1.6626    -0.1037 O.3     
  22 C22           13.0726     1.8144    -1.3817 C.3     
  23 O23           10.5809     3.6782    -0.0764 O.3     
  24 C24            9.5557     4.6736    -0.0618 C.3     
  25 O25            6.6255    -0.7560    -0.0634 O.2     
  26 H26           -0.9619     1.9059     0.0170 H       
  27 H27           -0.9267    -0.5552     0.0080 H       
  28 H28            1.2098    -1.7598    -0.0182 H       
  29 H29            3.9214     3.0452    -0.0193 H       
  30 H30            1.0852     3.9666    -1.0153 H       
  31 H31            0.2101     3.9344     0.5343 H       
  32 H32            1.9893     3.9833     0.5178 H       
  33 H33            6.3491     2.3204    -0.0445 H       
  34 H34            9.0579    -1.3181    -0.0878 H       
  35 H35            8.0975     2.8638    -0.0638 H       
  36 H36           10.5607    -2.4807     0.7819 H       
  37 H37           10.5440    -2.4718    -0.9980 H       
  38 H38           12.0010    -3.0029    -0.1243 H       
  39 H39           14.1270     2.0555    -1.2468 H       
  40 H40           12.9815     0.8843    -1.9427 H       
  41 H41           12.5831     2.6191    -1.9303 H       
  42 H42            8.9290     4.5627    -0.9467 H       
  43 H43            8.9452     4.5533     0.8332 H       
  44 H44           10.0109     5.6640    -0.0607 H       
@<TRIPOS>BOND
   1    1    2 ar
   2    1    6 ar
   3    1   26 1
   4    2    3 ar
   5    2   27 1
   6    3    4 ar
   7    3   28 1
   8    4    5 ar
   9    4    7 1
  10    5    6 ar
  11    5    9 1
  12    6   10 1
  13    7    8 1
  14    8    9 2
  15    8   11 1
  16    9   29 1
  17   10   30 1
  18   10   31 1
  19   10   32 1
  20   11   12 am
  21   11   33 1
  22   12   13 1
  23   12   25 2
  24   13   14 ar
  25   13   18 ar
  26   14   15 ar
  27   14   34 1
  28   15   16 ar
  29   15   19 1
  30   16   17 ar
  31   16   21 1
  32   17   18 ar
  33   17   23 1
  34   18   35 1
  35   19   20 1
  36   20   36 1
  37   20   37 1
  38   20   38 1
  39   21   22 1
  40   22   39 1
  41   22   40 1
  42   22   41 1
  43   23   24 1
  44   24   42 1
  45   24   43 1
  46   24   44 1

#	End of record

