#	Name: ASD06610049
#	Creating user name:	WinNT
#	Creation time:	15. 06. 2019 21:07

#	Modifying user name:	WinNT
#	Modification time:	15. 06. 2019 21:07

#	Program:	/corina/corina34_cracker 3.40 0067  02.08.2006

@<TRIPOS>MOLECULE
ASD06610049
 235  234    0    0    0
SMALL
NO_CHARGES


@<TRIPOS>ATOM
   1 C1             0.0273     1.1700     0.0200 C.2     
   2 O2             0.0267    -0.0423    -0.0170 O.2     
   3 N3             2.4214     1.0280     0.4113 N.3     
   4 C4             1.3321     1.9238     0.0003 C.3     
   5 C5             1.6020     2.4390    -1.4148 C.3     
   6 C6             2.8609     3.3086    -1.4095 C.3     
   7 C7             3.1308     3.8239    -2.8246 C.3     
   8 N8             4.3362     4.6564    -2.8195 N.pl3   
   9 C9             4.7781     5.2330    -3.9862 C.2     
  10 N10            4.1985     4.9439    -5.1155 N.2     
  11 N11            5.8375     6.1195    -3.9607 N.am    
  12 C12           -3.5025     1.9921    -0.4569 C.2     
  13 O13           -3.2481     3.1212    -0.8194 O.2     
  14 N14           -1.1391     1.8431     0.0733 N.am    
  15 C15           -2.4077     1.1105     0.0864 C.3     
  16 C16           -2.7463     0.7027     1.5217 C.3     
  17 O17           -2.9778     1.8736     2.3075 O.3     
  18 C18           -7.1570     1.9303    -0.5189 C.2     
  19 O19           -7.2095     0.9850     0.2391 O.2     
  20 N20           -4.7643     1.5258    -0.5400 N.am    
  21 C21           -5.8286     2.3828    -1.0682 C.3     
  22 C22           -5.8491     2.2881    -2.5951 C.3     
  23 O23           -6.2045     0.9601    -2.9852 O.3     
  24 C24          -10.6786     2.5500    -1.2787 C.2     
  25 O25          -10.4107     3.1530    -2.2963 O.2     
  26 N26           -8.2867     2.5761    -0.8701 N.am    
  27 C27           -9.5780     2.1362    -0.3361 C.3     
  28 C28           -9.8099     2.7797     1.0325 C.3     
  29 C29           -8.7649     2.2623     2.0230 C.3     
  30 C30           -8.9968     2.9058     3.3916 C.3     
  31 N31           -7.9962     2.4103     4.3400 N.pl3   
  32 C32           -8.0056     2.8513     5.6422 C.2     
  33 N33           -8.9047     3.7103     6.0328 N.2     
  34 N34           -7.0665     2.3864     6.5322 N.pl3   
  35 C35          -14.3247     2.7758    -1.1450 C.2     
  36 O36          -14.3508     2.5500     0.0463 O.2     
  37 N37          -11.9606     2.2500    -0.9909 N.am    
  38 C38          -13.0306     2.6523    -1.9072 C.3     
  39 C39          -13.1842     1.5985    -3.0058 C.3     
  40 C40          -11.9141     1.5612    -3.8580 C.3     
  41 C41          -12.0655     0.5233    -4.9400 C.2     
  42 O42          -13.0846    -0.1206    -5.0212 O.2     
  43 O43          -11.0680     0.3141    -5.8136 O.3     
  44 C44          -17.8703     3.0588    -1.9889 C.2     
  45 O45          -17.6655     2.8387    -3.1639 O.2     
  46 N46          -15.4532     3.1371    -1.7873 N.am    
  47 C47          -16.7113     3.2572    -1.0463 C.3     
  48 C48          -16.8002     4.6477    -0.4143 C.3     
  49 C49          -15.6967     4.8030     0.6340 C.3     
  50 C50          -15.7857     6.1935     1.2660 C.3     
  51 C51          -14.6821     6.3488     2.3143 C.3     
  52 N52          -14.7675     7.6839     2.9211 N.3     
  53 C53          -21.4799     3.6284    -1.8933 C.2     
  54 O54          -21.4140     4.2264    -0.8402 O.2     
  55 N55          -19.1343     3.1258    -1.5262 N.am    
  56 C56          -20.2610     2.9329    -2.4424 C.3     
  57 C57          -20.5495     1.4374    -2.5882 C.3     
  58 C58          -19.3587     0.7515    -3.2608 C.3     
  59 C59          -19.6472    -0.7440    -3.4066 C.3     
  60 N60          -18.5071    -1.4008    -4.0507 N.pl3   
  61 C61          -18.5378    -2.7546    -4.2881 C.2     
  62 N62          -19.5814    -3.4537    -3.9403 N.2     
  63 N63          -17.4678    -3.3710    -4.8926 N.pl3   
  64 C64          -25.0700     3.6033    -2.5817 C.2     
  65 O65          -24.9746     2.6617    -3.3401 O.2     
  66 N66          -22.6433     3.5860    -2.5724 N.am    
  67 C67          -23.8282     4.2621    -2.0385 C.3     
  68 C68          -23.8072     5.7338    -2.4565 C.3     
  69 C69          -22.6135     6.4327    -1.8027 C.3     
  70 C70          -22.5925     7.9043    -2.2207 C.3     
  71 N71          -21.4494     8.5735    -1.5947 N.pl3   
  72 C72          -21.2243     9.9099    -1.8258 C.2     
  73 N73          -20.2073    10.5053    -1.2689 N.2     
  74 N74          -22.0718    10.6184    -2.6443 N.pl3   
  75 C75          -28.6326     4.4068    -2.7395 C.2     
  76 O76          -28.4536     5.5340    -2.3293 O.2     
  77 N77          -26.2865     4.0605    -2.2248 N.am    
  78 C78          -27.4936     3.4200    -2.7528 C.3     
  79 C79          -27.8534     2.2141    -1.8826 C.3     
  80 O80          -28.2051     2.6607    -0.5716 O.3     
  81 C81          -32.2662     4.2514    -3.1083 C.2     
  82 O82          -32.2734     3.0390    -3.0778 O.2     
  83 N83          -29.8501     4.0366    -3.1834 N.am    
  84 C84          -30.9574     4.9958    -3.1704 C.3     
  85 C85          -30.9127     5.8434    -4.4434 C.3     
  86 C86          -35.1232     3.8182    -4.4189 C.2     
  87 O87          -34.4322     4.1137    -5.3650 O.2     
  88 N88          -33.4287     4.9329    -3.0865 N.am    
  89 C89          -34.7011     4.2092    -3.0261 C.3     
  90 C90          -35.7703     5.1088    -2.4028 C.3     
  91 C91          -35.4086     5.3996    -0.9690 C.2     
  92 O92          -34.3992     4.9351    -0.4945 O.2     
  93 O93          -36.2078     6.1747    -0.2192 O.3     
  94 O94          -36.2669     3.1417    -4.6085 O.3     
  95 C95            6.3563     6.5157    -2.7816 C.2     
  96 O96            5.9517     6.0295    -1.7471 O.2     
  97 C97           18.0005    16.8641     7.6354 C.3     
  98 C98           16.9010    15.8007     7.6021 C.3     
  99 C99           16.4918    15.5354     6.1519 C.3     
 100 C100          15.3922    14.4720     6.1187 C.3     
 101 C101          14.9830    14.2067     4.6685 C.3     
 102 C102          13.8835    13.1433     4.6352 C.3     
 103 C103          13.4743    12.8780     3.1850 C.3     
 104 C104          12.3748    11.8146     3.1518 C.3     
 105 C105          11.9656    11.5493     1.7016 C.3     
 106 C106          10.8660    10.4859     1.6683 C.3     
 107 C107          10.4568    10.2205     0.2181 C.3     
 108 C108           9.3573     9.1572     0.1848 C.3     
 109 C109           8.9481     8.8918    -1.2654 C.3     
 110 C110           7.8486     7.8284    -1.2986 C.3     
 111 C111           7.4394     7.5631    -2.7488 C.3     
 112 H112           2.2997     0.7250     1.3660 H       
 113 H113           2.4947     0.2380    -0.2122 H       
 114 H114           1.2753     2.7665     0.6892 H       
 115 H115           1.7470     1.5939    -2.0877 H       
 116 H116           0.7525     3.0318    -1.7538 H       
 117 H117           2.7159     4.1537    -0.7366 H       
 118 H118           3.7105     2.7158    -1.0705 H       
 119 H119           3.2758     2.9787    -3.4975 H       
 120 H120           2.2813     4.4166    -3.1636 H       
 121 H121           4.8225     4.8008    -1.9927 H       
 122 H122           4.4616     5.4044    -5.9276 H       
 123 H123           6.2079     6.4567    -4.7913 H       
 124 H124          -1.1386     2.8127     0.1030 H       
 125 H125          -2.3184     0.2183    -0.5333 H       
 126 H126          -3.6425     0.0824     1.5213 H       
 127 H127          -1.9147     0.1395     1.9452 H       
 128 H128          -3.1983     1.6902     3.2310 H       
 129 H129          -4.9677     0.6228    -0.2501 H       
 130 H130          -5.6451     3.4152    -0.7706 H       
 131 H131          -6.5804     2.9916    -2.9930 H       
 132 H132          -4.8614     2.5300    -2.9875 H       
 133 H133          -6.2372     0.8268    -3.9424 H       
 134 H134          -8.2447     3.3321    -1.4763 H       
 135 H135          -9.5776     1.0512    -0.2320 H       
 136 H136          -9.7221     3.8626     0.9444 H       
 137 H137         -10.8073     2.5239     1.3900 H       
 138 H138          -8.8527     1.1794     2.1111 H       
 139 H139          -7.7675     2.5181     1.6655 H       
 140 H140          -8.9090     3.9887     3.3035 H       
 141 H141          -9.9942     2.6500     3.7491 H       
 142 H142          -7.3270     1.7711     4.0493 H       
 143 H143          -8.9114     4.0214     6.9516 H       
 144 H144          -6.3974     1.7471     6.2415 H       
 145 H145          -7.0732     2.6975     7.4509 H       
 146 H146         -12.1749     1.7678    -0.1770 H       
 147 H147         -12.7811     3.6130    -2.3577 H       
 148 H148         -13.3458     0.6209    -2.5515 H       
 149 H149         -14.0370     1.8519    -3.6355 H       
 150 H150         -11.7526     2.5388    -4.3123 H       
 151 H151         -11.0613     1.3079    -3.2282 H       
 152 H152         -11.2114    -0.3620    -6.4899 H       
 153 H153         -15.4323     3.3177    -2.7401 H       
 154 H154         -16.7457     2.4995    -0.2636 H       
 155 H155         -16.6768     5.4066    -1.1870 H       
 156 H156         -17.7733     4.7689     0.0617 H       
 157 H157         -15.8202     4.0442     1.4066 H       
 158 H158         -14.7237     4.6819     0.1579 H       
 159 H159         -15.6622     6.9524     0.4933 H       
 160 H160         -16.7587     6.3147     1.7421 H       
 161 H161         -14.8056     5.5900     3.0870 H       
 162 H162         -13.7091     6.2277     1.8383 H       
 163 H163         -15.6832     7.8450     3.3131 H       
 164 H164         -14.0486     7.8112     3.6175 H       
 165 H165         -19.2981     3.3018    -0.5864 H       
 166 H166         -20.0122     3.3517    -3.4175 H       
 167 H167         -20.7112     1.0008    -1.6027 H       
 168 H168         -21.4418     1.2973    -3.1984 H       
 169 H169         -19.1971     1.1881    -4.2464 H       
 170 H170         -18.4665     0.8916    -2.6506 H       
 171 H171         -19.8089    -1.1806    -2.4211 H       
 172 H172         -20.5395    -0.8841    -4.0169 H       
 173 H173         -17.7304    -0.8805    -4.3096 H       
 174 H174         -19.6031    -4.4089    -4.1078 H       
 175 H175         -16.6912    -2.8507    -5.1515 H       
 176 H176         -17.4895    -4.3261    -5.0601 H       
 177 H177         -22.6960     3.1077    -3.4146 H       
 178 H178         -23.8266     4.1933    -0.9507 H       
 179 H179         -23.7193     5.8024    -3.5408 H       
 180 H180         -24.7308     6.2158    -2.1357 H       
 181 H181         -22.7014     6.3641    -0.7185 H       
 182 H182         -21.6900     5.9507    -2.1235 H       
 183 H183         -22.5045     7.9729    -3.3049 H       
 184 H184         -23.5160     8.3863    -1.8999 H       
 185 H185         -20.8515     8.0737    -1.0172 H       
 186 H186         -20.0484    11.4482    -1.4319 H       
 187 H187         -22.8286    10.1753    -3.0588 H       
 188 H188         -21.9129    11.5613    -2.8074 H       
 189 H189         -26.3628     4.8136    -1.6182 H       
 190 H190         -27.3117     3.0890    -3.7752 H       
 191 H191         -28.6979     1.6857    -2.3252 H       
 192 H192         -26.9970     1.5427    -1.8203 H       
 193 H193         -28.4453     1.9475     0.0356 H       
 194 H194         -29.9933     3.1350    -3.5115 H       
 195 H195         -30.8663     5.6440    -2.2989 H       
 196 H196         -31.7365     6.5571    -4.4337 H       
 197 H197         -29.9661     6.3819    -4.4883 H       
 198 H198         -31.0038     5.1952    -5.3149 H       
 199 H199         -33.4230     5.9026    -3.1109 H       
 200 H200         -34.5807     3.3128    -2.4178 H       
 201 H201         -35.8282     6.0439    -2.9598 H       
 202 H202         -36.7358     4.6041    -2.4387 H       
 203 H203         -35.9342     6.3330     0.6947 H       
 204 H204         -36.4958     2.9130    -5.5198 H       
 205 H205          18.8647    16.5109     7.0728 H       
 206 H206          17.6281    17.7859     7.1885 H       
 207 H207          18.2920    17.0531     8.6685 H       
 208 H208          17.2733    14.8789     8.0490 H       
 209 H209          16.0367    16.1540     8.1647 H       
 210 H210          16.1194    16.4572     5.7050 H       
 211 H211          17.3560    15.1822     5.5894 H       
 212 H212          15.7646    13.5502     6.5656 H       
 213 H213          14.5280    14.8253     6.6812 H       
 214 H214          14.6106    15.1285     4.2216 H       
 215 H215          15.8472    13.8535     4.1059 H       
 216 H216          14.2559    12.2215     5.0821 H       
 217 H217          13.0193    13.4965     5.1978 H       
 218 H218          13.1019    13.7998     2.7381 H       
 219 H219          14.3385    12.5247     2.6225 H       
 220 H220          12.7471    10.8928     3.5987 H       
 221 H221          11.5105    12.1678     3.7143 H       
 222 H222          11.5932    12.4711     1.2547 H       
 223 H223          12.8298    11.1960     1.1390 H       
 224 H224          11.2384     9.5641     2.1152 H       
 225 H225          10.0018    10.8391     2.2308 H       
 226 H226          10.0844    11.1423    -0.2288 H       
 227 H227          11.3210     9.8673    -0.3444 H       
 228 H228           9.7297     8.2354     0.6317 H       
 229 H229           8.4931     9.5104     0.7474 H       
 230 H230           8.5757     9.8136    -1.7123 H       
 231 H231           9.8123     8.5386    -1.8279 H       
 232 H232           8.2209     6.9067    -0.8517 H       
 233 H233           6.9843     8.1817    -0.7361 H       
 234 H234           8.3036     7.2099    -3.3114 H       
 235 H235           7.0670     8.4849    -3.1957 H       
@<TRIPOS>BOND
   1    1    2 2
   2    1    4 1
   3    1   14 am
   4    3    4 1
   5    3  112 1
   6    3  113 1
   7    4    5 1
   8    4  114 1
   9    5    6 1
  10    5  115 1
  11    5  116 1
  12    6    7 1
  13    6  117 1
  14    6  118 1
  15    7    8 1
  16    7  119 1
  17    7  120 1
  18    8    9 1
  19    8  121 1
  20    9   10 2
  21    9   11 1
  22   10  122 1
  23   11   95 am
  24   11  123 1
  25   12   13 2
  26   12   15 1
  27   12   20 am
  28   14   15 1
  29   14  124 1
  30   15   16 1
  31   15  125 1
  32   16   17 1
  33   16  126 1
  34   16  127 1
  35   17  128 1
  36   18   19 2
  37   18   21 1
  38   18   26 am
  39   20   21 1
  40   20  129 1
  41   21   22 1
  42   21  130 1
  43   22   23 1
  44   22  131 1
  45   22  132 1
  46   23  133 1
  47   24   25 2
  48   24   27 1
  49   24   37 am
  50   26   27 1
  51   26  134 1
  52   27   28 1
  53   27  135 1
  54   28   29 1
  55   28  136 1
  56   28  137 1
  57   29   30 1
  58   29  138 1
  59   29  139 1
  60   30   31 1
  61   30  140 1
  62   30  141 1
  63   31   32 1
  64   31  142 1
  65   32   33 2
  66   32   34 1
  67   33  143 1
  68   34  144 1
  69   34  145 1
  70   35   36 2
  71   35   38 1
  72   35   46 am
  73   37   38 1
  74   37  146 1
  75   38   39 1
  76   38  147 1
  77   39   40 1
  78   39  148 1
  79   39  149 1
  80   40   41 1
  81   40  150 1
  82   40  151 1
  83   41   42 2
  84   41   43 1
  85   43  152 1
  86   44   45 2
  87   44   47 1
  88   44   55 am
  89   46   47 1
  90   46  153 1
  91   47   48 1
  92   47  154 1
  93   48   49 1
  94   48  155 1
  95   48  156 1
  96   49   50 1
  97   49  157 1
  98   49  158 1
  99   50   51 1
 100   50  159 1
 101   50  160 1
 102   51   52 1
 103   51  161 1
 104   51  162 1
 105   52  163 1
 106   52  164 1
 107   53   54 2
 108   53   56 1
 109   53   66 am
 110   55   56 1
 111   55  165 1
 112   56   57 1
 113   56  166 1
 114   57   58 1
 115   57  167 1
 116   57  168 1
 117   58   59 1
 118   58  169 1
 119   58  170 1
 120   59   60 1
 121   59  171 1
 122   59  172 1
 123   60   61 1
 124   60  173 1
 125   61   62 2
 126   61   63 1
 127   62  174 1
 128   63  175 1
 129   63  176 1
 130   64   65 2
 131   64   67 1
 132   64   77 am
 133   66   67 1
 134   66  177 1
 135   67   68 1
 136   67  178 1
 137   68   69 1
 138   68  179 1
 139   68  180 1
 140   69   70 1
 141   69  181 1
 142   69  182 1
 143   70   71 1
 144   70  183 1
 145   70  184 1
 146   71   72 1
 147   71  185 1
 148   72   73 2
 149   72   74 1
 150   73  186 1
 151   74  187 1
 152   74  188 1
 153   75   76 2
 154   75   78 1
 155   75   83 am
 156   77   78 1
 157   77  189 1
 158   78   79 1
 159   78  190 1
 160   79   80 1
 161   79  191 1
 162   79  192 1
 163   80  193 1
 164   81   82 2
 165   81   84 1
 166   81   88 am
 167   83   84 1
 168   83  194 1
 169   84   85 1
 170   84  195 1
 171   85  196 1
 172   85  197 1
 173   85  198 1
 174   86   87 2
 175   86   89 1
 176   86   94 1
 177   88   89 1
 178   88  199 1
 179   89   90 1
 180   89  200 1
 181   90   91 1
 182   90  201 1
 183   90  202 1
 184   91   92 2
 185   91   93 1
 186   93  203 1
 187   94  204 1
 188   95   96 2
 189   95  111 1
 190   97   98 1
 191   97  205 1
 192   97  206 1
 193   97  207 1
 194   98   99 1
 195   98  208 1
 196   98  209 1
 197   99  100 1
 198   99  210 1
 199   99  211 1
 200  100  101 1
 201  100  212 1
 202  100  213 1
 203  101  102 1
 204  101  214 1
 205  101  215 1
 206  102  103 1
 207  102  216 1
 208  102  217 1
 209  103  104 1
 210  103  218 1
 211  103  219 1
 212  104  105 1
 213  104  220 1
 214  104  221 1
 215  105  106 1
 216  105  222 1
 217  105  223 1
 218  106  107 1
 219  106  224 1
 220  106  225 1
 221  107  108 1
 222  107  226 1
 223  107  227 1
 224  108  109 1
 225  108  228 1
 226  108  229 1
 227  109  110 1
 228  109  230 1
 229  109  231 1
 230  110  111 1
 231  110  232 1
 232  110  233 1
 233  111  234 1
 234  111  235 1

#	End of record

