#	Name: ASD01883036
#	Creating user name:	WinNT
#	Creation time:	15. 06. 2019 19:45

#	Modifying user name:	WinNT
#	Modification time:	15. 06. 2019 19:45

#	Program:	/corina/corina34_cracker 3.40 0067  02.08.2006

@<TRIPOS>MOLECULE
ASD01883036
  49   52    0    0    0
SMALL
NO_CHARGES


@<TRIPOS>ATOM
   1 N1            -0.2503     1.5403    -1.2559 N.am    
   2 C2            -0.3337     0.2823    -1.7269 C.2     
   3 C3            -1.5164    -0.4707    -1.5257 C.2     
   4 C4            -2.5851     0.1239    -0.8306 C.2     
   5 C5            -2.4359     1.4447    -0.3623 C.2     
   6 C6            -1.2806     2.1119    -0.5803 C.2     
   7 O7             0.6077    -0.2085    -2.3265 O.2     
   8 C8            -1.6223    -1.8103    -2.0206 C.1     
   9 N9            -1.7064    -2.8730    -2.4131 N.1     
  10 C10            0.9794     2.3068    -1.4711 C.3     
  11 C11            0.8775     3.0747    -2.7905 C.3     
  12 C12           -5.9159    -1.5119    -1.4199 C.ar    
  13 C13           -3.8384    -0.6209    -0.5965 C.ar    
  14 C14           -4.1229    -1.1330     0.6719 C.ar    
  15 C15           -5.2930    -1.8267     0.8863 C.ar    
  16 C16           -6.1922    -2.0187    -0.1565 C.ar    
  17 O17           -7.3441    -2.7034     0.0608 O.3     
  18 C18           -7.3392    -4.0435    -0.1544 C.ar    
  19 C19           -8.5139    -4.7864    -0.0606 C.ar    
  20 C20           -8.4672    -6.1464    -0.2870 C.ar    
  21 N21           -7.3293    -6.7432    -0.5882 N.ar    
  22 C22           -6.1963    -6.0741    -0.6861 C.ar    
  23 C23           -6.1606    -4.7101    -0.4801 C.ar    
  24 C24           -4.7456    -0.8157    -1.6447 C.ar    
  25 C25           -9.7313    -6.9609    -0.1885 C.3     
  26 C26            2.0186     4.0317    -3.1409 C.3     
  27 C27            1.8682     2.7107    -3.8981 C.3     
  28 F28           -4.4764    -0.3230    -2.8735 F       
  29 C29           -9.8177    -4.1137     0.2837 C.3     
  30 H30           -3.2427     1.9222     0.1740 H       
  31 H31           -1.1775     3.1236    -0.2165 H       
  32 H32            1.1170     3.0110    -0.6505 H       
  33 H33            1.8296     1.6258    -1.5118 H       
  34 H34           -0.1303     3.3619    -3.0906 H       
  35 H35           -6.6151    -1.6672    -2.2282 H       
  36 H36           -3.4256    -0.9853     1.4833 H       
  37 H37           -5.5125    -2.2228     1.8668 H       
  38 H38           -5.2862    -6.5999    -0.9344 H       
  39 H39           -5.2299    -4.1683    -0.5618 H       
  40 H40          -10.2170    -6.9972    -1.1637 H       
  41 H41           -9.4872    -7.9731     0.1337 H       
  42 H42          -10.4041    -6.5014     0.5356 H       
  43 H43            1.7617     4.9483    -3.6719 H       
  44 H44            2.8420     4.1142    -2.4315 H       
  45 H45            2.5926     1.9242    -3.6869 H       
  46 H46            1.5123     2.7583    -4.9273 H       
  47 H47          -10.3131    -3.7911    -0.6320 H       
  48 H48          -10.4593    -4.8158     0.8160 H       
  49 H49           -9.6236    -3.2475     0.9163 H       
@<TRIPOS>BOND
   1    1    2 am
   2    1   10 1
   3    1    6 1
   4    2    3 1
   5    2    7 2
   6    3    4 2
   7    3    8 1
   8    4    5 1
   9    4   13 1
  10    5    6 2
  11    5   30 1
  12    6   31 1
  13    8    9 3
  14   10   11 1
  15   10   32 1
  16   10   33 1
  17   11   26 1
  18   11   27 1
  19   11   34 1
  20   12   24 ar
  21   12   16 ar
  22   12   35 1
  23   13   14 ar
  24   13   24 ar
  25   14   15 ar
  26   14   36 1
  27   15   16 ar
  28   15   37 1
  29   16   17 1
  30   17   18 1
  31   18   19 ar
  32   18   23 ar
  33   19   20 ar
  34   19   29 1
  35   20   21 ar
  36   20   25 1
  37   21   22 ar
  38   22   23 ar
  39   22   38 1
  40   23   39 1
  41   24   28 1
  42   25   40 1
  43   25   41 1
  44   25   42 1
  45   26   27 1
  46   26   43 1
  47   26   44 1
  48   27   45 1
  49   27   46 1
  50   29   47 1
  51   29   48 1
  52   29   49 1

#	End of record

