#	Name: ASD01478115
#	Creating user name:	WinNT
#	Creation time:	15. 06. 2019 19:21

#	Modifying user name:	WinNT
#	Modification time:	15. 06. 2019 19:21

#	Program:	/corina/corina34_cracker 3.40 0067  02.08.2006

@<TRIPOS>MOLECULE
ASD01478115
  37   39    0    0    0
SMALL
NO_CHARGES


@<TRIPOS>ATOM
   1 C1             0.3934     1.4210    -0.3223 C.3     
   2 C2             0.0909    -0.0648    -0.0426 C.3     
   3 C3             1.0350    -0.4499     1.1064 C.3     
   4 C4             2.2150     0.5388     1.0449 C.3     
   5 C5             1.9359     1.4821    -0.1444 C.3     
   6 C6            -1.5704     2.0218     0.9367 C.3     
   7 C7            -1.7661     0.5584     1.3515 C.3     
   8 O8            -0.1797     2.2411     0.6991 O.3     
   9 O9            -1.2660    -0.2737     0.3023 O.3     
  10 O10            2.2901     1.3015     2.2782 O.3     
  11 C11            3.5097     1.7162     2.6666 C.2     
  12 O12            4.4848     1.4485     1.9941 O.2     
  13 O13            3.6490     2.4276     3.8004 O.3     
  14 C14            4.8898     2.9081     4.0789 C.ar    
  15 C15            5.3744     4.0162     3.3994 C.ar    
  16 C16            6.6354     4.5029     3.6846 C.ar    
  17 C17            7.4145     3.8863     4.6462 C.ar    
  18 C18            6.9337     2.7817     5.3248 C.ar    
  19 C19            5.6711     2.2947     5.0473 C.ar    
  20 N20            8.7657     4.4092     4.9492 N.pl3   
  21 O21            9.1904     5.3819     4.3516 O.2     
  22 O22            9.4529     3.8668     5.7960 O.2     
  23 H23            0.0814     1.7224    -1.3222 H       
  24 H24            0.3290    -0.6583    -0.9253 H       
  25 H25            0.5188    -0.3580     2.0621 H       
  26 H26            1.3937    -1.4701     0.9704 H       
  27 H27            3.1474    -0.0019     0.8821 H       
  28 H28            2.4383     1.1231    -1.0426 H       
  29 H29            2.2530     2.4979     0.0915 H       
  30 H30           -2.1346     2.2238     0.0262 H       
  31 H31           -1.9143     2.6788     1.7355 H       
  32 H32           -1.2164     0.3603     2.2717 H       
  33 H33           -2.8265     0.3585     1.5056 H       
  34 H34            4.7665     4.4977     2.6477 H       
  35 H35            7.0132     5.3655     3.1559 H       
  36 H36            7.5443     2.3016     6.0752 H       
  37 H37            5.2944     1.4344     5.5805 H       
@<TRIPOS>BOND
   1    1    2 1
   2    1    5 1
   3    1    8 1
   4    1   23 1
   5    2    3 1
   6    2    9 1
   7    2   24 1
   8    3    4 1
   9    3   25 1
  10    3   26 1
  11    4    5 1
  12    4   10 1
  13    4   27 1
  14    5   28 1
  15    5   29 1
  16    6    7 1
  17    6    8 1
  18    6   30 1
  19    6   31 1
  20    7    9 1
  21    7   32 1
  22    7   33 1
  23   10   11 1
  24   11   12 2
  25   11   13 1
  26   13   14 1
  27   14   15 ar
  28   14   19 ar
  29   15   16 ar
  30   15   34 1
  31   16   17 ar
  32   16   35 1
  33   17   18 ar
  34   17   20 1
  35   18   19 ar
  36   18   36 1
  37   19   37 1
  38   20   21 2
  39   20   22 2

#	End of record

