#	Name: ASD01913217
#	Creating user name:	WinNT
#	Creation time:	15. 06. 2019 20:01

#	Modifying user name:	WinNT
#	Modification time:	15. 06. 2019 20:01

#	Program:	/corina/corina34_cracker 3.40 0067  02.08.2006

@<TRIPOS>MOLECULE
ASD01913217
  49   52    0    0    0
SMALL
NO_CHARGES


@<TRIPOS>ATOM
   1 O1            -1.3786     1.1756    -2.2159 O.3     
   2 C2            -1.2277    -0.2384    -2.0384 C.3     
   3 C3            -0.2517    -0.7923    -3.0665 C.3     
   4 N4             1.0716    -0.1844    -2.9206 N.am    
   5 C5             1.2620     1.2511    -3.1505 C.3     
   6 C6             0.8344     2.0060    -1.9057 C.ar    
   7 C7            -0.5025     1.9502    -1.5338 C.ar    
   8 C8             1.7426     2.7325    -1.1720 C.ar    
   9 C9             1.3138     3.4507    -0.0679 C.ar    
  10 C10           -0.0224     3.4365     0.2866 C.ar    
  11 C11           -0.9313     2.6902    -0.4392 C.ar    
  12 C12            2.1242    -0.9507    -2.5726 C.2     
  13 O13            3.2426    -0.4743    -2.5522 O.2     
  14 C14            1.9192    -2.3686    -2.2160 C.ar    
  15 C15            2.7690    -3.3468    -2.7306 C.ar    
  16 C16            2.5705    -4.6831    -2.3906 C.ar    
  17 C17            1.5159    -5.0346    -1.5319 C.ar    
  18 C18            0.6766    -4.0526    -1.0258 C.ar    
  19 C19            0.8762    -2.7300    -1.3574 C.ar    
  20 C20            3.4381    -5.6947    -2.9148 C.1     
  21 C21            4.1493    -6.5239    -3.3446 C.1     
  22 C22            5.0168    -7.5354    -3.8689 C.ar    
  23 C23            4.8109    -8.8738    -3.5228 C.ar    
  24 C24            5.6573    -9.8382    -4.0380 C.ar    
  25 C25            6.6838    -9.4373    -4.8832 C.ar    
  26 C26            6.8312    -8.0959    -5.1847 C.ar    
  27 N27            6.0093    -7.1954    -4.6859 N.ar    
  28 O28            1.3178    -6.3340    -1.1979 O.3     
  29 C29            0.2266    -6.6192    -0.3204 C.3     
  30 H30           -0.8493    -0.4387    -1.0360 H       
  31 H31           -2.1960    -0.7236    -2.1610 H       
  32 H32           -0.1662    -1.8708    -2.9332 H       
  33 H33           -0.6315    -0.5859    -4.0671 H       
  34 H34            2.3133     1.4518    -3.3565 H       
  35 H35            0.6543     1.5692    -3.9976 H       
  36 H36            2.7848     2.7428    -1.4549 H       
  37 H37            2.0222     4.0204     0.5153 H       
  38 H38           -0.3581     4.0116     1.1369 H       
  39 H39           -1.9737     2.6828    -0.1566 H       
  40 H40            3.5777    -3.0697    -3.3906 H       
  41 H41           -0.1338    -4.3253    -0.3660 H       
  42 H42            0.2221    -1.9702    -0.9560 H       
  43 H43            4.0026    -9.1508    -2.8622 H       
  44 H44            5.5233   -10.8803    -3.7884 H       
  45 H45            7.3614   -10.1670    -5.3012 H       
  46 H46            7.6292    -7.7825    -5.8415 H       
  47 H47            0.3720    -6.0931     0.6231 H       
  48 H48           -0.7051    -6.2896    -0.7802 H       
  49 H49            0.1805    -7.6922    -0.1348 H       
@<TRIPOS>BOND
   1    1    2 1
   2    1    7 1
   3    2    3 1
   4    2   30 1
   5    2   31 1
   6    3    4 1
   7    3   32 1
   8    3   33 1
   9    4    5 1
  10    4   12 am
  11    5    6 1
  12    5   34 1
  13    5   35 1
  14    6    7 ar
  15    6    8 ar
  16    7   11 ar
  17    8    9 ar
  18    8   36 1
  19    9   10 ar
  20    9   37 1
  21   10   11 ar
  22   10   38 1
  23   11   39 1
  24   12   13 2
  25   12   14 1
  26   14   15 ar
  27   14   19 ar
  28   15   16 ar
  29   15   40 1
  30   16   17 ar
  31   16   20 1
  32   17   18 ar
  33   17   28 1
  34   18   19 ar
  35   18   41 1
  36   19   42 1
  37   20   21 3
  38   21   22 1
  39   22   23 ar
  40   22   27 ar
  41   23   24 ar
  42   23   43 1
  43   24   25 ar
  44   24   44 1
  45   25   26 ar
  46   25   45 1
  47   26   27 ar
  48   26   46 1
  49   28   29 1
  50   29   47 1
  51   29   48 1
  52   29   49 1

#	End of record

