#	Name: ASD01903102
#	Creating user name:	WinNT
#	Creation time:	15. 06. 2019 19:54

#	Modifying user name:	WinNT
#	Modification time:	15. 06. 2019 19:54

#	Program:	/corina/corina34_cracker 3.40 0067  02.08.2006

@<TRIPOS>MOLECULE
ASD01903102
  33   35    0    0    0
SMALL
NO_CHARGES


@<TRIPOS>ATOM
   1 C1            -0.0160     1.2945     0.0226 C.2     
   2 N2             0.0002    -0.0031     0.0045 N.2     
   3 C3            -1.1732    -0.6191     0.0289 C.2     
   4 C4            -2.2470     0.1863     0.0699 C.2     
   5 S5            -1.6841     1.8561     0.0840 S.3     
   6 C6            -1.2923    -2.0998     0.0115 C.2     
   7 N7             1.1051     2.1111     0.0028 N.pl3   
   8 C8            -2.2685    -2.8636     0.6795 C.2     
   9 N9            -2.0438    -4.1253     0.4227 N.2     
  10 N10           -0.9239    -4.2163    -0.4129 N.pl3   
  11 C11           -0.4795    -2.9656    -0.6590 C.2     
  12 C12            0.9587     3.4914    -0.0934 C.ar    
  13 N13           -0.2460     4.0122    -0.2730 N.ar    
  14 C14           -0.4281     5.3194    -0.3691 C.ar    
  15 C15            0.6466     6.1930    -0.2840 C.ar    
  16 C16            1.9217     5.6827    -0.0961 C.ar    
  17 C17            2.0774     4.3105     0.0057 C.ar    
  18 C18           -3.6857    -0.2610     0.1041 C.3     
  19 O19           -1.6793     5.8108    -0.5534 O.3     
  20 C20           -2.7440     4.8611    -0.6335 C.3     
  21 H21            1.9911     1.7199     0.0561 H       
  22 H22           -3.0645    -2.4745     1.2971 H       
  23 H23           -0.5365    -5.0359    -0.7578 H       
  24 H24            0.3699    -2.6992    -1.2706 H       
  25 H25            0.4913     7.2588    -0.3635 H       
  26 H26            2.7748     6.3413    -0.0269 H       
  27 H27            3.0575     3.8813     0.1527 H       
  28 H28           -4.0038    -0.3828     1.1395 H       
  29 H29           -4.3107     0.4880    -0.3823 H       
  30 H30           -3.7832    -1.2116    -0.4202 H       
  31 H31           -2.7884     4.2862     0.2915 H       
  32 H32           -3.6881     5.3853    -0.7812 H       
  33 H33           -2.5675     4.1873    -1.4719 H       
@<TRIPOS>BOND
   1    1    2 2
   2    1    7 1
   3    1    5 1
   4    2    3 1
   5    3    4 2
   6    3    6 1
   7    4    5 1
   8    4   18 1
   9    6    8 1
  10    6   11 2
  11    7   12 1
  12    7   21 1
  13    8    9 2
  14    8   22 1
  15    9   10 1
  16   10   11 1
  17   10   23 1
  18   11   24 1
  19   12   13 ar
  20   12   17 ar
  21   13   14 ar
  22   14   15 ar
  23   14   19 1
  24   15   16 ar
  25   15   25 1
  26   16   17 ar
  27   16   26 1
  28   17   27 1
  29   18   28 1
  30   18   29 1
  31   18   30 1
  32   19   20 1
  33   20   31 1
  34   20   32 1
  35   20   33 1

#	End of record

