#	Name: ASD01813308
#	Creating user name:	WinNT
#	Creation time:	15. 06. 2019 19:30

#	Modifying user name:	WinNT
#	Modification time:	15. 06. 2019 19:30

#	Program:	/corina/corina34_cracker 3.40 0067  02.08.2006

@<TRIPOS>MOLECULE
ASD01813308
  54   58    0    0    0
SMALL
NO_CHARGES


@<TRIPOS>ATOM
   1 O1            -0.0173     1.4248     0.0099 O.3     
   2 C2             0.0021    -0.0041     0.0020 C.3     
   3 H3             0.5121    -0.3565    -0.8945 H       
   4 C4             0.7396    -0.5125     1.2435 C.3     
   5 O5             0.7074    -1.9411     1.2633 O.3     
   6 C6            -0.6087    -2.4942     1.3259 C.3     
   7 C7            -1.4004    -2.0654     0.0877 C.3     
   8 C8            -1.4345    -0.5356     0.0160 C.3     
   9 H9            -1.9603    -0.1423     0.8861 H       
  10 N10           -2.1241    -0.1162    -1.2065 N.am    
  11 C11           -3.4675    -0.0083    -1.2192 C.2     
  12 O12           -4.1075    -0.2593    -0.2154 O.2     
  13 C13           -4.1592     0.4123    -2.4454 C.2     
  14 C14           -3.5822     0.7199    -3.6433 C.2     
  15 N15           -4.5384     1.0631    -4.5377 N.pl3   
  16 C16           -4.2835     1.4529    -5.9267 C.3     
  17 C17           -4.2069     2.9550    -6.0210 C.ar    
  18 C18           -5.3538     3.6897    -6.2618 C.ar    
  19 C19           -5.2894     5.0657    -6.3491 C.ar    
  20 C20           -4.0662     5.7144    -6.1940 C.ar    
  21 C21           -2.9141     4.9695    -5.9516 C.ar    
  22 C22           -2.9909     3.5944    -5.8606 C.ar    
  23 C23           -3.9907     7.1938    -6.2873 C.2     
  24 C24           -2.8252     7.9739    -6.1569 C.2     
  25 C25           -3.1758     9.2700    -6.3051 C.2     
  26 N26           -4.5079     9.3194    -6.5212 N.pl3   
  27 H27           -5.0322    10.1232    -6.6623 H       
  28 N28           -5.0001     8.0080    -6.5122 N.2     
  29 C29           -5.7864     0.9930    -3.9561 C.ar    
  30 C30           -7.0751     1.2368    -4.4217 C.ar    
  31 C31           -8.1326     1.0643    -3.5460 C.ar    
  32 C32           -7.8853     0.6585    -2.2445 C.ar    
  33 N33           -6.6590     0.4330    -1.8218 N.ar    
  34 C34           -5.6129     0.5785    -2.6246 C.ar    
  35 H35            0.8606     1.8301     0.0037 H       
  36 H36            1.7748    -0.1726     1.2160 H       
  37 H37            0.2534    -0.1256     2.1390 H       
  38 H38           -0.5448    -3.5819     1.3577 H       
  39 H39           -1.1125    -2.1332     2.2225 H       
  40 H40           -0.9193    -2.4604    -0.8071 H       
  41 H41           -2.4182    -2.4497     0.1550 H       
  42 H42           -1.6139     0.0839    -2.0069 H       
  43 H43           -2.5219     0.6938    -3.8469 H       
  44 H44           -3.3400     1.0195    -6.2585 H       
  45 H45           -5.0928     1.0899    -6.5603 H       
  46 H46           -6.3014     3.1858    -6.3822 H       
  47 H47           -6.1854     5.6384    -6.5375 H       
  48 H48           -1.9633     5.4674    -5.8309 H       
  49 H49           -2.0992     3.0163    -5.6680 H       
  50 H50           -1.8285     7.6019    -5.9711 H       
  51 H51           -2.5082    10.1176    -6.2589 H       
  52 H52           -7.2455     1.5528    -5.4403 H       
  53 H53           -9.1451     1.2454    -3.8752 H       
  54 H54           -8.7136     0.5251    -1.5643 H       
@<TRIPOS>BOND
   1    1    2 1
   2    1   35 1
   3    2    3 1
   4    2    8 1
   5    2    4 1
   6    4    5 1
   7    4   36 1
   8    4   37 1
   9    5    6 1
  10    6    7 1
  11    6   38 1
  12    6   39 1
  13    7    8 1
  14    7   40 1
  15    7   41 1
  16    8    9 1
  17    8   10 1
  18   10   11 am
  19   10   42 1
  20   11   12 2
  21   11   13 1
  22   13   34 1
  23   13   14 2
  24   14   15 1
  25   14   43 1
  26   15   16 1
  27   15   29 1
  28   16   17 1
  29   16   44 1
  30   16   45 1
  31   17   22 ar
  32   17   18 ar
  33   18   19 ar
  34   18   46 1
  35   19   20 ar
  36   19   47 1
  37   20   21 ar
  38   20   23 1
  39   21   22 ar
  40   21   48 1
  41   22   49 1
  42   23   28 2
  43   23   24 1
  44   24   25 2
  45   24   50 1
  46   25   26 1
  47   25   51 1
  48   26   27 1
  49   26   28 1
  50   29   34 ar
  51   29   30 ar
  52   30   31 ar
  53   30   52 1
  54   31   32 ar
  55   31   53 1
  56   32   33 ar
  57   32   54 1
  58   33   34 ar

#	End of record

