#	Name: ASD02508453
#	Creating user name:	WinNT
#	Creation time:	15. 06. 2019 20:24

#	Modifying user name:	WinNT
#	Modification time:	15. 06. 2019 20:24

#	Program:	/corina/corina34_cracker 3.40 0067  02.08.2006

@<TRIPOS>MOLECULE
ASD02508453
  37   39    0    0    0
SMALL
NO_CHARGES


@<TRIPOS>ATOM
   1 C1            -0.0724     1.1504     0.0129 C.2     
   2 C2             0.1006    -0.2257    -0.2402 C.2     
   3 C3             1.4221    -0.4856    -0.1799 C.2     
   4 N4             2.0741     0.6817     0.1019 N.pl3   
   5 C5             1.1496     1.6811     0.2187 C.2     
   6 C6             3.4568     0.8288     0.2470 C.ar    
   7 C7             4.1420     1.7310    -0.5596 C.ar    
   8 N8             4.1005     0.1126     1.1539 N.ar    
   9 C9             5.4042     0.2207     1.3240 C.ar    
  10 C10            6.1491     1.0928     0.5549 C.ar    
  11 C11            5.5116     1.8670    -0.4048 C.ar    
  12 S12            2.1778    -2.0588    -0.4218 S.o2    
  13 N13            2.3596    -2.2694    -2.0543 N.am    
  14 C14            3.1940    -1.4143    -2.7808 C.ar    
  15 C15            4.4652    -1.1162    -2.3082 C.ar    
  16 C16            5.2880    -0.2715    -3.0279 C.ar    
  17 C17            4.8458     0.2779    -4.2192 C.ar    
  18 C18            3.5784    -0.0181    -4.6924 C.ar    
  19 C19            2.7546    -0.8665    -3.9792 C.ar    
  20 O20            3.4883    -1.9618     0.1187 O.2     
  21 O21            1.2309    -3.0287     0.0048 O.2     
  22 F22            5.6518     1.1044    -4.9210 F       
  23 C23            3.1000     0.5816    -5.9896 C.3     
  24 Cl24           3.2925     2.6735    -1.7444 Cl      
  25 H25           -1.0118     1.6828     0.0335 H       
  26 H26           -0.6823    -0.9408    -0.4450 H       
  27 H27            1.3614     2.7173     0.4376 H       
  28 H28            5.8953    -0.3804     2.0749 H       
  29 H29            7.2160     1.1747     0.7013 H       
  30 H30            6.0712     2.5566    -1.0193 H       
  31 H31            1.8874    -2.9858    -2.5065 H       
  32 H32            4.8102    -1.5440    -1.3786 H       
  33 H33            6.2767    -0.0394    -2.6607 H       
  34 H34            1.7663    -1.0970    -4.3486 H       
  35 H35            3.3642    -0.0797    -6.8148 H       
  36 H36            2.0176     0.7052    -5.9553 H       
  37 H37            3.5722     1.5529    -6.1368 H       
@<TRIPOS>BOND
   1    1    2 1
   2    1    5 2
   3    1   25 1
   4    2    3 2
   5    2   26 1
   6    3    4 1
   7    3   12 1
   8    4    5 1
   9    4    6 1
  10    5   27 1
  11    6    7 ar
  12    6    8 ar
  13    7   24 1
  14    7   11 ar
  15    8    9 ar
  16    9   10 ar
  17    9   28 1
  18   10   11 ar
  19   10   29 1
  20   11   30 1
  21   12   13 am
  22   12   20 2
  23   12   21 2
  24   13   14 1
  25   13   31 1
  26   14   15 ar
  27   14   19 ar
  28   15   16 ar
  29   15   32 1
  30   16   17 ar
  31   16   33 1
  32   17   18 ar
  33   17   22 1
  34   18   19 ar
  35   18   23 1
  36   19   34 1
  37   23   35 1
  38   23   36 1
  39   23   37 1

#	End of record

