#	Name: ASD08390036
#	Creating user name:	WinNT
#	Creation time:	15. 06. 2019 21:19

#	Modifying user name:	WinNT
#	Modification time:	15. 06. 2019 21:19

#	Program:	/corina/corina34_cracker 3.40 0067  02.08.2006

@<TRIPOS>MOLECULE
ASD08390036
  57   61    0    0    0
SMALL
NO_CHARGES


@<TRIPOS>ATOM
   1 C1            -0.2139     1.5193    -0.1739 C.3     
   2 C2            -0.0166     0.0654     0.2992 C.3     
   3 N3             1.1566     1.9661    -0.4742 N.pl3   
   4 C4             2.0147     0.9289    -0.2143 C.2     
   5 N5             1.4352    -0.1439     0.2132 N.2     
   6 C6             1.5380     3.2919    -0.9671 C.3     
   7 C7             1.6875     4.2369     0.1972 C.ar    
   8 C8             2.9329     4.4523     0.7570 C.ar    
   9 C9             3.0701     5.3191     1.8251 C.ar    
  10 C10            1.9619     5.9708     2.3331 C.ar    
  11 C11            0.7166     5.7560     1.7727 C.ar    
  12 C12            0.5801     4.8926     0.7018 C.ar    
  13 C13            3.4795     1.0295    -0.4066 C.ar    
  14 C14            4.3488     0.4932     0.5429 C.ar    
  15 C15            5.7128     0.5902     0.3582 C.ar    
  16 C16            6.2184     1.2183    -0.7659 C.ar    
  17 C17            5.3612     1.7526    -1.7111 C.ar    
  18 C18            3.9953     1.6560    -1.5408 C.ar    
  19 C19           -1.0710     1.5636    -1.4126 C.ar    
  20 C20           -2.4134     1.8785    -1.3134 C.ar    
  21 C21           -3.1996     1.9192    -2.4497 C.ar    
  22 C22           -2.6433     1.6453    -3.6852 C.ar    
  23 C23           -1.3008     1.3313    -3.7845 C.ar    
  24 C24           -0.5136     1.2950    -2.6487 C.ar    
  25 C25           -0.4902    -0.0963     1.7207 C.ar    
  26 C26            0.1037    -1.0340     2.5446 C.ar    
  27 C27           -1.5147     0.6970     2.2024 C.ar    
  28 C28           -1.9491     0.5487     3.5063 C.ar    
  29 C29           -1.3593    -0.3932     4.3284 C.ar    
  30 C30           -0.3307    -1.1823     3.8485 C.ar    
  31 C31           -0.7455    -0.8895    -0.6107 C.2     
  32 O32           -1.8836    -1.2105    -0.3626 O.2     
  33 O33           -0.1304    -1.3835    -1.6966 O.3     
  34 H34           -0.6510     2.1258     0.6193 H       
  35 H35            2.4850     3.2220    -1.5022 H       
  36 H36            0.7666     3.6648    -1.6409 H       
  37 H37            3.7988     3.9432     0.3602 H       
  38 H38            4.0430     5.4869     2.2629 H       
  39 H39            2.0689     6.6474     3.1680 H       
  40 H40           -0.1493     6.2649     2.1698 H       
  41 H41           -0.3928     4.7248     0.2640 H       
  42 H42            3.9552     0.0033     1.4213 H       
  43 H43            6.3870     0.1752     1.0928 H       
  44 H44            7.2868     1.2920    -0.9060 H       
  45 H45            5.7619     2.2421    -2.5865 H       
  46 H46            3.3270     2.0733    -2.2795 H       
  47 H47           -2.8480     2.0925    -0.3482 H       
  48 H48           -4.2485     2.1645    -2.3721 H       
  49 H49           -3.2577     1.6764    -4.5729 H       
  50 H50           -0.8663     1.1171    -4.7498 H       
  51 H51            0.5353     1.0496    -2.7263 H       
  52 H52            0.9069    -1.6510     2.1696 H       
  53 H53           -1.9754     1.4329     1.5601 H       
  54 H54           -2.7490     1.1690     3.8828 H       
  55 H55           -1.6984    -0.5088     5.3472 H       
  56 H56            0.1301    -1.9182     4.4908 H       
  57 H57           -0.6383    -1.9924    -2.2500 H       
@<TRIPOS>BOND
   1    1    2 1
   2    1    3 1
   3    1   19 1
   4    1   34 1
   5    2   25 1
   6    2   31 1
   7    2    5 1
   8    3    4 1
   9    3    6 1
  10    4    5 2
  11    4   13 1
  12    6    7 1
  13    6   35 1
  14    6   36 1
  15    7    8 ar
  16    7   12 ar
  17    8    9 ar
  18    8   37 1
  19    9   10 ar
  20    9   38 1
  21   10   11 ar
  22   10   39 1
  23   11   12 ar
  24   11   40 1
  25   12   41 1
  26   13   14 ar
  27   13   18 ar
  28   14   15 ar
  29   14   42 1
  30   15   16 ar
  31   15   43 1
  32   16   17 ar
  33   16   44 1
  34   17   18 ar
  35   17   45 1
  36   18   46 1
  37   19   20 ar
  38   19   24 ar
  39   20   21 ar
  40   20   47 1
  41   21   22 ar
  42   21   48 1
  43   22   23 ar
  44   22   49 1
  45   23   24 ar
  46   23   50 1
  47   24   51 1
  48   25   26 ar
  49   25   27 ar
  50   26   30 ar
  51   26   52 1
  52   27   28 ar
  53   27   53 1
  54   28   29 ar
  55   28   54 1
  56   29   30 ar
  57   29   55 1
  58   30   56 1
  59   31   32 2
  60   31   33 1
  61   33   57 1

#	End of record

