#	Name: ASD03090799
#	Creating user name:	WinNT
#	Creation time:	15. 06. 2019 20:29

#	Modifying user name:	WinNT
#	Modification time:	15. 06. 2019 20:29

#	Program:	/corina/corina34_cracker 3.40 0067  02.08.2006

@<TRIPOS>MOLECULE
ASD03090799
  29   30    0    0    0
SMALL
NO_CHARGES


@<TRIPOS>ATOM
   1 C1             0.1281     1.5250    -0.3573 C.ar    
   2 N2             0.2219     0.2872    -0.8039 N.ar    
   3 C3            -0.8262    -0.3749    -1.2550 C.ar    
   4 C4            -2.0792     0.2096    -1.2776 C.ar    
   5 C5            -2.2245     1.5205    -0.8134 C.ar    
   6 C6            -1.0880     2.1829    -0.3394 C.ar    
   7 C7            -3.5469     2.1871    -0.8185 C.2     
   8 N8            -3.6660     3.4513    -0.3668 N.am    
   9 C9            -4.8695     4.0580    -0.3715 C.2     
  10 N10           -4.9886     5.3223     0.0802 N.am    
  11 C11           -6.2196     5.9853    -0.0097 C.ar    
  12 C12           -7.3827     5.3507     0.4045 C.ar    
  13 C13           -8.6552     7.2936    -0.1869 C.ar    
  14 C14           -6.2772     7.2814    -0.5085 C.ar    
  15 C15           -8.5963     6.0050     0.3155 C.ar    
  16 S16           -6.2469     3.2228    -0.9511 S.2     
  17 O17           -4.5243     1.5944    -1.2298 O.2     
  18 Cl18          -0.6296    -2.0017    -1.8285 Cl      
  19 Cl19           1.5492     2.3362     0.2224 Cl      
  20 F20           -5.1463     7.9035    -0.9076 F       
  21 F21           -9.8435     7.9308    -0.2722 F       
  22 C22           -7.4955     7.9338    -0.5961 C.ar    
  23 F23           -7.5549     9.1912    -1.0866 F       
  24 H24           -2.9329    -0.3382    -1.6485 H       
  25 H25           -1.1576     3.1961     0.0282 H       
  26 H26           -2.8856     3.9246    -0.0384 H       
  27 H27           -4.2220     5.7731     0.4676 H       
  28 H28           -7.3390     4.3451     0.7961 H       
  29 H29           -9.5005     5.5103     0.6381 H       
@<TRIPOS>BOND
   1    1    2 ar
   2    1   19 1
   3    1    6 ar
   4    2    3 ar
   5    3    4 ar
   6    3   18 1
   7    4    5 ar
   8    4   24 1
   9    5    6 ar
  10    5    7 1
  11    6   25 1
  12    7    8 am
  13    7   17 2
  14    8    9 am
  15    8   26 1
  16    9   10 am
  17    9   16 2
  18   10   11 1
  19   10   27 1
  20   11   12 ar
  21   11   14 ar
  22   12   15 ar
  23   12   28 1
  24   13   22 ar
  25   13   21 1
  26   13   15 ar
  27   14   20 1
  28   14   22 ar
  29   15   29 1
  30   22   23 1

#	End of record

