#	Name: ASD01810957
#	Creating user name:	WinNT
#	Creation time:	15. 06. 2019 19:25

#	Modifying user name:	WinNT
#	Modification time:	15. 06. 2019 19:25

#	Program:	/corina/corina34_cracker 3.40 0067  02.08.2006

@<TRIPOS>MOLECULE
ASD01810957
  63   67    0    0    0
SMALL
NO_CHARGES


@<TRIPOS>ATOM
   1 C1            -7.3382     2.2160    -3.9955 C.1     
   2 C2            -6.3590     3.0090    -3.3152 C.ar    
   3 C3            -5.1886     2.4182    -2.8347 C.ar    
   4 C4            -4.2496     3.1880    -2.1802 C.ar    
   5 C5            -4.4655     4.5426    -1.9990 C.ar    
   6 C6            -5.6232     5.1345    -2.4721 C.ar    
   7 C7            -6.5676     4.3778    -3.1343 C.ar    
   8 N8            -8.1150     1.5868    -4.5352 N.1     
   9 N9            -2.4153     7.7951    -0.2274 N.am    
  10 C10           -1.8617     7.3051    -1.4972 C.3     
  11 C11           -2.9335     6.4805    -2.2168 C.3     
  12 C12           -3.4353     5.3771    -1.2825 C.3     
  13 C13           -4.0652     6.0073    -0.0382 C.3     
  14 C14           -3.0062     6.8266     0.7061 C.3     
  15 C15           -2.3767     9.1073     0.0776 C.2     
  16 C16           -3.0206     9.5979     1.3150 C.ar    
  17 C17           -3.9802    10.6109     1.2505 C.ar    
  18 C18           -4.5821    11.0698     2.4049 C.ar    
  19 C19           -4.2405    10.5316     3.6301 C.ar    
  20 C20           -3.2833     9.5185     3.7086 C.ar    
  21 C21           -2.6758     9.0469     2.5473 C.ar    
  22 O22           -1.8125     9.8874    -0.6644 O.2     
  23 C23           -4.9021    11.0396     4.8852 C.3     
  24 N24           -2.8671     8.5818     7.1166 N.2     
  25 N25           -3.4119     9.2877     6.1907 N.2     
  26 C26           -2.9184     8.9436     5.0222 C.2     
  27 N27           -2.0027     7.9525     5.2511 N.pl3   
  28 C28           -2.0014     7.7531     6.5972 C.2     
  29 C29           -1.1565     6.7581     7.3505 C.3     
  30 O30           -0.3358     6.0365     6.4297 O.3     
  31 C31            0.5092     5.0619     7.0447 C.3     
  32 C32           -4.3588    11.2043    -0.0820 C.3     
  33 C33           -5.7920    10.9859    -0.5710 C.3     
  34 C34           -5.3531    12.3671    -0.0806 C.3     
  35 H35           -5.0192     1.3608    -2.9749 H       
  36 H36           -3.3439     2.7323    -1.8081 H       
  37 H37           -5.7856     6.1923    -2.3269 H       
  38 H38           -7.4686     4.8419    -3.5074 H       
  39 H39           -1.5721     8.1513    -2.1202 H       
  40 H40           -0.9912     6.6797    -1.2991 H       
  41 H41           -3.7651     7.1280    -2.4947 H       
  42 H42           -2.5061     6.0315    -3.1134 H       
  43 H43           -2.5987     4.7448    -0.9851 H       
  44 H44           -4.8862     6.6593    -0.3366 H       
  45 H45           -4.4433     5.2215     0.6158 H       
  46 H46           -2.2291     6.1621     1.0838 H       
  47 H47           -3.4718     7.3570     1.5367 H       
  48 H48           -5.3232    11.8535     2.3498 H       
  49 H49           -1.9374     8.2607     2.6023 H       
  50 H50           -5.8010    10.4559     5.0838 H       
  51 H51           -4.2130    10.9423     5.7241 H       
  52 H52           -5.1709    12.0879     4.7555 H       
  53 H53           -1.4656     7.4881     4.5903 H       
  54 H54           -0.5242     7.2855     8.0647 H       
  55 H55           -1.8038     6.0616     7.8834 H       
  56 H56            1.0995     4.5581     6.2794 H       
  57 H57            1.1761     5.5541     7.7526 H       
  58 H58           -0.1035     4.3302     7.5713 H       
  59 H59           -3.5679    11.2189    -0.8319 H       
  60 H60           -5.9440    10.8572    -1.6427 H       
  61 H61           -6.4610    10.4130     0.0710 H       
  62 H62           -5.7335    12.7029     0.8841 H       
  63 H63           -5.2164    13.1471    -0.8296 H       
@<TRIPOS>BOND
   1    1    2 1
   2    1    8 3
   3    2    3 ar
   4    2    7 ar
   5    3    4 ar
   6    3   35 1
   7    4    5 ar
   8    4   36 1
   9    5    6 ar
  10    5   12 1
  11    6    7 ar
  12    6   37 1
  13    7   38 1
  14    9   10 1
  15    9   14 1
  16    9   15 am
  17   10   11 1
  18   10   39 1
  19   10   40 1
  20   11   12 1
  21   11   41 1
  22   11   42 1
  23   12   13 1
  24   12   43 1
  25   13   14 1
  26   13   44 1
  27   13   45 1
  28   14   46 1
  29   14   47 1
  30   15   16 1
  31   15   22 2
  32   16   17 ar
  33   16   21 ar
  34   17   18 ar
  35   17   32 1
  36   18   19 ar
  37   18   48 1
  38   19   20 ar
  39   19   23 1
  40   20   21 ar
  41   20   26 1
  42   21   49 1
  43   23   50 1
  44   23   51 1
  45   23   52 1
  46   24   25 1
  47   24   28 2
  48   25   26 2
  49   26   27 1
  50   27   28 1
  51   27   53 1
  52   28   29 1
  53   29   30 1
  54   29   54 1
  55   29   55 1
  56   30   31 1
  57   31   56 1
  58   31   57 1
  59   31   58 1
  60   32   33 1
  61   32   34 1
  62   32   59 1
  63   33   34 1
  64   33   60 1
  65   33   61 1
  66   34   62 1
  67   34   63 1

#	End of record

