#	Name: ASD03090060
#	Creating user name:	WinNT
#	Creation time:	15. 06. 2019 20:28

#	Modifying user name:	WinNT
#	Modification time:	15. 06. 2019 20:28

#	Program:	/corina/corina34_cracker 3.40 0067  02.08.2006

@<TRIPOS>MOLECULE
ASD03090060
  33   35    0    0    0
SMALL
NO_CHARGES


@<TRIPOS>ATOM
   1 N1            -0.0162     1.3436     0.0094 N.am    
   2 C2            -0.2140     0.1138    -0.5055 C.2     
   3 O3             0.6745    -0.4344    -1.1287 O.2     
   4 N4            -1.3966    -0.5082    -0.3297 N.am    
   5 S5            -3.0396    -2.6967    -0.7258 S.3     
   6 C6            -1.6006    -1.7770    -0.8610 C.2     
   7 N7            -0.7317    -2.4614    -1.5421 N.2     
   8 N8            -1.0782    -3.6032    -1.9546 N.2     
   9 C9            -2.2785    -3.9874    -1.6566 C.2     
  10 C10           -2.9114    -5.3011    -2.0369 C.3     
  11 F11           -1.9630    -6.1086    -2.6738 F       
  12 F12           -3.3750    -5.9460    -0.8852 F       
  13 F13           -3.9838    -5.0683    -2.9046 F       
  14 C14            1.2459     1.9389    -0.0679 C.ar    
  15 C15            1.3612     3.3278    -0.2196 C.ar    
  16 C16            2.6261     3.9109    -0.2951 C.ar    
  17 C17            3.7543     3.1197    -0.2203 C.ar    
  18 C18            3.6370     1.7489    -0.0710 C.ar    
  19 C19            2.3894     1.1592     0.0109 C.ar    
  20 O20           -0.9076     3.9578    -1.1068 O.3     
  21 C21            0.1496     4.1692    -0.2996 C.2     
  22 C22           -0.0923     5.2912     0.4296 C.2     
  23 C23           -1.3581     5.7680     0.0331 C.2     
  24 C24           -1.8211     4.9227    -0.9082 C.2     
  25 H25           -0.7508     1.8171     0.4301 H       
  26 H26           -2.1054    -0.0708     0.1675 H       
  27 H27            2.7224     4.9802    -0.4124 H       
  28 H28            4.7332     3.5723    -0.2789 H       
  29 H29            4.5250     1.1370    -0.0139 H       
  30 H30            2.3054     0.0893     0.1323 H       
  31 H31            0.5592     5.7316     1.1698 H       
  32 H32           -1.8618     6.6448     0.4123 H       
  33 H33           -2.7692     5.0067    -1.4185 H       
@<TRIPOS>BOND
   1    1    2 am
   2    1   14 1
   3    1   25 1
   4    2    3 2
   5    2    4 am
   6    4    6 1
   7    4   26 1
   8    5    6 1
   9    5    9 1
  10    6    7 2
  11    7    8 1
  12    8    9 2
  13    9   10 1
  14   10   11 1
  15   10   12 1
  16   10   13 1
  17   14   15 ar
  18   14   19 ar
  19   15   16 ar
  20   15   21 1
  21   16   17 ar
  22   16   27 1
  23   17   18 ar
  24   17   28 1
  25   18   19 ar
  26   18   29 1
  27   19   30 1
  28   20   21 1
  29   20   24 1
  30   21   22 2
  31   22   23 1
  32   22   31 1
  33   23   24 2
  34   23   32 1
  35   24   33 1

#	End of record

