#	Name: ASD01890015
#	Creating user name:	WinNT
#	Creation time:	15. 06. 2019 19:50

#	Modifying user name:	WinNT
#	Modification time:	15. 06. 2019 19:50

#	Program:	/corina/corina34_cracker 3.40 0067  02.08.2006

@<TRIPOS>MOLECULE
ASD01890015
  30   32    0    0    0
SMALL
NO_CHARGES


@<TRIPOS>ATOM
   1 C1            -0.0162     1.5081     0.0116 C.2     
   2 C2             0.0041    -0.0043     0.0035 C.3     
   3 C3            -0.8921    -0.5103     1.1413 C.3     
   4 C4            -2.2765     0.1359     1.0017 C.3     
   5 C5            -2.1013     1.6364     0.9242 C.2     
   6 O6             1.0116     2.1432     0.0069 O.2     
   7 O7            -2.7310     2.3733     1.6453 O.2     
   8 O8            -1.2187     2.1302     0.0185 O.3     
   9 C9            -1.0227    -2.0090     1.0535 C.ar    
  10 C10           -1.6475    -2.5801    -0.0126 C.ar    
  11 C11           -1.7778    -3.9638    -0.1111 C.ar    
  12 C12           -1.2837    -4.7849     0.8557 C.ar    
  13 C13           -0.6320    -4.2320     1.9709 C.ar    
  14 C14           -0.1093    -5.0475     2.9894 C.ar    
  15 C15            0.5154    -4.4765     4.0551 C.ar    
  16 C16            0.6455    -3.0923     4.1537 C.ar    
  17 C17            0.1514    -2.2713     3.1872 C.ar    
  18 C18           -0.4951    -2.8246     2.0687 C.ar    
  19 H19           -0.3741    -0.3705    -0.9509 H       
  20 H20            1.0240    -0.3576     0.1561 H       
  21 H21           -0.4551    -0.2347     2.1010 H       
  22 H22           -2.7586    -0.2238     0.0927 H       
  23 H23           -2.8876    -0.1170     1.8682 H       
  24 H24           -2.0486    -1.9512    -0.7937 H       
  25 H25           -2.2786    -4.3913    -0.9672 H       
  26 H26           -1.3923    -5.8557     0.7661 H       
  27 H27           -0.2032    -6.1215     2.9267 H       
  28 H28            0.9162    -5.1053     4.8363 H       
  29 H29            1.1455    -2.6647     5.0102 H       
  30 H30            0.2590    -1.2005     3.2775 H       
@<TRIPOS>BOND
   1    1    2 1
   2    1    6 2
   3    1    8 1
   4    2    3 1
   5    2   19 1
   6    2   20 1
   7    3    4 1
   8    3    9 1
   9    3   21 1
  10    4    5 1
  11    4   22 1
  12    4   23 1
  13    5    7 2
  14    5    8 1
  15    9   10 ar
  16    9   18 ar
  17   10   11 ar
  18   10   24 1
  19   11   12 ar
  20   11   25 1
  21   12   13 ar
  22   12   26 1
  23   13   14 ar
  24   13   18 ar
  25   14   15 ar
  26   14   27 1
  27   15   16 ar
  28   15   28 1
  29   16   17 ar
  30   16   29 1
  31   17   18 ar
  32   17   30 1

#	End of record

