#	Name: ASD03430665
#	Creating user name:	WinNT
#	Creation time:	15. 06. 2019 20:41

#	Modifying user name:	WinNT
#	Modification time:	15. 06. 2019 20:41

#	Program:	/corina/corina34_cracker 3.40 0067  02.08.2006

@<TRIPOS>MOLECULE
ASD03430665
  35   39    0    0    0
SMALL
NO_CHARGES


@<TRIPOS>ATOM
   1 C1            -0.0167     1.3821     0.0096 C.ar    
   2 C2             0.0021    -0.0041     0.0020 C.ar    
   3 C3             1.2027    -0.6821    -0.0161 C.ar    
   4 C4             2.4085     0.0124    -0.0171 C.ar    
   5 C5             2.3860     1.4035    -0.0125 C.ar    
   6 C6             1.1816     2.0866     0.0020 C.ar    
   7 O7             3.4710    -0.8426    -0.0093 O.3     
   8 C8             1.5506    -2.1461    -0.0485 C.3     
   9 C9             3.0351    -2.1469    -0.4378 C.3     
  10 C10            0.0799    -3.9068    -0.2900 C.ar    
  11 C11            0.7129    -2.9107    -1.0299 C.ar    
  12 C12            1.3200    -2.8139     1.2769 C.2     
  13 N13            0.4553    -3.8233     1.0529 N.am    
  14 O14            1.8152    -2.5056     2.3402 O.2     
  15 C15            0.4960    -2.8006    -2.3849 C.ar    
  16 C16           -0.3593    -3.6809    -3.0241 C.ar    
  17 C17           -0.9947    -4.6720    -2.2991 C.ar    
  18 C18           -0.7793    -4.7878    -0.9413 C.ar    
  19 O19           -1.2113     2.0353     0.0189 O.3     
  20 C20           -1.1871     3.4164     0.3957 C.3     
  21 C21           -0.0351     4.0985    -0.3546 C.3     
  22 O22            1.1865     3.4483     0.0120 O.3     
  23 H23           -0.9269    -0.5549     0.0107 H       
  24 H24            3.3147     1.9547    -0.0199 H       
  25 H25            3.1525    -2.2596    -1.5156 H       
  26 H26            3.5746    -2.9298     0.0953 H       
  27 H27            0.1311    -4.4219     1.7439 H       
  28 H28            0.9937    -2.0261    -2.9496 H       
  29 H29           -0.5303    -3.5937    -4.0869 H       
  30 H30           -1.6630    -5.3584    -2.7979 H       
  31 H31           -1.2787    -5.5649    -0.3816 H       
  32 H32           -2.1320     3.8878     0.1255 H       
  33 H33           -1.0272     3.5015     1.4706 H       
  34 H34           -0.1915     4.0074    -1.4294 H       
  35 H35            0.0115     5.1516    -0.0774 H       
@<TRIPOS>BOND
   1    1    2 ar
   2    1    6 ar
   3    1   19 1
   4    2    3 ar
   5    2   23 1
   6    3    4 ar
   7    3    8 1
   8    4    5 ar
   9    4    7 1
  10    5    6 ar
  11    5   24 1
  12    6   22 1
  13    7    9 1
  14    8    9 1
  15    8   11 1
  16    8   12 1
  17    9   25 1
  18    9   26 1
  19   10   11 ar
  20   10   13 1
  21   10   18 ar
  22   11   15 ar
  23   12   13 am
  24   12   14 2
  25   13   27 1
  26   15   16 ar
  27   15   28 1
  28   16   17 ar
  29   16   29 1
  30   17   18 ar
  31   17   30 1
  32   18   31 1
  33   19   20 1
  34   20   21 1
  35   20   32 1
  36   20   33 1
  37   21   22 1
  38   21   34 1
  39   21   35 1

#	End of record

