#	Name: ASD03950037
#	Creating user name:	WinNT
#	Creation time:	15. 06. 2019 20:48

#	Modifying user name:	WinNT
#	Modification time:	15. 06. 2019 20:48

#	Program:	/corina/corina34_cracker 3.40 0067  02.08.2006

@<TRIPOS>MOLECULE
ASD03950037
  83   88    0    0    0
SMALL
NO_CHARGES


@<TRIPOS>ATOM
   1 N1            -0.0169     1.3942     0.0097 N.pl3   
   2 N2             0.0021    -0.0041     0.0020 N.2     
   3 C3             1.2311    -0.4341    -0.0120 C.2     
   4 C4             2.1093     0.7334    -0.0141 C.ar    
   5 C5             3.4967     0.8990    -0.0264 C.ar    
   6 C6             4.0411     2.1756    -0.0248 C.ar    
   7 C7             3.2112     3.2979    -0.0104 C.ar    
   8 C8             1.8299     3.1501     0.0024 C.ar    
   9 C9             1.2663     1.8606    -0.0000 C.ar    
  10 C10            0.9576     4.3398     0.0186 C.2     
  11 O11           -0.2510     4.2074     0.0298 O.2     
  12 N12            1.5005     5.5734     0.0209 N.am    
  13 C13            5.5152     2.3486    -0.0379 C.ar    
  14 C14            6.0688     3.6270    -0.0363 C.ar    
  15 C15            7.4423     3.7820    -0.0486 C.ar    
  16 C16            8.2665     2.6684    -0.0630 C.ar    
  17 C17            7.7202     1.3983    -0.0646 C.ar    
  18 C18            6.3497     1.2331    -0.0461 C.ar    
  19 F19            7.9815     5.0207    -0.0472 F       
  20 N20            1.2106    -4.6672    -0.0358 N.am    
  21 C21            1.6134    -4.0366     1.2286 C.3     
  22 C22            1.1378    -2.5804     1.2268 C.3     
  23 C23            1.6687    -1.8761    -0.0239 C.3     
  24 C24            1.1164    -2.5662    -1.2733 C.3     
  25 C25            1.5918    -4.0222    -1.2998 C.3     
  26 S26            0.3495    -6.0817    -0.0365 S.o2    
  27 O27            0.6710    -6.6871    -1.2812 O.2     
  28 O28            0.6973    -6.7043     1.1926 O.2     
  29 C29           -1.3862    -5.5549    -0.0144 C.3     
  30 C30           -2.2932    -6.7870    -0.0133 C.3     
  31 N31           -7.7911    -5.7366     0.8093 N.3     
  32 C32           -8.2449    -5.1383     2.0712 C.3     
  33 C33           -9.6027    -4.4649     1.8588 C.3     
  34 C34          -10.6138    -5.5076     1.3740 C.3     
  35 C35          -10.0943    -6.1498     0.0847 C.3     
  36 C36           -8.7223    -6.7744     0.3485 C.3     
  37 N37           -3.6988    -6.3604     0.0047 N.3     
  38 C38           -4.5970    -7.4978    -0.2317 C.3     
  39 C39           -6.0377    -6.9956    -0.3511 C.3     
  40 C40           -6.4293    -6.2717     0.9401 C.3     
  41 C41           -5.4493    -5.1217     1.1886 C.3     
  42 C42           -4.0257    -5.6783     1.2633 C.3     
  43 H43           -0.8151     1.9454     0.0166 H       
  44 H44            4.1444     0.0349    -0.0369 H       
  45 H45            3.6454     4.2867    -0.0089 H       
  46 H46            2.4646     5.6790     0.0120 H       
  47 H47            0.9269     6.3556     0.0315 H       
  48 H48            5.4262     4.4950    -0.0259 H       
  49 H49            9.3393     2.7928    -0.0733 H       
  50 H50            8.3670     0.5335    -0.0757 H       
  51 H51            5.9249     0.2402    -0.0424 H       
  52 H52            1.1578    -4.5687     2.0637 H       
  53 H53            2.6989    -4.0663     1.3223 H       
  54 H54            0.0481    -2.5535     1.2245 H       
  55 H55            1.5127    -2.0740     2.1162 H       
  56 H56            2.7576    -1.9251    -0.0336 H       
  57 H57            0.0269    -2.5395    -1.2520 H       
  58 H58            1.4761    -2.0498    -2.1632 H       
  59 H59            2.6756    -4.0508    -1.4123 H       
  60 H60            1.1219    -4.5449    -2.1329 H       
  61 H61           -1.5751    -4.9638     0.8818 H       
  62 H62           -1.5941    -4.9515    -0.8980 H       
  63 H63           -2.1043    -7.3780    -0.9094 H       
  64 H64           -2.0854    -7.3904     0.8704 H       
  65 H65           -8.3400    -5.9164     2.8286 H       
  66 H66           -7.5192    -4.3957     2.4027 H       
  67 H67           -9.9465    -4.0344     2.7993 H       
  68 H68           -9.5054    -3.6774     1.1115 H       
  69 H69          -10.7404    -6.2748     2.1378 H       
  70 H70          -11.5711    -5.0239     1.1799 H       
  71 H71          -10.7894    -6.9232    -0.2423 H       
  72 H72          -10.0047    -5.3888    -0.6905 H       
  73 H73           -8.3433    -7.2201    -0.5711 H       
  74 H74           -8.8151    -7.5448     1.1140 H       
  75 H75           -4.3103    -8.0013    -1.1550 H       
  76 H76           -4.5241    -8.1974     0.6009 H       
  77 H77           -6.1144    -6.3065    -1.1922 H       
  78 H78           -6.7060    -7.8417    -0.5110 H       
  79 H79           -6.3914    -6.9708     1.7755 H       
  80 H80           -5.5168    -4.4032     0.3718 H       
  81 H81           -5.6973    -4.6291     2.1288 H       
  82 H82           -3.9554    -6.3864     2.0890 H       
  83 H83           -3.3240    -4.8602     1.4260 H       
@<TRIPOS>BOND
   1    1    2 1
   2    1    9 1
   3    1   43 1
   4    2    3 2
   5    3    4 1
   6    3   23 1
   7    4    5 ar
   8    4    9 ar
   9    5    6 ar
  10    5   44 1
  11    6    7 ar
  12    6   13 1
  13    7    8 ar
  14    7   45 1
  15    8    9 ar
  16    8   10 1
  17   10   11 2
  18   10   12 am
  19   12   46 1
  20   12   47 1
  21   13   14 ar
  22   13   18 ar
  23   14   15 ar
  24   14   48 1
  25   15   16 ar
  26   15   19 1
  27   16   17 ar
  28   16   49 1
  29   17   18 ar
  30   17   50 1
  31   18   51 1
  32   20   21 1
  33   20   25 1
  34   20   26 am
  35   21   22 1
  36   21   52 1
  37   21   53 1
  38   22   23 1
  39   22   54 1
  40   22   55 1
  41   23   24 1
  42   23   56 1
  43   24   25 1
  44   24   57 1
  45   24   58 1
  46   25   59 1
  47   25   60 1
  48   26   27 2
  49   26   28 2
  50   26   29 1
  51   29   30 1
  52   29   61 1
  53   29   62 1
  54   30   37 1
  55   30   63 1
  56   30   64 1
  57   31   32 1
  58   31   36 1
  59   31   40 1
  60   32   33 1
  61   32   65 1
  62   32   66 1
  63   33   34 1
  64   33   67 1
  65   33   68 1
  66   34   35 1
  67   34   69 1
  68   34   70 1
  69   35   36 1
  70   35   71 1
  71   35   72 1
  72   36   73 1
  73   36   74 1
  74   37   38 1
  75   37   42 1
  76   38   39 1
  77   38   75 1
  78   38   76 1
  79   39   40 1
  80   39   77 1
  81   39   78 1
  82   40   41 1
  83   40   79 1
  84   41   42 1
  85   41   80 1
  86   41   81 1
  87   42   82 1
  88   42   83 1

#	End of record

