#	Name: ASD03091141
#	Creating user name:	WinNT
#	Creation time:	15. 06. 2019 20:30

#	Modifying user name:	WinNT
#	Modification time:	15. 06. 2019 20:30

#	Program:	/corina/corina34_cracker 3.40 0067  02.08.2006

@<TRIPOS>MOLECULE
ASD03091141
  54   57    0    0    0
SMALL
NO_CHARGES


@<TRIPOS>ATOM
   1 N1             0.2437     2.0080     0.3914 N.am    
   2 C2             0.0515     0.5645     0.2051 C.3     
   3 C3             1.4418    -0.0919     0.1321 C.3     
   4 C4             2.3823     0.9809     0.7693 C.3     
   5 C5             1.6861     2.3007     0.3729 C.3     
   6 N6             1.9787    -0.7174     2.4215 N.3     
   7 C7             1.5011    -1.2568     1.1370 C.3     
   8 C8             2.1693     0.7400     2.2800 C.3     
   9 C9            -0.7393     2.9166     0.5478 C.2     
  10 O10           -1.9014     2.5616     0.5415 O.2     
  11 O11           -0.4337     4.2176     0.7110 O.3     
  12 C12           -0.2849     0.5534     6.5864 C.2     
  13 N13           -1.1641     0.2098     7.5484 N.am    
  14 C14           -1.8257    -0.9857     7.5380 C.2     
  15 C15           -1.6465    -1.8989     6.5704 C.2     
  16 C16           -0.7109    -1.6178     5.4794 C.ar    
  17 C17           -0.4853    -2.5310     4.4478 C.ar    
  18 C18            0.3977    -2.2244     3.4522 C.ar    
  19 C19            1.0799    -1.0072     3.4515 C.ar    
  20 C20            0.8743    -0.0846     4.4626 C.ar    
  21 C21           -0.0238    -0.3820     5.4866 C.ar    
  22 O22            0.2826     1.6304     6.6269 O.2     
  23 C23           -1.4187     1.1498     8.6428 C.3     
  24 C24           -1.5433     5.1400     0.8737 C.3     
  25 C25           -2.3537     4.7496     2.1114 C.3     
  26 C26           -1.0039     6.5615     1.0448 C.3     
  27 C27           -2.4414     5.0807    -0.3635 C.3     
  28 H28           -0.5061     0.1548     1.0474 H       
  29 H29           -0.4921     0.3813    -0.7218 H       
  30 H30            1.7299    -0.3718    -0.8812 H       
  31 H31            3.4199     0.9153     0.4417 H       
  32 H32            1.9961     2.6048    -0.6268 H       
  33 H33            1.9212     3.0825     1.0952 H       
  34 H34            0.5074    -1.6864     1.2634 H       
  35 H35            2.1913    -2.0200     0.7774 H       
  36 H36            3.0466     1.0622     2.8409 H       
  37 H37            1.2830     1.2719     2.6257 H       
  38 H38           -2.5180    -1.2042     8.3376 H       
  39 H39           -2.1875    -2.8332     6.5965 H       
  40 H40           -1.0067    -3.4767     4.4376 H       
  41 H41            0.5701    -2.9328     2.6555 H       
  42 H42            1.4044     0.8563     4.4582 H       
  43 H43           -2.2429     1.8093     8.3710 H       
  44 H44           -1.6790     0.5956     9.5446 H       
  45 H45           -0.5237     1.7439     8.8271 H       
  46 H46           -1.7138     4.7918     2.9928 H       
  47 H47           -3.1866     5.4421     2.2335 H       
  48 H48           -2.7379     3.7369     1.9895 H       
  49 H49           -0.4265     6.8396     0.1631 H       
  50 H50           -1.8368     7.2539     1.1670 H       
  51 H51           -0.3640     6.6037     1.9263 H       
  52 H52           -2.8256     4.0680    -0.4854 H       
  53 H53           -3.2743     5.7732    -0.2414 H       
  54 H54           -1.8640     5.3588    -1.2452 H       
@<TRIPOS>BOND
   1    1    2 1
   2    1    5 1
   3    1    9 am
   4    2    3 1
   5    2   28 1
   6    2   29 1
   7    3    4 1
   8    3    7 1
   9    3   30 1
  10    4    5 1
  11    4    8 1
  12    4   31 1
  13    5   32 1
  14    5   33 1
  15    6    7 1
  16    6    8 1
  17    6   19 1
  18    7   34 1
  19    7   35 1
  20    8   36 1
  21    8   37 1
  22    9   10 2
  23    9   11 1
  24   11   24 1
  25   12   13 am
  26   12   21 1
  27   12   22 2
  28   13   14 1
  29   13   23 1
  30   14   15 2
  31   14   38 1
  32   15   16 1
  33   15   39 1
  34   16   17 ar
  35   16   21 ar
  36   17   18 ar
  37   17   40 1
  38   18   19 ar
  39   18   41 1
  40   19   20 ar
  41   20   21 ar
  42   20   42 1
  43   23   43 1
  44   23   44 1
  45   23   45 1
  46   24   25 1
  47   24   27 1
  48   24   26 1
  49   25   46 1
  50   25   47 1
  51   25   48 1
  52   26   49 1
  53   26   50 1
  54   26   51 1
  55   27   52 1
  56   27   53 1
  57   27   54 1

#	End of record

