#	Name: ASD06590024
#	Creating user name:	WinNT
#	Creation time:	15. 06. 2019 21:06

#	Modifying user name:	WinNT
#	Modification time:	15. 06. 2019 21:06

#	Program:	/corina/corina34_cracker 3.40 0067  02.08.2006

@<TRIPOS>MOLECULE
ASD06590024
 371  376    0    0    0
SMALL
NO_CHARGES


@<TRIPOS>ATOM
   1 C1            -3.5282    16.7020     5.9907 C.2     
   2 O2            -3.0657    15.5928     6.1536 O.2     
   3 N3            -1.3859    17.4981     6.8068 N.am    
   4 C4            -2.7004    17.9187     6.3155 C.3     
   5 C5            -2.5258    18.7681     5.0549 C.3     
   6 C6            -1.7930    20.0634     5.4102 C.3     
   7 C7            -1.5080    20.8550     4.1323 C.3     
   8 C8            -2.6652    20.9025     6.3462 C.3     
   9 C9            -6.6182    16.0251     4.1586 C.2     
  10 O10           -6.6796    17.1589     3.7322 O.2     
  11 N11           -4.7805    16.8467     5.5139 N.am    
  12 C12           -5.5831    15.6639     5.1925 C.3     
  13 C13           -6.2803    15.1613     6.4583 C.3     
  14 C14           -5.2463    14.6851     7.4459 C.ar    
  15 C15           -4.7143    15.5678     8.3675 C.ar    
  16 C16           -3.7660    15.1339     9.2736 C.ar    
  17 C17           -3.3480    13.8112     9.2585 C.ar    
  18 O18           -2.4157    13.3818    10.1491 O.3     
  19 C19           -3.8838    12.9274     8.3330 C.ar    
  20 C20           -4.8356    13.3650     7.4324 C.ar    
  21 C21           -9.6490    14.4915     2.8074 C.2     
  22 O22           -9.6408    13.6094     3.6398 O.2     
  23 N23           -7.4759    15.0883     3.7077 N.am    
  24 C24           -8.4822    15.4394     2.7026 C.3     
  25 C25           -7.8656    15.3368     1.3061 C.3     
  26 C26           -6.7619    16.3860     1.1576 C.3     
  27 C27           -6.0619    16.2025    -0.1905 C.3     
  28 C28           -7.3760    17.7856     1.2270 C.3     
  29 C29          -12.5462    13.6313     0.7510 C.2     
  30 O30          -12.1446    14.2860    -0.1876 O.2     
  31 N31          -10.7016    14.6239     1.9762 N.am    
  32 C32          -11.8359    13.7023     2.0782 C.3     
  33 C33          -12.8060    14.2041     3.1497 C.3     
  34 C34          -12.1331    14.1587     4.4973 C.2     
  35 C35          -12.0011    15.1918     5.3511 C.2     
  36 N36          -11.3333    14.7167     6.4474 N.pl3   
  37 C37          -11.0802    13.4089     6.2253 C.2     
  38 N38          -11.5658    13.0810     5.0592 N.2     
  39 C39          -15.7530    12.3650    -0.4639 C.2     
  40 O40          -16.1587    12.1539     0.6594 O.2     
  41 N41          -13.6279    12.8403     0.6071 N.am    
  42 C42          -14.3185    12.7712    -0.6831 C.3     
  43 C43          -13.6272    11.7397    -1.5770 C.3     
  44 O44          -13.7697    10.4393    -1.0019 O.3     
  45 C45          -18.4221    11.0547    -2.5741 C.2     
  46 O46          -17.9493    11.3654    -3.6469 O.2     
  47 N47          -16.5853    12.2363    -1.5162 N.am    
  48 C48          -17.9472    11.7349    -1.3160 C.3     
  49 C49          -18.8776    12.9037    -0.9857 C.3     
  50 C50          -20.2664    12.3665    -0.6344 C.3     
  51 C51          -20.1839    11.5419     0.6518 C.3     
  52 C52          -21.2291    13.5376    -0.4285 C.3     
  53 C53          -21.3542     9.1839    -3.5651 C.2     
  54 O54          -21.9432     9.5637    -2.5752 O.2     
  55 N55          -19.3722    10.1012    -2.5071 N.am    
  56 C56          -19.8897     9.4952    -3.7364 C.3     
  57 C57          -19.1246     8.2030    -4.0293 C.3     
  58 C58          -19.1780     7.2895    -2.8031 C.3     
  59 C59          -20.6128     6.8018    -2.5927 C.3     
  60 C60          -17.6670     8.5359    -4.3541 C.3     
  61 C61          -23.7357     6.8929    -5.1282 C.2     
  62 O62          -22.8760     6.3752    -5.8092 O.2     
  63 N63          -22.0096     8.4834    -4.5119 N.am    
  64 C64          -23.4143     8.1186    -4.3124 C.3     
  65 C65          -24.3101     9.2765    -4.7570 C.3     
  66 C66          -24.0759    10.4654    -3.8611 C.ar    
  67 C67          -23.1061    11.3953    -4.1861 C.ar    
  68 C68          -22.8912    12.4859    -3.3643 C.ar    
  69 C69          -23.6465    12.6468    -2.2177 C.ar    
  70 C70          -24.6169    11.7174    -1.8932 C.ar    
  71 C71          -24.8347    10.6291    -2.7173 C.ar    
  72 C72          -26.7670     5.1513    -6.1964 C.2     
  73 O73          -27.4871     6.0383    -5.7895 O.2     
  74 N74          -24.9785     6.3721    -5.1010 N.am    
  75 C75          -25.2909     5.1806    -5.8940 C.3     
  76 C76          -24.9070     3.9275    -5.1047 C.3     
  77 C77          -23.3903     3.8949    -4.9055 C.3     
  78 S78          -22.9351     2.4091    -3.9696 S.3     
  79 C79          -21.1312     2.5468    -3.8375 C.3     
  80 C80          -29.1563     2.6886    -7.4570 C.2     
  81 O81          -28.3471     1.7875    -7.3918 O.2     
  82 N82          -27.2868     4.1393    -6.9190 N.am    
  83 C83          -28.7218     4.1108    -7.2129 C.3     
  84 C84          -29.0038     4.9514    -8.4598 C.3     
  85 C85          -32.0995     1.0286    -8.8517 C.2     
  86 O86          -32.5781     2.0755    -9.2336 O.2     
  87 N87          -30.4442     2.4179    -7.7476 N.am    
  88 C88          -30.8667     1.0354    -7.9849 C.3     
  89 C89          -31.1797     0.3611    -6.6477 C.3     
  90 C90          -29.9182     0.2577    -5.8298 C.ar    
  91 C91          -29.5672     1.2803    -4.9684 C.ar    
  92 C92          -28.4100     1.1854    -4.2182 C.ar    
  93 C93          -27.6041     0.0678    -4.3290 C.ar    
  94 C94          -27.9556    -0.9552    -5.1897 C.ar    
  95 C95          -29.1150    -0.8623    -5.9367 C.ar    
  96 C96          -34.6462    -1.4155    -9.8025 C.2     
  97 O97          -34.2393    -2.2331    -9.0044 O.2     
  98 N98          -32.6702    -0.1410    -9.2025 N.am    
  99 C99          -33.8686    -0.1476   -10.0451 C.3     
 100 C100         -33.4575    -0.0751   -11.5170 C.3     
 101 C101         -32.7877     1.2476   -11.7870 C.ar    
 102 C102         -31.4190     1.3724   -11.6381 C.ar    
 103 C103         -30.8046     2.5857   -11.8856 C.ar    
 104 C104         -31.5588     3.6741   -12.2825 C.ar    
 105 C105         -32.9273     3.5491   -12.4323 C.ar    
 106 C106         -33.5412     2.3346   -12.1889 C.ar    
 107 C107         -37.3825    -3.1921   -11.4516 C.2     
 108 O108         -37.3481    -2.4615   -12.4191 O.2     
 109 N109         -35.7937    -1.6409   -10.4725 N.am    
 110 C110         -36.5496    -2.8735   -10.2368 C.3     
 111 C111         -37.4652    -2.6863    -9.0254 C.3     
 112 O112         -38.4474    -1.6910    -9.3199 O.3     
 113 C113         -40.1597    -5.4362   -12.2353 C.2     
 114 O114         -40.3124    -5.7440   -11.0722 O.2     
 115 N115         -38.1656    -4.2889   -11.4629 N.am    
 116 C116         -38.9753    -4.5987   -12.6439 C.3     
 117 C117         -38.1274    -5.3733   -13.6547 C.3     
 118 C118         -36.9957    -4.4780   -14.1633 C.3     
 119 C119         -36.1605    -5.2409   -15.1590 C.2     
 120 O120         -36.4415    -6.3835   -15.4337 O.2     
 121 O121         -35.1043    -4.6512   -15.7408 O.3     
 122 C122         -42.6706    -7.4711   -13.9433 C.2     
 123 O123         -42.1000    -7.3801   -15.0097 O.2     
 124 N124         -41.0492    -5.8431   -13.1625 N.am    
 125 C125         -42.2006    -6.6573   -12.7653 C.3     
 126 C126         -43.3328    -5.7432   -12.2926 C.3     
 127 C127         -42.8989    -5.0089   -11.0224 C.3     
 128 C128         -44.0311    -4.0949   -10.5497 C.3     
 129 C129         -43.5972    -3.3606    -9.2795 C.3     
 130 N130         -44.6843    -2.4830    -8.8257 N.3     
 131 C131         -45.6399    -9.4307   -14.7836 C.2     
 132 O132         -46.2384    -9.0493   -13.8001 O.2     
 133 N133         -43.7250    -8.3002   -13.8119 N.am    
 134 C134         -44.1819    -9.0914   -14.9571 C.3     
 135 C135         -43.3648   -10.3820   -15.0440 C.3     
 136 C136         -41.9038   -10.0413   -15.3445 C.3     
 137 C137         -41.0866   -11.3319   -15.4313 C.3     
 138 C138         -39.6256   -10.9912   -15.7318 C.3     
 139 N139         -38.8410   -12.2303   -15.8152 N.3     
 140 C140         -48.0160   -11.7408   -16.3267 C.2     
 141 O141         -47.1456   -12.3027   -16.9573 O.2     
 142 N142         -46.2788   -10.1581   -15.7212 N.am    
 143 C143         -47.6962   -10.4880   -15.5525 C.3     
 144 C144         -48.5541    -9.3334   -16.0738 C.3     
 145 C145         -48.3247    -8.1123   -15.2209 C.ar    
 146 C146         -47.3261    -7.2157   -15.5537 C.ar    
 147 C147         -47.1135    -6.0959   -14.7732 C.ar    
 148 C148         -47.9033    -5.8710   -13.6550 C.ar    
 149 O149         -47.6964    -4.7698   -12.8859 O.3     
 150 C150         -48.9049    -6.7718   -13.3235 C.ar    
 151 C151         -49.1168    -7.8875   -14.1102 C.ar    
 152 C152         -49.8862   -13.0961   -18.5023 C.2     
 153 O153         -49.8486   -11.9418   -18.8573 O.2     
 154 N154         -49.2691   -12.2367   -16.3183 N.am    
 155 C155         -49.5800   -13.4545   -17.0710 C.3     
 156 C156         -50.7950   -14.1437   -16.4467 C.3     
 157 C157         -50.4388   -14.6303   -15.0405 C.3     
 158 C158         -51.6921   -15.1838   -14.3596 C.3     
 159 C159         -49.3810   -15.7316   -15.1347 C.3     
 160 O160         -50.2008   -14.0591   -19.3828 O.3     
 161 C161          -0.6746    18.3131     7.6107 C.2     
 162 O162          -1.1227    19.3947     7.9274 O.2     
 163 C163          14.4134    22.5045    17.9051 C.3     
 164 C164          13.0406    22.9438    17.3919 C.3     
 165 C165          12.4511    21.8439    16.5067 C.3     
 166 C166          11.0783    22.2832    15.9935 C.3     
 167 C167          10.4889    21.1833    15.1082 C.3     
 168 C168           9.1161    21.6226    14.5951 C.3     
 169 C169           8.5266    20.5227    13.7098 C.3     
 170 C170           7.1538    20.9620    13.1967 C.3     
 171 C171           6.5643    19.8621    12.3114 C.3     
 172 C172           5.1915    20.3014    11.7983 C.3     
 173 C173           4.6021    19.2015    10.9130 C.3     
 174 C174           3.2293    19.6408    10.3999 C.3     
 175 C175           2.6398    18.5410     9.5146 C.3     
 176 C176           1.2670    18.9803     9.0014 C.3     
 177 C177           0.6776    17.8804     8.1162 C.3     
 178 H178          -1.0276    16.6330     6.5536 H       
 179 H179          -3.2041    18.5066     7.0828 H       
 180 H180          -1.9446    18.2118     4.3196 H       
 181 H181          -3.5048    19.0068     4.6392 H       
 182 H182          -0.8527    19.8243     5.9069 H       
 183 H183          -2.4483    21.0941     3.6357 H       
 184 H184          -0.9859    21.7778     4.3855 H       
 185 H185          -0.8866    20.2572     3.4656 H       
 186 H186          -2.8683    20.3385     7.2565 H       
 187 H187          -2.1432    21.8253     6.5993 H       
 188 H188          -3.6056    21.1416     5.8495 H       
 189 H189          -5.1504    17.7338     5.3836 H       
 190 H190          -4.9348    14.8808     4.7994 H       
 191 H191          -6.8590    15.9721     6.9007 H       
 192 H192          -6.9460    14.3368     6.2033 H       
 193 H193          -5.0400    16.5975     8.3789 H       
 194 H194          -3.3502    15.8240     9.9929 H       
 195 H195          -2.7871    13.0484    10.9774 H       
 196 H196          -3.5598    11.8972     8.3190 H       
 197 H197          -5.2562    12.6763     6.7147 H       
 198 H198          -7.4268    14.1815     4.0487 H       
 199 H199          -8.8262    16.4594     2.8738 H       
 200 H200          -7.4422    14.3420     1.1681 H       
 201 H201          -8.6361    15.5112     0.5550 H       
 202 H202          -6.0368    16.2670     1.9626 H       
 203 H203          -6.7871    16.3215    -0.9956 H       
 204 H204          -5.2757    16.9499    -0.2963 H       
 205 H205          -5.6244    15.2054    -0.2400 H       
 206 H206          -7.8747    17.9163     2.1874 H       
 207 H207          -6.5897    18.5330     1.1212 H       
 208 H208          -8.1011    17.9046     0.4220 H       
 209 H209         -10.7082    15.3293     1.3105 H       
 210 H210         -11.4749    12.7106     2.3506 H       
 211 H211         -13.0981    15.2296     2.9237 H       
 212 H212         -13.6916    13.5688     3.1642 H       
 213 H213         -12.3541    16.2012     5.1998 H       
 214 H214         -11.0876    15.2245     7.2365 H       
 215 H215         -10.5649    12.7436     6.9022 H       
 216 H216         -13.9491    12.3166     1.3577 H       
 217 H217         -14.2871    13.7485    -1.1647 H       
 218 H218         -14.0847    11.7516    -2.5663 H       
 219 H219         -12.5687    11.9849    -1.6632 H       
 220 H220         -13.3544     9.7339    -1.5168 H       
 221 H221         -16.2825    12.4756    -2.4061 H       
 222 H222         -17.9541    11.0210    -0.4923 H       
 223 H223         -18.4771    13.4583    -0.1371 H       
 224 H224         -18.9514    13.5645    -1.8494 H       
 225 H225         -20.6287    11.7369    -1.4470 H       
 226 H226         -19.4606    10.7369     0.5215 H       
 227 H227         -19.8694    12.1833     1.4751 H       
 228 H228         -21.1630    11.1180     0.8750 H       
 229 H229         -21.2879    14.1251    -1.3447 H       
 230 H230         -22.2186    13.1549    -0.1782 H       
 231 H231         -20.8668    14.1673     0.3842 H       
 232 H232         -19.7134     9.8162    -1.6450 H       
 233 H233         -19.7606    10.1900    -4.5663 H       
 234 H234         -19.5798     7.6961    -4.8801 H       
 235 H235         -18.5223     6.4330    -2.9593 H       
 236 H236         -18.8496     7.8428    -1.9233 H       
 237 H237         -21.0299     6.4775    -3.5461 H       
 238 H238         -20.6135     5.9661    -1.8928 H       
 239 H239         -21.2173     7.6141    -2.1892 H       
 240 H240         -17.1815     8.9447    -3.4680 H       
 241 H241         -17.1484     7.6297    -4.6671 H       
 242 H242         -17.6326     9.2705    -5.1587 H       
 243 H243         -21.5511     8.2209    -5.3254 H       
 244 H244         -23.5888     7.9087    -3.2571 H       
 245 H245         -24.0727     9.5449    -5.7864 H       
 246 H246         -25.3550     8.9730    -4.6923 H       
 247 H247         -22.5160    11.2696    -5.0819 H       
 248 H248         -22.1330    13.2121    -3.6178 H       
 249 H249         -23.4782    13.4985    -1.5753 H       
 250 H250         -25.2068    11.8429    -0.9973 H       
 251 H251         -25.5954     9.9049    -2.4657 H       
 252 H252         -25.6660     6.7862    -4.5563 H       
 253 H253         -24.7292     5.2081    -6.8278 H       
 254 H254         -25.4007     3.9446    -4.1331 H       
 255 H255         -25.2202     3.0408    -5.6558 H       
 256 H256         -22.8966     3.8778    -5.8771 H       
 257 H257         -23.0771     4.7816    -4.3544 H       
 258 H258         -20.6940     2.5634    -4.8358 H       
 259 H259         -20.8745     3.4673    -3.3131 H       
 260 H260         -20.7411     1.6926    -3.2842 H       
 261 H261         -26.7109     3.4299    -7.2444 H       
 262 H262         -29.2742     4.5193    -6.3667 H       
 263 H263         -28.4514     4.5428    -9.3060 H       
 264 H264         -30.0714     4.9301    -8.6784 H       
 265 H265         -28.6895     5.9800    -8.2832 H       
 266 H266         -31.0915     3.1386    -7.7997 H       
 267 H267         -30.0664     0.4920    -8.4873 H       
 268 H268         -31.9166     0.9538    -6.1056 H       
 269 H269         -31.5783    -0.6372    -6.8286 H       
 270 H270         -30.1969     2.1535    -4.8818 H       
 271 H271         -28.1354     1.9847    -3.5457 H       
 272 H272         -26.6996    -0.0059    -3.7434 H       
 273 H273         -27.3258    -1.8282    -5.2766 H       
 274 H274         -29.3915    -1.6632    -6.6065 H       
 275 H275         -32.2874    -0.9783    -8.8970 H       
 276 H276         -34.4907     0.7129    -9.7988 H       
 277 H277         -32.7642    -0.8858   -11.7410 H       
 278 H278         -34.3424    -0.1694   -12.1465 H       
 279 H279         -30.8298     0.5220   -11.3280 H       
 280 H280         -29.7355     2.6834   -11.7686 H       
 281 H281         -31.0789     4.6222   -12.4753 H       
 282 H282         -33.5166     4.3995   -12.7420 H       
 283 H283         -34.6099     2.2360   -12.3095 H       
 284 H284         -36.1190    -0.9870   -11.1108 H       
 285 H285         -35.8572    -3.6934   -10.0457 H       
 286 H286         -37.9612    -3.6294    -8.7957 H       
 287 H287         -36.8725    -2.3692    -8.1674 H       
 288 H288         -39.0638    -1.5200    -8.5947 H       
 289 H289         -38.1932    -4.8732   -10.6891 H       
 290 H290         -39.3252    -3.6716   -13.0979 H       
 291 H291         -37.7046    -6.2555   -13.1740 H       
 292 H292         -38.7522    -5.6807   -14.4933 H       
 293 H293         -37.4184    -3.5958   -14.6441 H       
 294 H294         -36.3708    -4.1706   -13.3248 H       
 295 H295         -34.5989    -5.1805   -16.3728 H       
 296 H296         -40.9271    -5.5969   -14.0927 H       
 297 H297         -41.9106    -7.3256   -11.9545 H       
 298 H298         -43.5625    -5.0166   -13.0719 H       
 299 H299         -44.2189    -6.3419   -12.0815 H       
 300 H300         -42.6692    -5.7356   -10.2431 H       
 301 H301         -42.0128    -4.4103   -11.2336 H       
 302 H302         -44.2608    -3.3682   -11.3290 H       
 303 H303         -44.9172    -4.6935   -10.3386 H       
 304 H304         -43.3675    -4.0872    -8.5003 H       
 305 H305         -42.7111    -2.7619    -9.4907 H       
 306 H306         -45.5360    -3.0054    -8.6850 H       
 307 H307         -44.4221    -1.9864    -7.9874 H       
 308 H308         -44.1814    -8.3731   -12.9591 H       
 309 H309         -44.0495    -8.5152   -15.8728 H       
 310 H310         -43.4258   -10.9152   -14.0953 H       
 311 H311         -43.7624   -11.0109   -15.8405 H       
 312 H312         -41.8427    -9.5081   -16.2932 H       
 313 H313         -41.5061    -9.4124   -14.5480 H       
 314 H314         -41.1476   -11.8651   -14.4826 H       
 315 H315         -41.4843   -11.9608   -16.2278 H       
 316 H316         -39.5646   -10.4580   -16.6805 H       
 317 H317         -39.2279   -10.3623   -14.9353 H       
 318 H318         -39.2292   -12.8585   -16.5028 H       
 319 H319         -37.8717   -12.0319   -16.0131 H       
 320 H320         -45.8001   -10.4633   -16.5078 H       
 321 H321         -47.9082   -10.6499   -14.4957 H       
 322 H322         -48.2789    -9.1131   -17.1052 H       
 323 H323         -49.6064    -9.6143   -16.0305 H       
 324 H324         -46.7116    -7.3912   -16.4243 H       
 325 H325         -46.3329    -5.3962   -15.0332 H       
 326 H326         -48.2095    -3.9971   -13.1593 H       
 327 H327         -49.5208    -6.5992   -12.4533 H       
 328 H328         -49.8993    -8.5868   -13.8551 H       
 329 H329         -49.9652   -11.7873   -15.8140 H       
 330 H330         -48.7243   -14.1290   -17.0404 H       
 331 H331         -51.6230   -13.4372   -16.3878 H       
 332 H332         -51.0865   -14.9945   -17.0626 H       
 333 H333         -50.0457   -13.7979   -14.4568 H       
 334 H334         -51.4226   -15.6088   -13.3927 H       
 335 H335         -52.4124   -14.3787   -14.2145 H       
 336 H336         -52.1342   -15.9582   -14.9864 H       
 337 H337         -48.4881   -15.3373   -15.6198 H       
 338 H338         -49.1272   -16.0783   -14.1330 H       
 339 H339         -49.7741   -16.5640   -15.7185 H       
 340 H340         -50.3892   -13.7806   -20.2895 H       
 341 H341          14.8333    23.2881    18.5357 H       
 342 H342          14.3080    21.5881    18.4858 H       
 343 H343          15.0768    22.3243    17.0592 H       
 344 H344          12.3771    23.1240    18.2378 H       
 345 H345          13.1460    23.8601    16.8112 H       
 346 H346          13.1146    21.6637    15.6608 H       
 347 H347          12.3457    20.9275    17.0874 H       
 348 H348          10.4149    22.4634    16.8394 H       
 349 H349          11.1837    23.1996    15.4128 H       
 350 H350          11.1523    21.0031    14.2624 H       
 351 H351          10.3835    20.2669    15.6890 H       
 352 H352           8.4526    21.8028    15.4409 H       
 353 H353           9.2214    22.5390    14.0143 H       
 354 H354           9.1901    20.3425    12.8640 H       
 355 H355           8.4212    19.6063    14.2906 H       
 356 H356           6.4903    21.1422    14.0425 H       
 357 H357           7.2592    21.8784    12.6159 H       
 358 H358           7.2278    19.6819    11.4656 H       
 359 H359           6.4590    18.9458    12.8922 H       
 360 H360           4.5281    20.4816    12.6441 H       
 361 H361           5.2969    21.2178    11.2175 H       
 362 H362           5.2655    19.0214    10.0672 H       
 363 H363           4.4967    18.2852    11.4937 H       
 364 H364           2.5658    19.8210    11.2457 H       
 365 H365           3.3347    20.5572     9.8191 H       
 366 H366           3.3033    18.3608     8.6687 H       
 367 H367           2.5344    17.6246    10.0953 H       
 368 H368           0.6036    19.1604     9.8473 H       
 369 H369           1.3724    19.8966     8.4207 H       
 370 H370           0.5722    16.9640     8.6969 H       
 371 H371           1.3410    17.7002     7.2703 H       
@<TRIPOS>BOND
   1    1    2 2
   2    1    4 1
   3    1   11 am
   4    3  161 am
   5    3    4 1
   6    3  178 1
   7    4    5 1
   8    4  179 1
   9    5    6 1
  10    5  180 1
  11    5  181 1
  12    6    7 1
  13    6    8 1
  14    6  182 1
  15    7  183 1
  16    7  184 1
  17    7  185 1
  18    8  186 1
  19    8  187 1
  20    8  188 1
  21    9   10 2
  22    9   12 1
  23    9   23 am
  24   11   12 1
  25   11  189 1
  26   12   13 1
  27   12  190 1
  28   13   14 1
  29   13  191 1
  30   13  192 1
  31   14   15 ar
  32   14   20 ar
  33   15   16 ar
  34   15  193 1
  35   16   17 ar
  36   16  194 1
  37   17   18 1
  38   17   19 ar
  39   18  195 1
  40   19   20 ar
  41   19  196 1
  42   20  197 1
  43   21   22 2
  44   21   24 1
  45   21   31 am
  46   23   24 1
  47   23  198 1
  48   24   25 1
  49   24  199 1
  50   25   26 1
  51   25  200 1
  52   25  201 1
  53   26   27 1
  54   26   28 1
  55   26  202 1
  56   27  203 1
  57   27  204 1
  58   27  205 1
  59   28  206 1
  60   28  207 1
  61   28  208 1
  62   29   30 2
  63   29   32 1
  64   29   41 am
  65   31   32 1
  66   31  209 1
  67   32   33 1
  68   32  210 1
  69   33   34 1
  70   33  211 1
  71   33  212 1
  72   34   35 2
  73   34   38 1
  74   35   36 1
  75   35  213 1
  76   36   37 1
  77   36  214 1
  78   37   38 2
  79   37  215 1
  80   39   40 2
  81   39   42 1
  82   39   47 am
  83   41   42 1
  84   41  216 1
  85   42   43 1
  86   42  217 1
  87   43   44 1
  88   43  218 1
  89   43  219 1
  90   44  220 1
  91   45   46 2
  92   45   48 1
  93   45   55 am
  94   47   48 1
  95   47  221 1
  96   48   49 1
  97   48  222 1
  98   49   50 1
  99   49  223 1
 100   49  224 1
 101   50   51 1
 102   50   52 1
 103   50  225 1
 104   51  226 1
 105   51  227 1
 106   51  228 1
 107   52  229 1
 108   52  230 1
 109   52  231 1
 110   53   54 2
 111   53   56 1
 112   53   63 am
 113   55   56 1
 114   55  232 1
 115   56   57 1
 116   56  233 1
 117   57   58 1
 118   57   60 1
 119   57  234 1
 120   58   59 1
 121   58  235 1
 122   58  236 1
 123   59  237 1
 124   59  238 1
 125   59  239 1
 126   60  240 1
 127   60  241 1
 128   60  242 1
 129   61   62 2
 130   61   64 1
 131   61   74 am
 132   63   64 1
 133   63  243 1
 134   64   65 1
 135   64  244 1
 136   65   66 1
 137   65  245 1
 138   65  246 1
 139   66   67 ar
 140   66   71 ar
 141   67   68 ar
 142   67  247 1
 143   68   69 ar
 144   68  248 1
 145   69   70 ar
 146   69  249 1
 147   70   71 ar
 148   70  250 1
 149   71  251 1
 150   72   73 2
 151   72   75 1
 152   72   82 am
 153   74   75 1
 154   74  252 1
 155   75   76 1
 156   75  253 1
 157   76   77 1
 158   76  254 1
 159   76  255 1
 160   77   78 1
 161   77  256 1
 162   77  257 1
 163   78   79 1
 164   79  258 1
 165   79  259 1
 166   79  260 1
 167   80   81 2
 168   80   83 1
 169   80   87 am
 170   82   83 1
 171   82  261 1
 172   83   84 1
 173   83  262 1
 174   84  263 1
 175   84  264 1
 176   84  265 1
 177   85   86 2
 178   85   88 1
 179   85   98 am
 180   87   88 1
 181   87  266 1
 182   88   89 1
 183   88  267 1
 184   89   90 1
 185   89  268 1
 186   89  269 1
 187   90   91 ar
 188   90   95 ar
 189   91   92 ar
 190   91  270 1
 191   92   93 ar
 192   92  271 1
 193   93   94 ar
 194   93  272 1
 195   94   95 ar
 196   94  273 1
 197   95  274 1
 198   96   97 2
 199   96   99 1
 200   96  109 am
 201   98   99 1
 202   98  275 1
 203   99  100 1
 204   99  276 1
 205  100  101 1
 206  100  277 1
 207  100  278 1
 208  101  102 ar
 209  101  106 ar
 210  102  103 ar
 211  102  279 1
 212  103  104 ar
 213  103  280 1
 214  104  105 ar
 215  104  281 1
 216  105  106 ar
 217  105  282 1
 218  106  283 1
 219  107  108 2
 220  107  110 1
 221  107  115 am
 222  109  110 1
 223  109  284 1
 224  110  111 1
 225  110  285 1
 226  111  112 1
 227  111  286 1
 228  111  287 1
 229  112  288 1
 230  113  114 2
 231  113  116 1
 232  113  124 am
 233  115  116 1
 234  115  289 1
 235  116  117 1
 236  116  290 1
 237  117  118 1
 238  117  291 1
 239  117  292 1
 240  118  119 1
 241  118  293 1
 242  118  294 1
 243  119  120 2
 244  119  121 1
 245  121  295 1
 246  122  123 2
 247  122  125 1
 248  122  133 am
 249  124  125 1
 250  124  296 1
 251  125  126 1
 252  125  297 1
 253  126  127 1
 254  126  298 1
 255  126  299 1
 256  127  128 1
 257  127  300 1
 258  127  301 1
 259  128  129 1
 260  128  302 1
 261  128  303 1
 262  129  130 1
 263  129  304 1
 264  129  305 1
 265  130  306 1
 266  130  307 1
 267  131  132 2
 268  131  134 1
 269  131  142 am
 270  133  134 1
 271  133  308 1
 272  134  135 1
 273  134  309 1
 274  135  136 1
 275  135  310 1
 276  135  311 1
 277  136  137 1
 278  136  312 1
 279  136  313 1
 280  137  138 1
 281  137  314 1
 282  137  315 1
 283  138  139 1
 284  138  316 1
 285  138  317 1
 286  139  318 1
 287  139  319 1
 288  140  141 2
 289  140  143 1
 290  140  154 am
 291  142  143 1
 292  142  320 1
 293  143  144 1
 294  143  321 1
 295  144  145 1
 296  144  322 1
 297  144  323 1
 298  145  146 ar
 299  145  151 ar
 300  146  147 ar
 301  146  324 1
 302  147  148 ar
 303  147  325 1
 304  148  149 1
 305  148  150 ar
 306  149  326 1
 307  150  151 ar
 308  150  327 1
 309  151  328 1
 310  152  153 2
 311  152  155 1
 312  152  160 1
 313  154  155 1
 314  154  329 1
 315  155  156 1
 316  155  330 1
 317  156  157 1
 318  156  331 1
 319  156  332 1
 320  157  158 1
 321  157  159 1
 322  157  333 1
 323  158  334 1
 324  158  335 1
 325  158  336 1
 326  159  337 1
 327  159  338 1
 328  159  339 1
 329  160  340 1
 330  161  162 2
 331  161  177 1
 332  163  164 1
 333  163  341 1
 334  163  342 1
 335  163  343 1
 336  164  165 1
 337  164  344 1
 338  164  345 1
 339  165  166 1
 340  165  346 1
 341  165  347 1
 342  166  167 1
 343  166  348 1
 344  166  349 1
 345  167  168 1
 346  167  350 1
 347  167  351 1
 348  168  169 1
 349  168  352 1
 350  168  353 1
 351  169  170 1
 352  169  354 1
 353  169  355 1
 354  170  171 1
 355  170  356 1
 356  170  357 1
 357  171  172 1
 358  171  358 1
 359  171  359 1
 360  172  173 1
 361  172  360 1
 362  172  361 1
 363  173  174 1
 364  173  362 1
 365  173  363 1
 366  174  175 1
 367  174  364 1
 368  174  365 1
 369  175  176 1
 370  175  366 1
 371  175  367 1
 372  176  177 1
 373  176  368 1
 374  176  369 1
 375  177  370 1
 376  177  371 1

#	End of record

