#	Name: ASD01140382
#	Creating user name:	WinNT
#	Creation time:	15. 06. 2019 19:00

#	Modifying user name:	WinNT
#	Modification time:	15. 06. 2019 19:00

#	Program:	/corina/corina34_cracker 3.40 0067  02.08.2006

@<TRIPOS>MOLECULE
ASD01140382
  43   46    0    0    0
SMALL
NO_CHARGES


@<TRIPOS>ATOM
   1 S1            -0.0218     1.7597     0.0117 S.3     
   2 C2             0.0021    -0.0041     0.0020 C.2     
   3 N3             1.2500    -0.3827    -0.0119 N.2     
   4 N4             2.1147     0.5373    -0.0152 N.2     
   5 C5             1.6909     1.7654    -0.0046 C.2     
   6 O6             2.4757     2.8704    -0.0069 O.3     
   7 C7             6.0928     3.6686    -0.6241 C.3     
   8 C8             4.5688     3.8285    -0.7444 C.3     
   9 C9             3.8894     2.6620    -0.0213 C.3     
  10 C10            4.4061     2.5743     1.4176 C.3     
  11 C11            5.9412     2.4994     1.3913 C.3     
  12 C12            6.3449     1.4349     0.3453 C.3     
  13 C13            6.4451     2.2075    -0.9865 C.3     
  14 N14            6.4352     3.7800     0.8188 N.3     
  15 C15            7.8858     3.9158     1.0067 C.3     
  16 C16           -1.1795    -0.8928     0.0085 C.ar    
  17 C17           -1.0141    -2.2787    -0.0005 C.ar    
  18 C18           -2.1206    -3.1024     0.0061 C.ar    
  19 C19           -3.3924    -2.5574     0.0217 C.ar    
  20 C20           -3.5632    -1.1847     0.0307 C.ar    
  21 C21           -2.4646    -0.3497     0.0296 C.ar    
  22 C22           -1.9439    -4.5990    -0.0041 C.3     
  23 F23           -1.8759    -5.0695     1.3116 F       
  24 F24           -3.0303    -5.1923    -0.6559 F       
  25 F25           -0.7617    -4.9244    -0.6775 F       
  26 H26            6.6311     4.3876    -1.2417 H       
  27 H27            4.2632     4.7694    -0.2868 H       
  28 H28            4.2830     3.8222    -1.7962 H       
  29 H29            4.1134     1.7318    -0.5435 H       
  30 H30            4.0932     3.4588     1.9724 H       
  31 H31            4.0051     1.6806     1.8956 H       
  32 H32            6.3588     2.2890     2.3758 H       
  33 H33            7.3089     0.9964     0.6029 H       
  34 H34            5.5808     0.6604     0.2779 H       
  35 H35            5.7304     1.8129    -1.7087 H       
  36 H36            7.4585     2.1489    -1.3836 H       
  37 H37            8.2362     4.8117     0.4942 H       
  38 H38            8.1084     3.9954     2.0708 H       
  39 H39            8.3890     3.0411     0.5947 H       
  40 H40           -0.0220    -2.7053    -0.0130 H       
  41 H41           -4.2555    -3.2066     0.0264 H       
  42 H42           -4.5585    -0.7656     0.0425 H       
  43 H43           -2.5993     0.7218     0.0407 H       
@<TRIPOS>BOND
   1    1    2 1
   2    1    5 1
   3    2    3 2
   4    2   16 1
   5    3    4 1
   6    4    5 2
   7    5    6 1
   8    6    9 1
   9    7    8 1
  10    7   13 1
  11    7   14 1
  12    7   26 1
  13    8    9 1
  14    8   27 1
  15    8   28 1
  16    9   10 1
  17    9   29 1
  18   10   11 1
  19   10   30 1
  20   10   31 1
  21   11   12 1
  22   11   14 1
  23   11   32 1
  24   12   13 1
  25   12   33 1
  26   12   34 1
  27   13   35 1
  28   13   36 1
  29   14   15 1
  30   15   37 1
  31   15   38 1
  32   15   39 1
  33   16   17 ar
  34   16   21 ar
  35   17   18 ar
  36   17   40 1
  37   18   19 ar
  38   18   22 1
  39   19   20 ar
  40   19   41 1
  41   20   21 ar
  42   20   42 1
  43   21   43 1
  44   22   23 1
  45   22   24 1
  46   22   25 1

#	End of record

