#	Name: ASD02030354
#	Creating user name:	WinNT
#	Creation time:	15. 06. 2019 20:15

#	Modifying user name:	WinNT
#	Modification time:	15. 06. 2019 20:15

#	Program:	/corina/corina34_cracker 3.40 0067  02.08.2006

@<TRIPOS>MOLECULE
ASD02030354
  43   45    0    0    0
SMALL
NO_CHARGES


@<TRIPOS>ATOM
   1 N1            -0.0186     1.4697     0.0557 N.am    
   2 C2            -0.0045    -0.0006     0.0216 C.3     
   3 C3            -0.8414    -0.5228     1.1943 C.3     
   4 N4            -2.1771     0.0868     1.1481 N.3     
   5 C5            -2.1039     1.5443     1.3165 C.3     
   6 C6            -1.3183     2.1510     0.1550 C.3     
   7 C7             1.1293     2.1740     0.0030 C.2     
   8 O8             2.1986     1.5970     0.0403 O.2     
   9 C9             1.0880     3.6482    -0.1003 C.2     
  10 N10            2.1219     4.4583    -0.0257 N.2     
  11 N11           -0.0130     4.3975    -0.2931 N.2     
  12 C12            0.3690     5.6487    -0.3266 C.2     
  13 N13            1.7071     5.6710    -0.1580 N.pl3   
  14 C14            2.5103     6.8191    -0.1306 C.ar    
  15 C15            3.8819     6.7043     0.0512 C.ar    
  16 C16            4.6710     7.8378     0.0772 C.ar    
  17 C17            4.0961     9.0857    -0.0770 C.ar    
  18 C18            2.7301     9.2034    -0.2582 C.ar    
  19 C19            1.9366     8.0736    -0.2909 C.ar    
  20 C20            6.1599     7.7141     0.2745 C.3     
  21 C21           -3.5182     2.1274     1.3385 C.3     
  22 C22           -0.9705    -2.0439     1.0920 C.3     
  23 H23           -0.4331    -0.3492    -0.9180 H       
  24 H24            1.0206    -0.3591     0.1150 H       
  25 H25           -0.3544    -0.2610     2.1337 H       
  26 H26           -2.6555    -0.1549     0.2933 H       
  27 H27           -1.5993     1.7772     2.2541 H       
  28 H28           -1.1631     3.2149     0.3341 H       
  29 H29           -1.8708     2.0100    -0.7740 H       
  30 H30           -0.2707     6.5075    -0.4667 H       
  31 H31            4.3314     5.7298     0.1724 H       
  32 H32            4.7150     9.9705    -0.0555 H       
  33 H33            2.2839    10.1796    -0.3783 H       
  34 H34            0.8700     8.1661    -0.4328 H       
  35 H35            6.6481     7.6177    -0.6953 H       
  36 H36            6.5341     8.6026     0.7829 H       
  37 H37            6.3743     6.8324     0.8785 H       
  38 H38           -4.0771     1.6937     2.1678 H       
  39 H39           -3.4635     3.2088     1.4634 H       
  40 H40           -4.0217     1.8950     0.4001 H       
  41 H41            0.0210    -2.4956     1.1239 H       
  42 H42           -1.5658    -2.4149     1.9263 H       
  43 H43           -1.4586    -2.3047     0.1530 H       
@<TRIPOS>BOND
   1    1    2 1
   2    1    7 am
   3    1    6 1
   4    2    3 1
   5    2   23 1
   6    2   24 1
   7    3    4 1
   8    3   22 1
   9    3   25 1
  10    4    5 1
  11    4   26 1
  12    5    6 1
  13    5   21 1
  14    5   27 1
  15    6   28 1
  16    6   29 1
  17    7    8 2
  18    7    9 1
  19    9   10 2
  20    9   11 1
  21   10   13 1
  22   11   12 2
  23   12   13 1
  24   12   30 1
  25   13   14 1
  26   14   15 ar
  27   14   19 ar
  28   15   16 ar
  29   15   31 1
  30   16   17 ar
  31   16   20 1
  32   17   18 ar
  33   17   32 1
  34   18   19 ar
  35   18   33 1
  36   19   34 1
  37   20   35 1
  38   20   36 1
  39   20   37 1
  40   21   38 1
  41   21   39 1
  42   21   40 1
  43   22   41 1
  44   22   42 1
  45   22   43 1

#	End of record

