#	Name: ASD01881723
#	Creating user name:	WinNT
#	Creation time:	15. 06. 2019 19:43

#	Modifying user name:	WinNT
#	Modification time:	15. 06. 2019 19:43

#	Program:	/corina/corina34_cracker 3.40 0067  02.08.2006

@<TRIPOS>MOLECULE
ASD01881723
  46   49    0    0    0
SMALL
NO_CHARGES


@<TRIPOS>ATOM
   1 N1             0.6911     0.4763    -2.8412 N.pl3   
   2 N2             0.7454    -0.7922    -2.6233 N.2     
   3 N3             1.8757    -1.1413    -2.1173 N.2     
   4 C4             2.6547    -0.0502    -1.9746 C.ar    
   5 C5             1.8861     1.0297    -2.4489 C.ar    
   6 C6             3.9462     0.1817    -1.4936 C.ar    
   7 C7             4.4493     1.4677    -1.4909 C.ar    
   8 C8             3.6788     2.5277    -1.9630 C.ar    
   9 C9             2.4145     2.3140    -2.4367 C.ar    
  10 O10            5.7051     1.7008    -1.0239 O.3     
  11 N11            8.2218     5.0356    -1.1433 N.3     
  12 C12            7.7013     4.6484     0.1741 C.3     
  13 C13            7.2170     3.1975     0.1263 C.3     
  14 C14            6.1214     3.0649    -0.9351 C.3     
  15 C15            6.6749     3.5201    -2.2883 C.3     
  16 C16            7.1750     4.9617    -2.1705 C.3     
  17 C17            8.8222     6.3756    -1.0990 C.3     
  18 C18           10.1999     6.2956    -0.4385 C.3     
  19 F19           10.0530     5.9287     0.9036 F       
  20 F20           10.9796     5.3409    -1.1002 F       
  21 C21           -0.4454     1.2020    -3.4138 C.3     
  22 C22           -1.3770     1.6596    -2.2897 C.3     
  23 C23           -2.5682     2.5397    -2.6736 C.3     
  24 C24           -2.7936     1.0820    -2.2670 C.3     
  25 Br25           4.9960    -1.2539    -0.8512 Br      
  26 H26            4.0845     3.5286    -1.9548 H       
  27 H27            1.8264     3.1436    -2.8004 H       
  28 H28            8.4914     4.7432     0.9190 H       
  29 H29            6.8698     5.3002     0.4420 H       
  30 H30            8.0511     2.5435    -0.1280 H       
  31 H31            6.8164     2.9153     1.1000 H       
  32 H32            5.2706     3.6883    -0.6603 H       
  33 H33            7.5006     2.8712    -2.5806 H       
  34 H34            5.8871     3.4684    -3.0397 H       
  35 H35            6.3459     5.6120    -1.8916 H       
  36 H36            7.5829     5.2840    -3.1286 H       
  37 H37            8.9274     6.7603    -2.1135 H       
  38 H38            8.1809     7.0422    -0.5224 H       
  39 H39           10.6884     7.2682    -0.4979 H       
  40 H40           -0.0824     2.0717    -3.9615 H       
  41 H41           -0.9903     0.5464    -4.0930 H       
  42 H42           -0.8967     1.8532    -1.3305 H       
  43 H43           -2.8718     3.3120    -1.9668 H       
  44 H44           -2.6882     2.7927    -3.7270 H       
  45 H45           -3.0619     0.3761    -3.0530 H       
  46 H46           -3.2455     0.8953    -1.2929 H       
@<TRIPOS>BOND
   1    1    2 1
   2    1    5 1
   3    1   21 1
   4    2    3 2
   5    3    4 1
   6    4    5 ar
   7    4    6 ar
   8    5    9 ar
   9    6    7 ar
  10    6   25 1
  11    7    8 ar
  12    7   10 1
  13    8    9 ar
  14    8   26 1
  15    9   27 1
  16   10   14 1
  17   11   12 1
  18   11   16 1
  19   11   17 1
  20   12   13 1
  21   12   28 1
  22   12   29 1
  23   13   14 1
  24   13   30 1
  25   13   31 1
  26   14   15 1
  27   14   32 1
  28   15   16 1
  29   15   33 1
  30   15   34 1
  31   16   35 1
  32   16   36 1
  33   17   18 1
  34   17   37 1
  35   17   38 1
  36   18   19 1
  37   18   20 1
  38   18   39 1
  39   21   22 1
  40   21   40 1
  41   21   41 1
  42   22   23 1
  43   22   24 1
  44   22   42 1
  45   23   24 1
  46   23   43 1
  47   23   44 1
  48   24   45 1
  49   24   46 1

#	End of record

