#	Name: ASD04880507
#	Creating user name:	WinNT
#	Creation time:	15. 06. 2019 20:53

#	Modifying user name:	WinNT
#	Modification time:	15. 06. 2019 20:53

#	Program:	/corina/corina34_cracker 3.40 0067  02.08.2006

@<TRIPOS>MOLECULE
ASD04880507
  40   42    0    0    0
SMALL
NO_CHARGES


@<TRIPOS>ATOM
   1 C1            -0.0144     1.2118     0.0087 C.2     
   2 O2             0.0436    -0.0026     0.0315 O.2     
   3 N3             1.1185     1.9396    -0.0483 N.am    
   4 N4             1.1860     3.3240    -0.1910 N.2     
   5 C5             2.3862     3.7923    -0.2195 C.2     
   6 C6             3.3749     2.6563    -0.0848 C.3     
   7 C7             2.4860     1.4027     0.0365 C.3     
   8 C8             2.7406     5.2160    -0.3619 C.ar    
   9 C9             1.7356     6.1803    -0.4790 C.ar    
  10 C10            2.0716     7.5099    -0.6115 C.ar    
  11 C11            3.4069     7.8927    -0.6292 C.ar    
  12 C12            4.4090     6.9381    -0.5132 C.ar    
  13 C13            4.0822     5.6063    -0.3745 C.ar    
  14 C14            0.9889     8.5505    -0.7378 C.3     
  15 F15           -0.2633     7.9282    -0.6942 F       
  16 F16            1.0934     9.4626     0.3178 F       
  17 F17            1.1316     9.2266    -1.9542 F       
  18 O18            3.7336     9.2047    -0.7609 O.3     
  19 C19            5.1253     9.5289    -0.7716 C.3     
  20 C20           -1.3275     1.8895     0.0373 C.ar    
  21 C21           -2.5036     1.1430    -0.0542 C.ar    
  22 C22           -3.7276     1.7832    -0.0263 C.ar    
  23 C23           -3.7879     3.1628     0.0922 C.ar    
  24 C24           -2.6252     3.9063     0.1827 C.ar    
  25 C25           -1.3969     3.2780     0.1618 C.ar    
  26 F26           -4.8674     1.0634    -0.1151 F       
  27 H27            4.0097     2.5950    -0.9687 H       
  28 H28            3.9797     2.7803     0.8136 H       
  29 H29            2.6453     0.9085     0.9949 H       
  30 H30            2.6801     0.7159    -0.7873 H       
  31 H31            0.6973     5.8835    -0.4660 H       
  32 H32            5.4457     7.2402    -0.5278 H       
  33 H33            4.8620     4.8651    -0.2802 H       
  34 H34            5.5807     9.2062     0.1647 H       
  35 H35            5.6102     9.0212    -1.6054 H       
  36 H36            5.2465    10.6064    -0.8822 H       
  37 H37           -2.4567     0.0681    -0.1469 H       
  38 H38           -4.7467     3.6593     0.1137 H       
  39 H39           -2.6789     4.9810     0.2746 H       
  40 H40           -0.4903     3.8602     0.2375 H       
@<TRIPOS>BOND
   1    1    2 2
   2    1    3 am
   3    1   20 1
   4    3    4 1
   5    3    7 1
   6    4    5 2
   7    5    6 1
   8    5    8 1
   9    6    7 1
  10    6   27 1
  11    6   28 1
  12    7   29 1
  13    7   30 1
  14    8    9 ar
  15    8   13 ar
  16    9   10 ar
  17    9   31 1
  18   10   11 ar
  19   10   14 1
  20   11   12 ar
  21   11   18 1
  22   12   13 ar
  23   12   32 1
  24   13   33 1
  25   14   15 1
  26   14   16 1
  27   14   17 1
  28   18   19 1
  29   19   34 1
  30   19   35 1
  31   19   36 1
  32   20   21 ar
  33   20   25 ar
  34   21   22 ar
  35   21   37 1
  36   22   23 ar
  37   22   26 1
  38   23   24 ar
  39   23   38 1
  40   24   25 ar
  41   24   39 1
  42   25   40 1

#	End of record

