#	Name: ASD03430305
#	Creating user name:	WinNT
#	Creation time:	15. 06. 2019 20:40

#	Modifying user name:	WinNT
#	Modification time:	15. 06. 2019 20:40

#	Program:	/corina/corina34_cracker 3.40 0067  02.08.2006

@<TRIPOS>MOLECULE
ASD03430305
  44   48    0    0    0
SMALL
NO_CHARGES


@<TRIPOS>ATOM
   1 C1            -0.0166     1.3734     0.0096 C.ar    
   2 C2             0.0021    -0.0041     0.0020 C.ar    
   3 C3             1.2047    -0.6792    -0.0032 C.ar    
   4 C4             2.4071     0.0229     0.0082 C.ar    
   5 C5             2.3795     1.4121     0.0050 C.ar    
   6 C6             1.1702     2.0967     0.0021 C.ar    
   7 O7             3.4737    -0.8263     0.0364 O.3     
   8 C8             1.5610    -2.1407    -0.0313 C.3     
   9 C9             3.0518    -2.1329    -0.3990 C.3     
  10 C10            0.4415    -3.8680     1.0077 C.ar    
  11 C11            1.3128    -2.8173     1.2838 C.ar    
  12 C12            0.7475    -2.9072    -1.0344 C.2     
  13 N13            0.1319    -3.8945    -0.3543 N.am    
  14 O14            0.6609    -2.6816    -2.2229 O.2     
  15 C15            1.7539    -2.5933     2.5690 C.ar    
  16 C16            1.3342    -3.4155     3.5996 C.ar    
  17 C17            0.4709    -4.4635     3.3363 C.ar    
  18 C18            0.0258    -4.6918     2.0510 C.ar    
  19 C19           -0.7588    -4.8806    -0.9713 C.3     
  20 C20           -1.1508     2.3790     0.0370 C.3     
  21 C21           -0.4153     3.6813     0.4327 C.3     
  22 O22            0.9282     3.4370    -0.0165 O.3     
  23 C23           -2.1957    -4.3557    -0.9469 C.3     
  24 O24           -4.4679    -4.8952    -1.5685 O.3     
  25 C25           -3.1259    -5.3854    -1.5913 C.3     
  26 H26           -0.9262    -0.5560     0.0005 H       
  27 H27            3.3071     1.9654     0.0053 H       
  28 H28            3.1857    -2.2442    -1.4750 H       
  29 H29            3.5879    -2.9129     0.1416 H       
  30 H30            2.4281    -1.7745     2.7728 H       
  31 H31            1.6803    -3.2396     4.6074 H       
  32 H32            0.1443    -5.1061     4.1405 H       
  33 H33           -0.6483    -5.5120     1.8529 H       
  34 H34           -0.4520    -5.0517    -2.0032 H       
  35 H35           -0.7045    -5.8169    -0.4160 H       
  36 H36           -1.6102     2.4748    -0.9468 H       
  37 H37           -1.8936     2.1079     0.7873 H       
  38 H38           -0.8451     4.5397    -0.0837 H       
  39 H39           -0.4410     3.8264     1.5127 H       
  40 H40           -2.5025    -4.1845     0.0850 H       
  41 H41           -2.2500    -3.4193    -1.5022 H       
  42 H42           -5.1136    -5.4981    -1.9618 H       
  43 H43           -2.8191    -5.5566    -2.6231 H       
  44 H44           -3.0716    -6.3218    -1.0360 H       
@<TRIPOS>BOND
   1    1    2 ar
   2    1    6 ar
   3    1   20 1
   4    2    3 ar
   5    2   26 1
   6    3    4 ar
   7    3    8 1
   8    4    5 ar
   9    4    7 1
  10    5    6 ar
  11    5   27 1
  12    6   22 1
  13    7    9 1
  14    8    9 1
  15    8   11 1
  16    8   12 1
  17    9   28 1
  18    9   29 1
  19   10   11 ar
  20   10   13 1
  21   10   18 ar
  22   11   15 ar
  23   12   13 am
  24   12   14 2
  25   13   19 1
  26   15   16 ar
  27   15   30 1
  28   16   17 ar
  29   16   31 1
  30   17   18 ar
  31   17   32 1
  32   18   33 1
  33   19   23 1
  34   19   34 1
  35   19   35 1
  36   20   21 1
  37   20   36 1
  38   20   37 1
  39   21   22 1
  40   21   38 1
  41   21   39 1
  42   23   25 1
  43   23   40 1
  44   23   41 1
  45   24   25 1
  46   24   42 1
  47   25   43 1
  48   25   44 1

#	End of record

