#	Name: ASD01915074
#	Creating user name:	WinNT
#	Creation time:	15. 06. 2019 20:04

#	Modifying user name:	WinNT
#	Modification time:	15. 06. 2019 20:04

#	Program:	/corina/corina34_cracker 3.40 0067  02.08.2006

@<TRIPOS>MOLECULE
ASD01915074
  37   40    0    0    0
SMALL
NO_CHARGES


@<TRIPOS>ATOM
   1 C1            -0.0169     1.3920     0.0097 C.ar    
   2 C2             0.0021    -0.0041     0.0020 C.ar    
   3 N3            -1.1432    -0.6908     0.0092 N.ar    
   4 C4            -2.3145    -0.0966     0.0236 C.ar    
   5 C5            -2.4138     1.2879     0.0316 C.ar    
   6 C6            -1.2657     2.0482     0.0306 C.ar    
   7 C7             1.3288     1.9583    -0.0001 C.2     
   8 C8             2.3058     1.0548    -0.0143 C.2     
   9 S9             1.6661    -0.5767    -0.0169 S.3     
  10 C10            1.5854     3.4179     0.0048 C.ar    
  11 C11            1.2153     4.1897     1.1055 C.ar    
  12 S12            4.0232     1.4486    -0.0280 S.o2    
  13 O13            4.6885     0.3233    -0.5850 O.2     
  14 O14            4.1299     2.7595    -0.5661 O.2     
  15 C15            4.5472     1.5558     1.6509 C.ar    
  16 C16            5.0200     0.4312     2.2998 C.ar    
  17 C17            4.4904     2.7663     2.3166 C.ar    
  18 C18            4.9015     2.8519     3.6335 C.ar    
  19 C19            5.3699     1.7272     4.2864 C.ar    
  20 C20            5.4322     0.5158     3.6192 C.ar    
  21 C21            1.4569     5.5482     1.1051 C.ar    
  22 C22            2.0653     6.1452     0.0142 C.ar    
  23 C23            2.4348     5.3836    -1.0814 C.ar    
  24 C24            2.2030     4.0234    -1.0889 C.ar    
  25 F25            5.8894    -0.5842     4.2564 F       
  26 Cl26          -3.7604    -1.0573     0.0322 Cl      
  27 Cl27           2.3654     7.8551     0.0197 Cl      
  28 H28           -3.3828     1.7646     0.0427 H       
  29 H29           -1.3203     3.1268     0.0370 H       
  30 H30            0.7400     3.7251     1.9568 H       
  31 H31            5.0677    -0.5134     1.7785 H       
  32 H32            4.1249     3.6456     1.8072 H       
  33 H33            4.8571     3.7980     4.1524 H       
  34 H34            5.6915     1.7945     5.3152 H       
  35 H35            1.1706     6.1469     1.9572 H       
  36 H36            2.9091     5.8543    -1.9298 H       
  37 H37            2.4920     3.4301    -1.9439 H       
@<TRIPOS>BOND
   1    1    2 ar
   2    1    7 1
   3    1    6 ar
   4    2    3 ar
   5    2    9 1
   6    3    4 ar
   7    4    5 ar
   8    4   26 1
   9    5    6 ar
  10    5   28 1
  11    6   29 1
  12    7    8 2
  13    7   10 1
  14    8    9 1
  15    8   12 1
  16   10   11 ar
  17   10   24 ar
  18   11   21 ar
  19   11   30 1
  20   12   13 2
  21   12   14 2
  22   12   15 1
  23   15   16 ar
  24   15   17 ar
  25   16   20 ar
  26   16   31 1
  27   17   18 ar
  28   17   32 1
  29   18   19 ar
  30   18   33 1
  31   19   20 ar
  32   19   34 1
  33   20   25 1
  34   21   22 ar
  35   21   35 1
  36   22   23 ar
  37   22   27 1
  38   23   24 ar
  39   23   36 1
  40   24   37 1

#	End of record

