#	Name: ASD01208105
#	Creating user name:	WinNT
#	Creation time:	15. 06. 2019 19:09

#	Modifying user name:	WinNT
#	Modification time:	15. 06. 2019 19:09

#	Program:	/corina/corina34_cracker 3.40 0067  02.08.2006

@<TRIPOS>MOLECULE
ASD01208105
  56   59    0    0    0
SMALL
NO_CHARGES


@<TRIPOS>ATOM
   1 C1            -0.0650     1.4581    -0.0022 C.ar    
   2 C2             0.0533     0.0762    -0.0342 C.ar    
   3 C3            -1.0808    -0.7226     0.0105 C.ar    
   4 C4            -2.3361    -0.1427     0.0874 C.ar    
   5 C5            -2.4596     1.2473     0.1203 C.ar    
   6 C6            -1.3162     2.0464     0.0808 C.ar    
   7 C7            -3.7968     1.8706     0.2022 C.2     
   8 C8            -4.0546     3.2261     0.2410 C.2     
   9 N9            -4.9859     1.2045     0.2465 N.pl3   
  10 C10           -6.0044     2.1304     0.3190 C.2     
  11 C11           -5.4336     3.3927     0.3162 C.2     
  12 O12            1.0488     2.2356    -0.0468 O.3     
  13 C13            0.8509     3.6477    -0.1405 C.3     
  14 C14            2.0792     4.2932    -0.7851 C.3     
  15 O15            3.2102     4.1260     0.0721 O.3     
  16 C16            0.6458     4.2280     1.2602 C.3     
  17 O17           -0.9594    -2.0758    -0.0215 O.3     
  18 C18           -1.4243    -2.7313    -1.1146 C.ar    
  19 C19           -1.4237    -4.1222    -1.1461 C.ar    
  20 N20           -1.8852    -2.0482    -2.1525 N.ar    
  21 C21           -2.3381    -2.6899    -3.2163 C.ar    
  22 C22           -2.3314    -4.0716    -3.2468 C.ar    
  23 N23           -1.8771    -4.7566    -2.2108 N.ar    
  24 C24           -7.3890     1.8425     0.3818 C.2     
  25 N25           -8.3273     2.7663     0.4498 N.2     
  26 C26           -9.5430     2.2248     0.4976 C.2     
  27 C27           -9.3240     0.7258     0.4520 C.3     
  28 O28           -7.8952     0.5944     0.3730 O.3     
  29 S29           -2.9364    -4.9224    -4.6661 S.o2    
  30 C30           -1.4812    -5.1177    -5.7313 C.3     
  31 O31           -3.3603    -6.1828    -4.1650 O.2     
  32 O32           -3.8632    -4.0166    -5.2491 O.2     
  33 C33           -9.8600     0.0647     1.7235 C.3     
  34 O34          -10.6062     2.8104     0.5643 O.2     
  35 H35            1.0307    -0.3793    -0.0945 H       
  36 H36           -3.2181    -0.7650     0.1215 H       
  37 H37           -1.4072     3.1223     0.1060 H       
  38 H38           -3.3180     4.0155     0.2178 H       
  39 H39           -5.0964     0.2410     0.2292 H       
  40 H40           -5.9622     4.3334     0.3636 H       
  41 H41           -0.0290     3.8516    -0.7507 H       
  42 H42            2.2778     3.8174    -1.7455 H       
  43 H43            1.8930     5.3562    -0.9379 H       
  44 H44            4.0266     4.5119    -0.2741 H       
  45 H45            0.4948     5.3052     1.1887 H       
  46 H46           -0.2293     3.7682     1.7195 H       
  47 H47            1.5257     4.0242     1.8704 H       
  48 H48           -1.0523    -4.6820    -0.3005 H       
  49 H49           -2.7141    -2.1337    -4.0622 H       
  50 H50           -9.7948     0.2963    -0.4323 H       
  51 H51           -0.7204    -5.6941    -5.2050 H       
  52 H52           -1.7666    -5.6407    -6.6441 H       
  53 H53           -1.0822    -4.1356    -5.9850 H       
  54 H54          -10.9281     0.2630     1.8135 H       
  55 H55           -9.6934    -1.0112     1.6715 H       
  56 H56           -9.3406     0.4714     2.5911 H       
@<TRIPOS>BOND
   1    1    2 ar
   2    1   12 1
   3    1    6 ar
   4    2    3 ar
   5    2   35 1
   6    3    4 ar
   7    3   17 1
   8    4    5 ar
   9    4   36 1
  10    5    6 ar
  11    5    7 1
  12    6   37 1
  13    7    8 2
  14    7    9 1
  15    8   11 1
  16    8   38 1
  17    9   10 1
  18    9   39 1
  19   10   11 2
  20   10   24 1
  21   11   40 1
  22   12   13 1
  23   13   14 1
  24   13   16 1
  25   13   41 1
  26   14   15 1
  27   14   42 1
  28   14   43 1
  29   15   44 1
  30   16   45 1
  31   16   46 1
  32   16   47 1
  33   17   18 1
  34   18   19 ar
  35   18   20 ar
  36   19   23 ar
  37   19   48 1
  38   20   21 ar
  39   21   22 ar
  40   21   49 1
  41   22   23 ar
  42   22   29 1
  43   24   25 2
  44   24   28 1
  45   25   26 1
  46   26   27 1
  47   26   34 2
  48   27   28 1
  49   27   33 1
  50   27   50 1
  51   29   30 1
  52   29   31 2
  53   29   32 2
  54   30   51 1
  55   30   52 1
  56   30   53 1
  57   33   54 1
  58   33   55 1
  59   33   56 1

#	End of record

