#	Name: ASD08390047
#	Creating user name:	WinNT
#	Creation time:	15. 06. 2019 21:19

#	Modifying user name:	WinNT
#	Modification time:	15. 06. 2019 21:19

#	Program:	/corina/corina34_cracker 3.40 0067  02.08.2006

@<TRIPOS>MOLECULE
ASD08390047
  46   48    0    0    0
SMALL
NO_CHARGES


@<TRIPOS>ATOM
   1 C1            -0.0187     1.5258     0.0104 C.3     
   2 C2             1.4249     3.5975     0.0078 C.3     
   3 C3             1.4167     2.0553    -0.0004 C.3     
   4 N4             2.1012     3.9333    -1.2569 N.pl3   
   5 C5             2.4287     2.7715    -1.8896 C.2     
   6 N6             2.0857     1.7070    -1.2619 N.2     
   7 C7             0.0181     4.1376     0.0193 C.ar    
   8 C8             2.3751     5.2853    -1.7503 C.3     
   9 C9             3.7230     5.7386    -1.2516 C.ar    
  10 C10           -0.5454     4.5731     1.2041 C.ar    
  11 C11           -1.8359     5.0685     1.2146 C.ar    
  12 C12           -2.5627     5.1289     0.0403 C.ar    
  13 C13           -1.9989     4.6942    -1.1446 C.ar    
  14 C14           -0.7069     4.2028    -1.1559 C.ar    
  15 C15            4.8576     5.4854    -1.9996 C.ar    
  16 C16            3.8241     6.4126    -0.0490 C.ar    
  17 C17            5.0605     6.8284     0.4085 C.ar    
  18 C18            6.1958     6.5699    -0.3365 C.ar    
  19 C19            6.0940     5.9012    -1.5421 C.ar    
  20 C20            0.0021    -0.0041     0.0020 C.3     
  21 C21            2.1988     1.5076     1.1951 C.3     
  22 C22            3.1368     2.7401    -3.2195 C.3     
  23 H23           -0.5289     1.8773     0.9072 H       
  24 H24           -0.5459     1.8868    -0.8726 H       
  25 H25            1.9908     3.9752     0.8594 H       
  26 H26            2.3734     5.2815    -2.8403 H       
  27 H27            1.6056     5.9670    -1.3881 H       
  28 H28            0.0224     4.5260     2.1215 H       
  29 H29           -2.2764     5.4081     2.1404 H       
  30 H30           -3.5712     5.5153     0.0487 H       
  31 H31           -2.5668     4.7411    -2.0620 H       
  32 H32           -0.2663     3.8633    -2.0817 H       
  33 H33            4.7781     4.9625    -2.9412 H       
  34 H34            2.9371     6.6145     0.5331 H       
  35 H35            5.1394     7.3556     1.3478 H       
  36 H36            7.1618     6.8951     0.0207 H       
  37 H37            6.9810     5.6993    -2.1242 H       
  38 H38            0.5293    -0.3651     0.8851 H       
  39 H39           -1.0205    -0.3814     0.0098 H       
  40 H40            0.5123    -0.3556    -0.8948 H       
  41 H41            1.7415     1.8587     2.1201 H       
  42 H42            2.1817     0.4180     1.1720 H       
  43 H43            3.2304     1.8560     1.1447 H       
  44 H44            4.2145     2.7252    -3.0571 H       
  45 H45            2.8396     1.8465    -3.7683 H       
  46 H46            2.8683     3.6261    -3.7950 H       
@<TRIPOS>BOND
   1    1   20 1
   2    1    3 1
   3    1   23 1
   4    1   24 1
   5    2    3 1
   6    2    4 1
   7    2    7 1
   8    2   25 1
   9    3   21 1
  10    3    6 1
  11    4    5 1
  12    4    8 1
  13    5    6 2
  14    5   22 1
  15    7   10 ar
  16    7   14 ar
  17    8    9 1
  18    8   26 1
  19    8   27 1
  20    9   15 ar
  21    9   16 ar
  22   10   11 ar
  23   10   28 1
  24   11   12 ar
  25   11   29 1
  26   12   13 ar
  27   12   30 1
  28   13   14 ar
  29   13   31 1
  30   14   32 1
  31   15   19 ar
  32   15   33 1
  33   16   17 ar
  34   16   34 1
  35   17   18 ar
  36   17   35 1
  37   18   19 ar
  38   18   36 1
  39   19   37 1
  40   20   38 1
  41   20   39 1
  42   20   40 1
  43   21   41 1
  44   21   42 1
  45   21   43 1
  46   22   44 1
  47   22   45 1
  48   22   46 1

#	End of record

