#	Name: ASD01816649
#	Creating user name:	WinNT
#	Creation time:	15. 06. 2019 19:35

#	Modifying user name:	WinNT
#	Modification time:	15. 06. 2019 19:35

#	Program:	/corina/corina34_cracker 3.40 0067  02.08.2006

@<TRIPOS>MOLECULE
ASD01816649
  52   56    0    0    0
SMALL
NO_CHARGES


@<TRIPOS>ATOM
   1 C1            -0.0167     1.3812     0.0096 C.ar    
   2 C2             0.0021    -0.0041     0.0020 C.ar    
   3 C3             1.1984    -0.6908    -0.0131 C.ar    
   4 C4             2.4015     0.0061    -0.0204 C.ar    
   5 C5             2.3789     1.4106    -0.0127 C.ar    
   6 C6             1.1664     2.0916     0.0022 C.ar    
   7 N7             3.6054    -0.6770    -0.0347 N.pl3   
   8 C8             4.7971    -0.0584    -0.0423 C.2     
   9 C9             4.9001     1.3105    -0.0364 C.2     
  10 C10            3.6673     2.1304    -0.0207 C.2     
  11 C11            5.9972     2.2731    -0.0422 C.2     
  12 N12            5.4244     3.4961    -0.0313 N.am    
  13 N13            4.0322     3.3795    -0.0185 N.2     
  14 O14            7.1917     2.0232    -0.0541 O.2     
  15 C15            6.1581     4.7641    -0.0316 C.3     
  16 C16            3.5781    -2.1418    -0.0413 C.3     
  17 C17            3.5556    -2.6374    -1.4643 C.ar    
  18 C18            4.7426    -2.8868    -2.1276 C.ar    
  19 C19            4.7233    -3.3418    -3.4324 C.ar    
  20 C20            3.5145    -3.5477    -4.0753 C.ar    
  21 C21            2.3262    -3.2975    -3.4100 C.ar    
  22 C22            2.3480    -2.8476    -2.1035 C.ar    
  23 F23            3.4943    -3.9920    -5.3510 F       
  24 C24            5.7790     5.5744    -1.2743 C.3     
  25 C25            5.7948     5.5659     1.2213 C.3     
  26 C26            6.5171     6.9146     1.1851 C.3     
  27 N27            6.1204     7.6515    -0.0215 N.3     
  28 C28            6.5017     6.9229    -1.2381 C.3     
  29 C29            6.6866     9.0071    -0.0205 C.3     
  30 H30           -0.9602     1.9068     0.0170 H       
  31 H31           -0.9288    -0.5516     0.0083 H       
  32 H32            1.2005    -1.7708    -0.0189 H       
  33 H33            1.1508     3.1714     0.0084 H       
  34 H34            5.6984    -0.6535    -0.0530 H       
  35 H35            7.2297     4.5649    -0.0397 H       
  36 H36            4.4658    -2.5240     0.4626 H       
  37 H37            2.6862    -2.4908     0.4791 H       
  38 H38            5.6854    -2.7258    -1.6260 H       
  39 H39            5.6507    -3.5362    -3.9505 H       
  40 H40            1.3827    -3.4578    -3.9105 H       
  41 H41            1.4213    -2.6524    -1.5843 H       
  42 H42            6.0742     5.0272    -2.1696 H       
  43 H43            4.7016     5.7392    -1.2865 H       
  44 H44            4.7177     5.7305     1.2483 H       
  45 H45            6.1014     5.0126     2.1090 H       
  46 H46            6.2493     7.4938     2.0689 H       
  47 H47            7.5944     6.7494     1.1720 H       
  48 H48            7.5791     6.7577    -1.2398 H       
  49 H49            6.2228     7.5081    -2.1144 H       
  50 H50            7.7745     8.9464     0.0102 H       
  51 H51            6.3772     9.5307    -0.9250 H       
  52 H52            6.3282     9.5498     0.8542 H       
@<TRIPOS>BOND
   1    1    2 ar
   2    1    6 ar
   3    1   30 1
   4    2    3 ar
   5    2   31 1
   6    3    4 ar
   7    3   32 1
   8    4    5 ar
   9    4    7 1
  10    5    6 ar
  11    5   10 1
  12    6   33 1
  13    7    8 1
  14    7   16 1
  15    8    9 2
  16    8   34 1
  17    9   10 1
  18    9   11 1
  19   10   13 2
  20   11   12 am
  21   11   14 2
  22   12   13 1
  23   12   15 1
  24   15   24 1
  25   15   25 1
  26   15   35 1
  27   16   17 1
  28   16   36 1
  29   16   37 1
  30   17   18 ar
  31   17   22 ar
  32   18   19 ar
  33   18   38 1
  34   19   20 ar
  35   19   39 1
  36   20   21 ar
  37   20   23 1
  38   21   22 ar
  39   21   40 1
  40   22   41 1
  41   24   28 1
  42   24   42 1
  43   24   43 1
  44   25   26 1
  45   25   44 1
  46   25   45 1
  47   26   27 1
  48   26   46 1
  49   26   47 1
  50   27   28 1
  51   27   29 1
  52   28   48 1
  53   28   49 1
  54   29   50 1
  55   29   51 1
  56   29   52 1

#	End of record

