#	Name: ASD08070225
#	Creating user name:	WinNT
#	Creation time:	15. 06. 2019 21:14

#	Modifying user name:	WinNT
#	Modification time:	15. 06. 2019 21:14

#	Program:	/corina/corina34_cracker 3.40 0067  02.08.2006

@<TRIPOS>MOLECULE
ASD08070225
  39   40    0    0    0
SMALL
NO_CHARGES


@<TRIPOS>ATOM
   1 C1            -0.0527     1.3281    -0.1809 C.2     
   2 C2            -1.3849     1.6988    -0.1230 C.2     
   3 C3             1.0991     2.2088    -0.4325 C.2     
   4 N4             0.9030     3.5159    -0.6964 N.am    
   5 O5             2.2280     1.7572    -0.4022 O.2     
   6 C6             2.0509     4.4154    -0.8354 C.3     
   7 C7             2.7365     6.7578    -1.2739 C.ar    
   8 C8             1.5556     5.8325    -1.1310 C.3     
   9 C9             3.3164     6.9501    -2.5142 C.ar    
  10 C10            4.3990     7.7978    -2.6478 C.ar    
  11 C11            4.9042     8.4564    -1.5362 C.ar    
  12 C12            4.3205     8.2616    -0.2928 C.ar    
  13 C13            3.2346     7.4173    -0.1654 C.ar    
  14 O14            5.9694     9.2904    -1.6649 O.3     
  15 C15            6.4361     9.9347    -0.4779 C.3     
  16 C16            7.6316    10.8269    -0.8182 C.3     
  17 C17           -2.0861     0.5196     0.1389 C.2     
  18 N18           -1.2160    -0.4542     0.2242 N.2     
  19 N19           -0.0208    -0.0182     0.0481 N.pl3   
  20 C20            1.1911    -0.8408     0.0787 C.3     
  21 H21           -1.7951     2.6895    -0.2524 H       
  22 H22            0.0018     3.8610    -0.7944 H       
  23 H23            2.6254     4.4171     0.0910 H       
  24 H24            2.6835     4.0733    -1.6545 H       
  25 H25            0.9812     5.8307    -2.0573 H       
  26 H26            0.9230     6.1745    -0.3118 H       
  27 H27            2.9230     6.4370    -3.3792 H       
  28 H28            4.8519     7.9475    -3.6168 H       
  29 H29            4.7120     8.7732     0.5741 H       
  30 H30            2.7798     7.2654     0.8023 H       
  31 H31            5.6364    10.5439    -0.0567 H       
  32 H32            6.7402     9.1813     0.2488 H       
  33 H33            7.9876    11.3183     0.0873 H       
  34 H34            8.4313    10.2177    -1.2394 H       
  35 H35            7.3275    11.5802    -1.5449 H       
  36 H36           -3.1563     0.4278     0.2515 H       
  37 H37            1.4530    -1.1398    -0.9362 H       
  38 H38            2.0099    -0.2656     0.5107 H       
  39 H39            1.0120    -1.7292     0.6844 H       
@<TRIPOS>BOND
   1    1    2 2
   2    1    3 1
   3    1   19 1
   4    2   17 1
   5    2   21 1
   6    3    4 am
   7    3    5 2
   8    4    6 1
   9    4   22 1
  10    6    8 1
  11    6   23 1
  12    6   24 1
  13    7    8 1
  14    7    9 ar
  15    7   13 ar
  16    8   25 1
  17    8   26 1
  18    9   10 ar
  19    9   27 1
  20   10   11 ar
  21   10   28 1
  22   11   12 ar
  23   11   14 1
  24   12   13 ar
  25   12   29 1
  26   13   30 1
  27   14   15 1
  28   15   16 1
  29   15   31 1
  30   15   32 1
  31   16   33 1
  32   16   34 1
  33   16   35 1
  34   17   18 2
  35   17   36 1
  36   18   19 1
  37   19   20 1
  38   20   37 1
  39   20   38 1
  40   20   39 1

#	End of record

