#	Name: ASD01140348
#	Creating user name:	WinNT
#	Creation time:	15. 06. 2019 19:00

#	Modifying user name:	WinNT
#	Modification time:	15. 06. 2019 19:00

#	Program:	/corina/corina34_cracker 3.40 0067  02.08.2006

@<TRIPOS>MOLECULE
ASD01140348
  53   56    0    0    0
SMALL
NO_CHARGES


@<TRIPOS>ATOM
   1 C1            -0.0169     1.3931     0.0097 C.ar    
   2 C2             0.0021    -0.0041     0.0020 C.ar    
   3 C3             1.2150    -0.6813    -0.0011 C.ar    
   4 C4             2.4238     0.0272     0.0038 C.ar    
   5 C5             2.3885     1.4241    -0.0124 C.ar    
   6 C6             1.1680     2.0938     0.0022 C.ar    
   7 C7             3.6699    -0.7453     0.0574 C.2     
   8 N8             4.7612    -0.5275    -0.5862 N.2     
   9 C9             4.8896     0.5841    -1.5357 C.3     
  10 C10            4.6750     1.8655    -0.7726 C.2     
  11 N11            3.5561     2.1894    -0.0767 N.pl3   
  12 C12            3.7740     3.3973     0.5107 C.2     
  13 C13            5.5444     2.9033    -0.6407 C.2     
  14 N14            4.9543     3.8268     0.1641 N.2     
  15 C15            3.6708    -1.9189     0.9641 C.ar    
  16 N16            2.5818    -2.2103     1.6643 N.ar    
  17 C17            4.8128    -2.7093     1.0693 C.ar    
  18 C18            4.7985    -3.8027     1.9202 C.ar    
  19 C19            3.6418    -4.0680     2.6370 C.ar    
  20 C20            2.5411    -3.2426     2.4794 C.ar    
  21 C21           -1.2280    -0.7373    -0.0022 C.1     
  22 C22           -2.2364    -1.3384    -0.0056 C.1     
  23 Si23          -3.8684    -2.3113    -0.0112 Si      
  24 C24           -3.5025    -4.1379    -0.0212 C.3     
  25 C25           -4.8517    -1.8832     1.5122 C.3     
  26 C26           -4.8513    -1.8665    -1.5300 C.3     
  27 C27            6.8789     3.0072    -1.2558 C.2     
  28 O28            7.2958     2.1073    -1.9599 O.2     
  29 N29            7.6380     4.0995    -1.0384 N.am    
  30 C30            8.9651     4.2028    -1.6501 C.3     
  31 H31           -0.9586     1.9218     0.0170 H       
  32 H32            1.2263    -1.7613    -0.0069 H       
  33 H33            1.1507     3.1736     0.0075 H       
  34 H34            5.8861     0.5795    -1.9773 H       
  35 H35            4.1372     0.4900    -2.3187 H       
  36 H36            3.0818     3.9153     1.1579 H       
  37 H37            5.6968    -2.4734     0.4955 H       
  38 H38            5.6687    -4.4342     2.0224 H       
  39 H39            3.5981    -4.9129     3.3084 H       
  40 H40            1.6385    -3.4462     3.0365 H       
  41 H41           -2.9274    -4.3982     0.8675 H       
  42 H42           -4.4387    -4.6960    -0.0244 H       
  43 H43           -2.9272    -4.3884    -0.9125 H       
  44 H44           -5.0658    -0.8145     1.5181 H       
  45 H45           -5.7880    -2.4414     1.5090 H       
  46 H46           -4.2766    -2.1435     2.4008 H       
  47 H47           -4.2760    -2.1169    -2.4213 H       
  48 H48           -5.7876    -2.4246    -1.5332 H       
  49 H49           -5.0654    -0.7978    -1.5242 H       
  50 H50            7.3055     4.8172    -0.4769 H       
  51 H51            9.5883     3.3767    -1.3077 H       
  52 H52            8.8694     4.1604    -2.7351 H       
  53 H53            9.4251     5.1483    -1.3627 H       
@<TRIPOS>BOND
   1    1    2 ar
   2    1    6 ar
   3    1   31 1
   4    2    3 ar
   5    2   21 1
   6    3    4 ar
   7    3   32 1
   8    4    5 ar
   9    4    7 1
  10    5    6 ar
  11    5   11 1
  12    6   33 1
  13    7    8 2
  14    7   15 1
  15    8    9 1
  16    9   10 1
  17    9   34 1
  18    9   35 1
  19   10   11 1
  20   10   13 2
  21   11   12 1
  22   12   14 2
  23   12   36 1
  24   13   14 1
  25   13   27 1
  26   15   16 ar
  27   15   17 ar
  28   16   20 ar
  29   17   18 ar
  30   17   37 1
  31   18   19 ar
  32   18   38 1
  33   19   20 ar
  34   19   39 1
  35   20   40 1
  36   21   22 3
  37   22   23 1
  38   23   24 1
  39   23   25 1
  40   23   26 1
  41   24   41 1
  42   24   42 1
  43   24   43 1
  44   25   44 1
  45   25   45 1
  46   25   46 1
  47   26   47 1
  48   26   48 1
  49   26   49 1
  50   27   28 2
  51   27   29 am
  52   29   30 1
  53   29   50 1
  54   30   51 1
  55   30   52 1
  56   30   53 1

#	End of record

