#	Name: ASD06710073
#	Creating user name:	WinNT
#	Creation time:	15. 06. 2019 21:08

#	Modifying user name:	WinNT
#	Modification time:	15. 06. 2019 21:08

#	Program:	/corina/corina34_cracker 3.40 0067  02.08.2006

@<TRIPOS>MOLECULE
ASD06710073
  33   35    0    0    0
SMALL
NO_CHARGES


@<TRIPOS>ATOM
   1 C1            -0.0169     1.3926     0.0097 C.ar    
   2 C2             0.0021    -0.0041     0.0020 C.ar    
   3 C3             1.2343    -0.6789    -0.0134 C.ar    
   4 C4             2.4181     0.0420    -0.0204 C.ar    
   5 C5             2.3824     1.4217    -0.0123 C.ar    
   6 C6             1.1691     2.0928     0.0021 C.ar    
   7 N7             0.9332    -2.0312    -0.0178 N.pl3   
   8 C8            -0.4286    -2.1428    -0.0054 C.2     
   9 N9            -0.9727    -0.9506     0.0062 N.2     
  10 S10           -1.3200    -3.6627    -0.0045 S.3     
  11 C11           -3.0165    -3.0321     0.0148 C.3     
  12 C12           -3.9971    -4.2066     0.0183 C.3     
  13 O13           -5.3365    -3.7087     0.0335 O.3     
  14 C14           -6.3366    -4.6288     0.0384 C.ar    
  15 C15           -7.6609    -4.2155     0.0531 C.ar    
  16 C16           -8.6757    -5.1527     0.0581 C.ar    
  17 C17           -8.3726    -6.5017     0.0485 C.ar    
  18 C18           -7.0536    -6.9162     0.0344 C.ar    
  19 C19           -6.0352    -5.9829     0.0231 C.ar    
  20 H20           -0.9584     1.9217     0.0170 H       
  21 H21            3.3664    -0.4747    -0.0319 H       
  22 H22            3.3055     1.9823    -0.0174 H       
  23 H23            1.1540     3.1727     0.0077 H       
  24 H24            1.5703    -2.7625    -0.0278 H       
  25 H25           -3.1695    -2.4284     0.9093 H       
  26 H26           -3.1864    -2.4195    -0.8705 H       
  27 H27           -3.8440    -4.8103    -0.8762 H       
  28 H28           -3.8271    -4.8192     0.9036 H       
  29 H29           -7.8981    -3.1619     0.0610 H       
  30 H30           -9.7068    -4.8314     0.0699 H       
  31 H31           -9.1675    -7.2329     0.0525 H       
  32 H32           -6.8194    -7.9705     0.0276 H       
  33 H33           -5.0051    -6.3071     0.0071 H       
@<TRIPOS>BOND
   1    1    2 ar
   2    1    6 ar
   3    1   20 1
   4    2    3 ar
   5    2    9 1
   6    3    4 ar
   7    3    7 1
   8    4    5 ar
   9    4   21 1
  10    5    6 ar
  11    5   22 1
  12    6   23 1
  13    7    8 1
  14    7   24 1
  15    8    9 2
  16    8   10 1
  17   10   11 1
  18   11   12 1
  19   11   25 1
  20   11   26 1
  21   12   13 1
  22   12   27 1
  23   12   28 1
  24   13   14 1
  25   14   15 ar
  26   14   19 ar
  27   15   16 ar
  28   15   29 1
  29   16   17 ar
  30   16   30 1
  31   17   18 ar
  32   17   31 1
  33   18   19 ar
  34   18   32 1
  35   19   33 1

#	End of record

