#	Name: ASD03240838
#	Creating user name:	WinNT
#	Creation time:	15. 06. 2019 20:35

#	Modifying user name:	WinNT
#	Modification time:	15. 06. 2019 20:35

#	Program:	/corina/corina34_cracker 3.40 0067  02.08.2006

@<TRIPOS>MOLECULE
ASD03240838
  57   62    0    0    0
SMALL
NO_CHARGES


@<TRIPOS>ATOM
   1 C1            -0.0188     1.5336     0.0105 C.3     
   2 C2             0.0021    -0.0041     0.0020 C.3     
   3 C3             1.3815     0.0967    -0.6702 C.3     
   4 C4             1.5179     1.4762    -0.0045 C.3     
   5 O5            -0.5818     2.1049    -1.1721 O.3     
   6 C6             2.3746    -0.9181    -0.1653 C.ar    
   7 C7             3.3685    -1.3888    -1.0030 C.ar    
   8 C8             4.2794    -2.3196    -0.5398 C.ar    
   9 C9             4.1969    -2.7795     0.7612 C.ar    
  10 C10            3.2036    -2.3082     1.5991 C.ar    
  11 C11            2.2953    -1.3741     1.1373 C.ar    
  12 N12            3.0558    -4.9700     4.0066 N.pl3   
  13 C13            2.7798    -4.6162     5.3042 C.2     
  14 N14            3.5677    -3.7595     5.9718 N.2     
  15 C15            4.6263    -3.2176     5.4122 C.2     
  16 C16            4.9499    -3.5345     4.0822 C.2     
  17 C17            6.1179    -2.9531     3.4072 C.2     
  18 C18            6.2530    -3.0969     2.0730 C.2     
  19 C19            5.1894    -3.7951     1.2658 C.3     
  20 N20            4.4947    -4.7823     2.1008 N.pl3   
  21 C21            4.1473    -4.4398     3.3855 C.2     
  22 C22            1.6264    -5.2979     5.6685 C.2     
  23 C23            1.2230    -6.0574     4.5787 C.2     
  24 N24            2.0639    -5.8644     3.5894 N.2     
  25 C25            7.4453    -2.5693     1.4022 C.2     
  26 C26            8.7203    -3.0117     1.5965 C.2     
  27 C27            9.6713    -2.3537     0.8460 C.2     
  28 C28            9.2007    -1.3903     0.0490 C.2     
  29 S29            7.4544    -1.2716     0.2150 S.3     
  30 C30            0.0131    -6.9548     4.5369 C.3     
  31 C31           -0.5973     2.1316     1.2944 C.3     
  32 N32            1.3186     0.1546    -2.1367 N.3     
  33 H33            0.0329    -0.4458     0.9980 H       
  34 H34           -0.7629    -0.4476    -0.6353 H       
  35 H35            1.9766     2.2276    -0.6471 H       
  36 H36            1.9632     1.4391     0.9897 H       
  37 H37           -0.5977     3.0718    -1.1727 H       
  38 H38            3.4330    -1.0294    -2.0194 H       
  39 H39            5.0554    -2.6878    -1.1945 H       
  40 H40            3.1389    -2.6678     2.6155 H       
  41 H41            1.5215    -1.0031     1.7931 H       
  42 H42            5.2444    -2.5315     5.9721 H       
  43 H43            6.8623    -2.4144     3.9747 H       
  44 H44            5.6519    -4.3012     0.4184 H       
  45 H45            4.2836    -5.6621     1.7511 H       
  46 H46            1.1322    -5.2467     6.6274 H       
  47 H47            8.9648    -3.8103     2.2812 H       
  48 H48           10.7217    -2.5993     0.8988 H       
  49 H49            9.8038    -0.7769    -0.6039 H       
  50 H50           -0.8496    -6.3857     4.1907 H       
  51 H51            0.1991    -7.7840     3.8542 H       
  52 H52           -0.1854    -7.3440     5.5355 H       
  53 H53            0.0010     1.8098     2.1469 H       
  54 H54           -0.5800     3.2195     1.2285 H       
  55 H55           -1.6249     1.7917     1.4227 H       
  56 H56            2.2430     0.2199    -2.5360 H       
  57 H57            0.8193    -0.6393    -2.5089 H       
@<TRIPOS>BOND
   1    1    2 1
   2    1    4 1
   3    1    5 1
   4    1   31 1
   5    2    3 1
   6    2   33 1
   7    2   34 1
   8    3    4 1
   9    3    6 1
  10    3   32 1
  11    4   35 1
  12    4   36 1
  13    5   37 1
  14    6    7 ar
  15    6   11 ar
  16    7    8 ar
  17    7   38 1
  18    8    9 ar
  19    8   39 1
  20    9   10 ar
  21    9   19 1
  22   10   11 ar
  23   10   40 1
  24   11   41 1
  25   12   13 1
  26   12   21 1
  27   12   24 1
  28   13   14 1
  29   13   22 2
  30   14   15 2
  31   15   16 1
  32   15   42 1
  33   16   17 1
  34   16   21 2
  35   17   18 2
  36   17   43 1
  37   18   19 1
  38   18   25 1
  39   19   20 1
  40   19   44 1
  41   20   21 1
  42   20   45 1
  43   22   23 1
  44   22   46 1
  45   23   24 2
  46   23   30 1
  47   25   26 2
  48   25   29 1
  49   26   27 1
  50   26   47 1
  51   27   28 2
  52   27   48 1
  53   28   29 1
  54   28   49 1
  55   30   50 1
  56   30   51 1
  57   30   52 1
  58   31   53 1
  59   31   54 1
  60   31   55 1
  61   32   56 1
  62   32   57 1

#	End of record

