#	Name: ASD01190094
#	Creating user name:	WinNT
#	Creation time:	15. 06. 2019 19:07

#	Modifying user name:	WinNT
#	Modification time:	15. 06. 2019 19:07

#	Program:	/corina/corina34_cracker 3.40 0067  02.08.2006

@<TRIPOS>MOLECULE
ASD01190094
  74   79    0    0    0
SMALL
NO_CHARGES


@<TRIPOS>ATOM
   1 C1            -0.0187     1.5258     0.0104 C.3     
   2 C2            -0.1834     2.0572     1.4357 C.3     
   3 N3             3.0274     3.3715    -0.9230 N.pl3   
   4 C4             2.0253     3.0418    -0.0517 C.2     
   5 C5             1.2046     2.1426    -0.6174 C.2     
   6 C6             1.7237     1.8746    -1.9608 C.ar    
   7 C7             1.3172     1.0501    -3.0118 C.ar    
   8 C8             2.0381     1.0250    -4.1720 C.ar    
   9 C9             3.1723     1.8129    -4.3148 C.ar    
  10 C10            3.5914     2.6331    -3.2906 C.ar    
  11 C11            2.8721     2.6749    -2.1005 C.ar    
  12 C12            4.1021     4.3281    -0.6466 C.3     
  13 C13            3.7140     5.7033    -1.1935 C.3     
  14 C14            4.8363     6.7022    -0.9047 C.3     
  15 N15            4.4636     8.0226    -1.4298 N.3     
  16 C16            5.3999     9.0557    -0.9688 C.3     
  17 C17            4.9010    10.4328    -1.4123 C.3     
  18 C18            4.7903    10.4626    -2.9392 C.3     
  19 C19            3.8473     9.3463    -3.3966 C.3     
  20 C20            4.3767     8.0007    -2.8955 C.3     
  21 C21            4.2341    11.8164    -3.3852 C.3     
  22 O22            4.2402    11.8871    -4.8124 O.3     
  23 N23            0.3222    -4.0860     0.0404 N.pl3   
  24 N24           -0.9196    -4.3806    -0.5322 N.2     
  25 C25           -1.5615    -3.2790    -0.8005 C.2     
  26 C26           -0.7187    -2.1599    -0.3915 C.ar    
  27 C27           -0.8645    -0.7686    -0.4273 C.ar    
  28 C28            0.1373     0.0273     0.0479 C.ar    
  29 C29            1.2998    -0.5309     0.5655 C.ar    
  30 C30            1.4653    -1.8863     0.6106 C.ar    
  31 C31            0.4604    -2.7234     0.1335 C.ar    
  32 C32            1.2698    -5.0298     0.4573 C.ar    
  33 C33            0.8548    -6.2368     1.0046 C.ar    
  34 C34            1.7906    -7.1658     1.4150 C.ar    
  35 C35            3.1420    -6.8945     1.2810 C.ar    
  36 C36            3.5579    -5.6915     0.7354 C.ar    
  37 C37            2.6253    -4.7621     0.3185 C.ar    
  38 F38            4.0558    -7.8045     1.6835 F       
  39 F39           -0.3282     3.4482     1.4009 F       
  40 F40           -1.3190     1.4846     2.0185 F       
  41 F41            0.9464     1.7246     2.1909 F       
  42 O42           -1.1727     1.8654    -0.7609 O.3     
  43 H43            1.9116     3.4449     0.9437 H       
  44 H44            0.4362     0.4341    -2.9077 H       
  45 H45            1.7235     0.3868    -4.9845 H       
  46 H46            3.7317     1.7821    -5.2381 H       
  47 H47            4.4751     3.2421    -3.4113 H       
  48 H48            4.2597     4.3963     0.4298 H       
  49 H49            5.0205     3.9917    -1.1277 H       
  50 H50            3.5563     5.6350    -2.2698 H       
  51 H51            2.7955     6.0396    -0.7123 H       
  52 H52            4.9939     6.7705     0.1716 H       
  53 H53            5.7547     6.3659    -1.3859 H       
  54 H54            5.4662     9.0264     0.1188 H       
  55 H55            6.3848     8.8707    -1.3976 H       
  56 H56            3.9222    10.6242    -0.9727 H       
  57 H57            5.6042    11.1979    -1.0835 H       
  58 H58            5.7758    10.3099    -3.3790 H       
  59 H59            2.8519     9.5207    -2.9882 H       
  60 H60            3.7977     9.3352    -4.4854 H       
  61 H61            5.3664     7.8207    -3.3154 H       
  62 H62            3.6999     7.2052    -3.2074 H       
  63 H63            3.2131    11.9279    -3.0202 H       
  64 H64            4.8544    12.6156    -2.9792 H       
  65 H65            3.9000    12.7202    -5.1664 H       
  66 H66           -2.5425    -3.2069    -1.2465 H       
  67 H67           -1.7646    -0.3271    -0.8288 H       
  68 H68            2.0821     0.1147     0.9364 H       
  69 H69            2.3738    -2.3074     1.0151 H       
  70 H70           -0.1990    -6.4486     1.1096 H       
  71 H71            1.4683    -8.1044     1.8410 H       
  72 H72            4.6123    -5.4817     0.6321 H       
  73 H73            2.9501    -3.8261    -0.1114 H       
  74 H74           -1.1372     1.5592    -1.6775 H       
@<TRIPOS>BOND
   1    1    2 1
   2    1    5 1
   3    1   28 1
   4    1   42 1
   5    2   39 1
   6    2   40 1
   7    2   41 1
   8    3    4 1
   9    3   11 1
  10    3   12 1
  11    4    5 2
  12    4   43 1
  13    5    6 1
  14    6    7 ar
  15    6   11 ar
  16    7    8 ar
  17    7   44 1
  18    8    9 ar
  19    8   45 1
  20    9   10 ar
  21    9   46 1
  22   10   11 ar
  23   10   47 1
  24   12   13 1
  25   12   48 1
  26   12   49 1
  27   13   14 1
  28   13   50 1
  29   13   51 1
  30   14   15 1
  31   14   52 1
  32   14   53 1
  33   15   16 1
  34   15   20 1
  35   16   17 1
  36   16   54 1
  37   16   55 1
  38   17   18 1
  39   17   56 1
  40   17   57 1
  41   18   19 1
  42   18   21 1
  43   18   58 1
  44   19   20 1
  45   19   59 1
  46   19   60 1
  47   20   61 1
  48   20   62 1
  49   21   22 1
  50   21   63 1
  51   21   64 1
  52   22   65 1
  53   23   24 1
  54   23   31 1
  55   23   32 1
  56   24   25 2
  57   25   26 1
  58   25   66 1
  59   26   27 ar
  60   26   31 ar
  61   27   28 ar
  62   27   67 1
  63   28   29 ar
  64   29   30 ar
  65   29   68 1
  66   30   31 ar
  67   30   69 1
  68   32   33 ar
  69   32   37 ar
  70   33   34 ar
  71   33   70 1
  72   34   35 ar
  73   34   71 1
  74   35   36 ar
  75   35   38 1
  76   36   37 ar
  77   36   72 1
  78   37   73 1
  79   42   74 1

#	End of record

