#	Name: ASD02038129
#	Creating user name:	WinNT
#	Creation time:	15. 06. 2019 20:16

#	Modifying user name:	WinNT
#	Modification time:	15. 06. 2019 20:16

#	Program:	/corina/corina34_cracker 3.40 0067  02.08.2006

@<TRIPOS>MOLECULE
ASD02038129
  53   55    0    0    0
SMALL
NO_CHARGES


@<TRIPOS>ATOM
   1 C1            -0.6786    -0.4920    -0.5390 C.ar    
   2 C2            -0.3487    -1.8363    -0.5357 C.ar    
   3 C3             0.3180     0.4684    -0.4538 C.ar    
   4 C4             1.6437     0.0835    -0.3655 C.ar    
   5 C5             1.9749    -1.2648    -0.3623 C.ar    
   6 C6             0.9741    -2.2242    -0.4476 C.ar    
   7 N7             3.3141    -1.6564    -0.2735 N.3     
   8 C8             6.9614    -3.3496     1.0212 C.3     
   9 C9             7.6044    -2.6758     2.2060 C.2     
  10 C10            7.4708    -3.2795     3.5803 C.3     
  11 C11            8.2795    -1.5653     2.0412 C.2     
  12 O12            8.2615    -2.5330     4.5074 O.3     
  13 C13            8.2521    -2.9491     5.8019 C.ar    
  14 C14            8.9976    -2.2695     6.7540 C.ar    
  15 C15            8.9882    -2.6913     8.0689 C.ar    
  16 C16            8.2322    -3.7958     8.4379 C.ar    
  17 C17            7.4862    -4.4755     7.4845 C.ar    
  18 C18            7.4924    -4.0495     6.1709 C.ar    
  19 N19            8.2225    -4.2246     9.7722 N.am    
  20 C20            3.4366    -3.1208    -0.2867 C.3     
  21 C21            4.9177    -3.5063    -0.2684 C.3     
  22 N22            5.5543    -2.9382     0.9280 N.3     
  23 C23            5.4318    -1.4738     0.9412 C.3     
  24 C24            3.9508    -1.0882     0.9229 C.3     
  25 F25           -0.0058     1.7800    -0.4576 F       
  26 F26           -1.9727    -0.1151    -0.6308 F       
  27 C27            8.3491    -3.3270    10.7695 C.2     
  28 N28            8.4453    -3.7474    12.0464 N.am    
  29 O29            8.3765    -2.1378    10.5172 O.2     
  30 H30           -1.1265    -2.5827    -0.6017 H       
  31 H31            2.4204     0.8311    -0.2996 H       
  32 H32            1.2302    -3.2734    -0.4448 H       
  33 H33            7.4856    -3.0606     0.1102 H       
  34 H34            7.0163    -4.4312     1.1444 H       
  35 H35            6.4258    -3.2519     3.8892 H       
  36 H36            7.8159    -4.3132     3.5582 H       
  37 H37            8.7403    -1.0824     2.8903 H       
  38 H38            8.3753    -1.1327     1.0563 H       
  39 H39            9.5859    -1.4105     6.4668 H       
  40 H40            9.5689    -2.1623     8.8100 H       
  41 H41            6.8983    -5.3350     7.7709 H       
  42 H42            6.9122    -4.5782     5.4292 H       
  43 H43            8.1247    -5.1675     9.9778 H       
  44 H44            2.9421    -3.5350     0.5919 H       
  45 H45            2.9689    -3.5167    -1.1881 H       
  46 H46            5.0105    -4.5922    -0.2489 H       
  47 H47            5.4063    -3.1152    -1.1608 H       
  48 H48            5.8996    -1.0778     1.8426 H       
  49 H49            5.9263    -1.0596     0.0625 H       
  50 H50            3.8579    -0.0024     0.9034 H       
  51 H51            3.4621    -1.4794     1.8153 H       
  52 H52            8.4234    -4.6960    12.2476 H       
  53 H53            8.5364    -3.1013    12.7641 H       
@<TRIPOS>BOND
   1    1    2 ar
   2    1    3 ar
   3    1   26 1
   4    2    6 ar
   5    2   30 1
   6    3    4 ar
   7    3   25 1
   8    4    5 ar
   9    4   31 1
  10    5    6 ar
  11    5    7 1
  12    6   32 1
  13    7   20 1
  14    7   24 1
  15    8    9 1
  16    8   22 1
  17    8   33 1
  18    8   34 1
  19    9   11 2
  20    9   10 1
  21   10   12 1
  22   10   35 1
  23   10   36 1
  24   11   37 1
  25   11   38 1
  26   12   13 1
  27   13   14 ar
  28   13   18 ar
  29   14   15 ar
  30   14   39 1
  31   15   16 ar
  32   15   40 1
  33   16   17 ar
  34   16   19 1
  35   17   18 ar
  36   17   41 1
  37   18   42 1
  38   19   27 am
  39   19   43 1
  40   20   21 1
  41   20   44 1
  42   20   45 1
  43   21   22 1
  44   21   46 1
  45   21   47 1
  46   22   23 1
  47   23   24 1
  48   23   48 1
  49   23   49 1
  50   24   50 1
  51   24   51 1
  52   27   28 am
  53   27   29 2
  54   28   52 1
  55   28   53 1

#	End of record

