#	Name: ASD09116391
#	Creating user name:	WinNT
#	Creation time:	15. 06. 2019 21:21

#	Modifying user name:	WinNT
#	Modification time:	15. 06. 2019 21:21

#	Program:	/corina/corina34_cracker 3.40 0067  02.08.2006

@<TRIPOS>MOLECULE
ASD09116391
  72   78    0    0    0
SMALL
NO_CHARGES


@<TRIPOS>ATOM
   1 N1            -0.0225     1.4416    -0.7037 N.2     
   2 N2            -0.0333     0.1044    -1.1321 N.pl3   
   3 C3             1.2324     1.8211    -0.6652 C.2     
   4 N4             2.0088     0.7993    -1.0446 N.2     
   5 C5             1.2597    -0.2442    -1.3298 C.2     
   6 N6             1.7129    -1.4782    -1.7563 N.pl3   
   7 C7            -1.1557    -0.7054    -1.3175 C.ar    
   8 N8             1.6848     3.0860    -0.2898 N.pl3   
   9 C9             3.0587     3.3356    -0.1850 C.ar    
  10 C10            3.5546     4.6082    -0.4386 C.ar    
  11 C11            3.9242     2.3126     0.1779 C.ar    
  12 C12            5.2799     2.5581     0.2820 C.ar    
  13 C13            5.7774     3.8274     0.0243 C.ar    
  14 C14            4.9106     4.8542    -0.3347 C.ar    
  15 N15           -1.1042    -1.7274    -2.1583 N.ar    
  16 N16           -2.1102    -2.4980    -2.3719 N.ar    
  17 C17           -3.2700    -2.3166    -1.7609 C.ar    
  18 C18           -3.4103    -1.2679    -0.8377 C.ar    
  19 C19           -2.3327    -0.4419    -0.6117 C.ar    
  20 C20           -4.4412    -3.1761    -2.0424 C.ar    
  21 C21           -5.6760    -2.5650    -2.3077 C.ar    
  22 O22           -5.7626    -1.2110    -2.3038 O.3     
  23 C23           -5.7775    -0.5424    -1.0502 C.3     
  24 C24           -4.7131    -1.0950    -0.1059 C.3     
  25 C25           -4.3378    -4.5614    -2.0468 C.ar    
  26 C26           -5.4541    -5.3311    -2.3115 C.ar    
  27 C27           -6.6716    -4.7273    -2.5714 C.ar    
  28 C28           -6.7849    -3.3491    -2.5702 C.ar    
  29 N29            7.1525     4.0761     0.1304 N.3     
  30 C30            7.6333     3.8026     1.4907 C.3     
  31 C31            9.1005     4.2216     1.6085 C.3     
  32 C32            9.9325     3.4419     0.5866 C.3     
  33 C33            9.3809     3.7061    -0.8172 C.3     
  34 C34            7.9056     3.3020    -0.8646 C.3     
  35 N35           11.3323     3.8821     0.6548 N.3     
  36 C36           11.9144     3.5893     1.9775 C.3     
  37 C37           12.1498     3.2110    -0.3782 C.3     
  38 C38           13.5439     3.0344     0.2735 C.3     
  39 C39           13.1645     2.7153     1.7435 C.3     
  40 F40            5.3944     6.0904    -0.5857 F       
  41 H41            2.6637    -1.6329    -1.8697 H       
  42 H42            1.0801    -2.1895    -1.9421 H       
  43 H43            1.0477     3.7927    -0.1013 H       
  44 H44            2.8808     5.4049    -0.7173 H       
  45 H45            3.5376     1.3245     0.3793 H       
  46 H46            5.9526     1.7617     0.5643 H       
  47 H47           -2.3968     0.3848     0.0804 H       
  48 H48           -5.5934     0.5198    -1.2112 H       
  49 H49           -6.7587    -0.6668    -0.5922 H       
  50 H50           -5.0402    -2.0595     0.2824 H       
  51 H51           -4.5721    -0.4028     0.7242 H       
  52 H52           -3.3884    -5.0348    -1.8445 H       
  53 H53           -5.3761    -6.4082    -2.3160 H       
  54 H54           -7.5393    -5.3365    -2.7770 H       
  55 H55           -7.7387    -2.8852    -2.7737 H       
  56 H56            7.0360     4.3663     2.2073 H       
  57 H57            7.5420     2.7369     1.7008 H       
  58 H58            9.1907     5.2899     1.4121 H       
  59 H59            9.4615     4.0041     2.6137 H       
  60 H60            9.8738     2.3759     0.8063 H       
  61 H61            9.4755     4.7663    -1.0517 H       
  62 H62            9.9423     3.1202    -1.5450 H       
  63 H63            7.8130     2.2387    -0.6435 H       
  64 H64            7.5060     3.5022    -1.8588 H       
  65 H65           12.1987     4.5184     2.4714 H       
  66 H66           11.1924     3.0477     2.5887 H       
  67 H67           11.7223     2.2401    -0.6289 H       
  68 H68           12.2234     3.8354    -1.2686 H       
  69 H69           14.0843     2.2033    -0.1796 H       
  70 H70           14.1236     3.9554     0.2109 H       
  71 H71           13.9687     3.0038     2.4204 H       
  72 H72           12.9230     1.6586     1.8585 H       
@<TRIPOS>BOND
   1    1    2 1
   2    1    3 2
   3    2    7 1
   4    2    5 1
   5    3    4 1
   6    3    8 1
   7    4    5 2
   8    5    6 1
   9    6   41 1
  10    6   42 1
  11    7   15 ar
  12    7   19 ar
  13    8    9 1
  14    8   43 1
  15    9   10 ar
  16    9   11 ar
  17   10   14 ar
  18   10   44 1
  19   11   12 ar
  20   11   45 1
  21   12   13 ar
  22   12   46 1
  23   13   14 ar
  24   13   29 1
  25   14   40 1
  26   15   16 ar
  27   16   17 ar
  28   17   18 ar
  29   17   20 1
  30   18   19 ar
  31   18   24 1
  32   19   47 1
  33   20   21 ar
  34   20   25 ar
  35   21   22 1
  36   21   28 ar
  37   22   23 1
  38   23   24 1
  39   23   48 1
  40   23   49 1
  41   24   50 1
  42   24   51 1
  43   25   26 ar
  44   25   52 1
  45   26   27 ar
  46   26   53 1
  47   27   28 ar
  48   27   54 1
  49   28   55 1
  50   29   30 1
  51   29   34 1
  52   30   31 1
  53   30   56 1
  54   30   57 1
  55   31   32 1
  56   31   58 1
  57   31   59 1
  58   32   33 1
  59   32   35 1
  60   32   60 1
  61   33   34 1
  62   33   61 1
  63   33   62 1
  64   34   63 1
  65   34   64 1
  66   35   36 1
  67   35   37 1
  68   36   39 1
  69   36   65 1
  70   36   66 1
  71   37   38 1
  72   37   67 1
  73   37   68 1
  74   38   39 1
  75   38   69 1
  76   38   70 1
  77   39   71 1
  78   39   72 1

#	End of record

