#	Name: ASD01700001
#	Creating user name:	WinNT
#	Creation time:	15. 06. 2019 19:22

#	Modifying user name:	WinNT
#	Modification time:	15. 06. 2019 19:22

#	Program:	/corina/corina34_cracker 3.40 0067  02.08.2006

@<TRIPOS>MOLECULE
ASD01700001
  60   63    0    0    0
SMALL
NO_CHARGES


@<TRIPOS>ATOM
   1 C1             0.9830     0.0527    -1.7739 C.ar    
   2 C2             0.1162    -0.0070    -0.6980 C.ar    
   3 C3             0.4337     0.6309     0.4871 C.ar    
   4 C4             1.6195     1.3311     0.6027 C.ar    
   5 C5             2.4948     1.3951    -0.4726 C.ar    
   6 C6             2.1735     0.7523    -1.6667 C.ar    
   7 O7             3.0272     0.8110    -2.7236 O.3     
   8 C8             2.6322     0.1284    -3.9153 C.3     
   9 C9             3.7108     0.3058    -4.9859 C.3     
  10 C10            5.2068     1.0089    -0.1534 C.ar    
  11 C11            4.7985    -0.3163    -0.0431 C.ar    
  12 C12            5.7354    -1.3182     0.0884 C.ar    
  13 C13            7.0936    -1.0029     0.1110 C.ar    
  14 C14            7.5011     0.3265     0.0003 C.ar    
  15 C15            6.5616     1.3254    -0.1310 C.ar    
  16 C16            7.7148    -3.4150     0.3654 C.ar    
  17 C17            8.6937    -4.3909     0.4965 C.ar    
  18 N18            9.9774    -4.0633     0.5154 N.ar    
  19 C19           10.3794    -2.8102     0.4114 C.ar    
  20 C20            9.4711    -1.7825     0.2776 C.ar    
  21 C21            8.1032    -2.0794     0.2529 C.ar    
  22 C22            7.4820    -6.1367    -0.5227 C.3     
  23 C23            6.9477    -7.5509    -0.2715 C.3     
  24 N24            8.0869    -8.4374     0.0107 N.am    
  25 C25            9.0519    -8.0240     1.0408 C.3     
  26 C26            9.5033    -6.5912     0.7380 C.3     
  27 N27            8.3229    -5.7262     0.6096 N.3     
  28 S28            4.0072     2.2875    -0.3288 S.3     
  29 C29            8.2421    -9.5980    -0.6566 C.2     
  30 O30            9.2356   -10.2708    -0.4800 O.2     
  31 C31            7.1813   -10.0597    -1.6223 C.3     
  32 N32            6.9936     2.7364    -0.2490 N.pl3   
  33 O33            8.1794     3.0139    -0.2299 O.2     
  34 O34            6.1632     3.6199    -0.3651 O.2     
  35 H35            0.7336    -0.4502    -2.6966 H       
  36 H36           -0.8117    -0.5531    -0.7837 H       
  37 H37           -0.2468     0.5820     1.3243 H       
  38 H38            1.8648     1.8287     1.5294 H       
  39 H39            2.5042    -0.9325    -3.7009 H       
  40 H40            1.6906     0.5425    -4.2760 H       
  41 H41            3.8388     1.3668    -5.2004 H       
  42 H42            4.6523    -0.1082    -4.6252 H       
  43 H43            3.4095    -0.2148    -5.8949 H       
  44 H44            3.7465    -0.5600    -0.0603 H       
  45 H45            5.4180    -2.3469     0.1743 H       
  46 H46            8.5526     0.5726     0.0179 H       
  47 H47            6.6695    -3.6857     0.3462 H       
  48 H48           11.4359    -2.5870     0.4318 H       
  49 H49            9.8103    -0.7606     0.1935 H       
  50 H50            8.0745    -6.1289    -1.4375 H       
  51 H51            6.6459    -5.4448    -0.6245 H       
  52 H52            6.2714    -7.5403     0.5832 H       
  53 H53            6.4186    -7.9049    -1.1563 H       
  54 H54            8.5778    -8.0589     2.0217 H       
  55 H55            9.9139    -8.6908     1.0237 H       
  56 H56           10.1331    -6.2289     1.5504 H       
  57 H57           10.0677    -6.5771    -0.1944 H       
  58 H58            7.4355    -9.7259    -2.6283 H       
  59 H59            7.1226   -11.1480    -1.6045 H       
  60 H60            6.2183    -9.6392    -1.3324 H       
@<TRIPOS>BOND
   1    1    2 ar
   2    1    6 ar
   3    1   35 1
   4    2    3 ar
   5    2   36 1
   6    3    4 ar
   7    3   37 1
   8    4    5 ar
   9    4   38 1
  10    5    6 ar
  11    5   28 1
  12    6    7 1
  13    7    8 1
  14    8    9 1
  15    8   39 1
  16    8   40 1
  17    9   41 1
  18    9   42 1
  19    9   43 1
  20   10   11 ar
  21   10   15 ar
  22   10   28 1
  23   11   12 ar
  24   11   44 1
  25   12   13 ar
  26   12   45 1
  27   13   14 ar
  28   13   21 1
  29   14   15 ar
  30   14   46 1
  31   15   32 1
  32   16   17 ar
  33   16   21 ar
  34   16   47 1
  35   17   18 ar
  36   17   27 1
  37   18   19 ar
  38   19   20 ar
  39   19   48 1
  40   20   21 ar
  41   20   49 1
  42   22   23 1
  43   22   27 1
  44   22   50 1
  45   22   51 1
  46   23   24 1
  47   23   52 1
  48   23   53 1
  49   24   25 1
  50   24   29 am
  51   25   26 1
  52   25   54 1
  53   25   55 1
  54   26   27 1
  55   26   56 1
  56   26   57 1
  57   29   30 2
  58   29   31 1
  59   31   58 1
  60   31   59 1
  61   31   60 1
  62   32   33 2
  63   32   34 2

#	End of record

