#	Name: ASD03331531
#	Creating user name:	WinNT
#	Creation time:	15. 06. 2019 20:39

#	Modifying user name:	WinNT
#	Modification time:	15. 06. 2019 20:39

#	Program:	/corina/corina34_cracker 3.40 0067  02.08.2006

@<TRIPOS>MOLECULE
ASD03331531
  62   65    0    0    0
SMALL
NO_CHARGES


@<TRIPOS>ATOM
   1 C1             2.1628     1.2338    -1.1532 C.ar    
   2 C2             2.2297    -0.1317    -0.9705 C.ar    
   3 C3             1.0560    -0.8750    -0.8399 C.ar    
   4 C4            -0.1812    -0.2326    -0.8949 C.ar    
   5 C5            -0.2382     1.1353    -1.0783 C.ar    
   6 C6             0.9327     1.8689    -1.2074 C.ar    
   7 C7             1.1233    -2.3397    -0.6442 C.2     
   8 N8             2.1929    -3.1349    -0.9431 N.pl3   
   9 C9             1.8486    -4.4114    -0.6289 C.2     
  10 C10            0.5822    -4.3757    -0.1290 C.2     
  11 N11            0.1676    -3.0902    -0.1495 N.2     
  12 C12            3.4803    -2.6969    -1.4895 C.3     
  13 C13            4.1090    -3.8399    -2.2899 C.3     
  14 C14            4.9706    -4.7043    -1.3709 C.3     
  15 C15            4.1176    -5.3302    -0.2720 C.3     
  16 C16            2.7175    -5.6268    -0.8181 C.3     
  17 C17           -0.1948    -5.5316     0.3522 C.2     
  18 O18            0.2916    -6.6459     0.3232 O.2     
  19 N19           -1.4446    -5.3540     0.8244 N.am    
  20 F20            0.8729     3.2066    -1.3871 F       
  21 F21           -1.4351     1.7597    -1.1319 F       
  22 C22           -2.2171    -6.5032     1.3028 C.3     
  23 C23           -3.6891    -6.1999     1.1925 C.2     
  24 C24           -2.0695    -5.5134     3.5921 C.3     
  25 N25           -4.5625    -7.1896     0.9203 N.am    
  26 O26           -4.0879    -5.0652     1.3488 O.2     
  27 C27           -1.8622    -6.7834     2.7644 C.3     
  28 C28           -2.7631    -7.8963     3.3037 C.3     
  29 C29           -0.3991    -7.2208     2.8592 C.3     
  30 C30           -6.0056    -7.2847     0.6533 C.3     
  31 C31           -5.9585    -8.7160     1.2058 C.3     
  32 C32           -4.4907    -8.6490     0.7529 C.3     
  33 H33            3.0713     1.8097    -1.2498 H       
  34 H34            3.1895    -0.6251    -0.9288 H       
  35 H35           -1.0924    -0.8036    -0.7947 H       
  36 H36            3.3248    -1.8384    -2.1428 H       
  37 H37            4.1454    -2.4165    -0.6727 H       
  38 H38            3.3204    -4.4516    -2.7282 H       
  39 H39            4.7295    -3.4267    -3.0851 H       
  40 H40            5.4407    -5.4946    -1.9562 H       
  41 H41            5.7457    -4.0865    -0.9175 H       
  42 H42            4.5808    -6.2581     0.0633 H       
  43 H43            4.0412    -4.6385     0.5669 H       
  44 H44            2.2868    -6.4704    -0.2787 H       
  45 H45            2.7832    -5.8663    -1.8795 H       
  46 H46           -1.8326    -4.4653     0.8475 H       
  47 H47           -1.9800    -7.3779     0.6972 H       
  48 H48           -3.1118    -5.2018     3.5246 H       
  49 H49           -1.8166    -5.7131     4.6334 H       
  50 H50           -1.4276    -4.7206     3.2080 H       
  51 H51           -2.5691    -8.8184     2.7558 H       
  52 H52           -2.5545    -8.0518     4.3621 H       
  53 H53           -3.8077    -7.6115     3.1772 H       
  54 H54            0.2427    -6.4280     2.4751 H       
  55 H55           -0.1463    -7.4205     3.9005 H       
  56 H56           -0.2515    -8.1256     2.2695 H       
  57 H57           -6.6049    -6.6051     1.2592 H       
  58 H58           -6.2551    -7.2366    -0.4067 H       
  59 H59           -6.0939    -8.7831     2.2853 H       
  60 H60           -6.5639    -9.4306     0.6482 H       
  61 H61           -4.3402    -8.9641    -0.2796 H       
  62 H62           -3.8002    -9.1299     1.4458 H       
@<TRIPOS>BOND
   1    1    2 ar
   2    1    6 ar
   3    1   33 1
   4    2    3 ar
   5    2   34 1
   6    3    4 ar
   7    3    7 1
   8    4    5 ar
   9    4   35 1
  10    5    6 ar
  11    5   21 1
  12    6   20 1
  13    7    8 1
  14    7   11 2
  15    8    9 1
  16    8   12 1
  17    9   10 2
  18    9   16 1
  19   10   11 1
  20   10   17 1
  21   12   13 1
  22   12   36 1
  23   12   37 1
  24   13   14 1
  25   13   38 1
  26   13   39 1
  27   14   15 1
  28   14   40 1
  29   14   41 1
  30   15   16 1
  31   15   42 1
  32   15   43 1
  33   16   44 1
  34   16   45 1
  35   17   18 2
  36   17   19 am
  37   19   22 1
  38   19   46 1
  39   22   27 1
  40   22   23 1
  41   22   47 1
  42   23   25 am
  43   23   26 2
  44   24   27 1
  45   24   48 1
  46   24   49 1
  47   24   50 1
  48   25   30 1
  49   25   32 1
  50   27   28 1
  51   27   29 1
  52   28   51 1
  53   28   52 1
  54   28   53 1
  55   29   54 1
  56   29   55 1
  57   29   56 1
  58   30   31 1
  59   30   57 1
  60   30   58 1
  61   31   32 1
  62   31   59 1
  63   31   60 1
  64   32   61 1
  65   32   62 1

#	End of record

