#	Name: ASD00990036
#	Creating user name:	WinNT
#	Creation time:	15. 06. 2019 18:54

#	Modifying user name:	WinNT
#	Modification time:	15. 06. 2019 18:54

#	Program:	/corina/corina34_cracker 3.40 0067  02.08.2006

@<TRIPOS>MOLECULE
ASD00990036
  57   60    0    0    0
SMALL
NO_CHARGES


@<TRIPOS>ATOM
   1 C1             0.3334     0.7810    -1.1637 C.ar    
   2 C2             0.0949    -0.1902    -2.1181 C.ar    
   3 C3             1.0444    -0.4589    -3.0888 C.ar    
   4 C4             2.2349     0.2444    -3.1060 C.ar    
   5 C5             2.4763     1.2213    -2.1471 C.ar    
   6 C6             1.5208     1.4873    -1.1754 C.ar    
   7 N7             3.6784     1.9340    -2.1607 N.3     
   8 C8             4.8143     1.0567    -1.8450 C.3     
   9 C9             6.1160     1.8551    -1.9480 C.3     
  10 N10            6.0624     2.9959    -1.0232 N.3     
  11 C11            4.9265     3.8732    -1.3390 C.3     
  12 C12            3.6248     3.0748    -1.2360 C.3     
  13 C13            7.3260     3.7450    -1.0376 C.3     
  14 C14            8.4447     2.8689    -0.4704 C.3     
  15 C15            9.7806     3.6048    -0.5929 C.3     
  16 C16           10.9144     2.6820    -0.1416 C.3     
  17 N17           12.1935     3.3865    -0.2590 N.am    
  18 C18           13.3390     2.7655     0.0853 C.2     
  19 C19           14.6230     3.4727    -0.0325 C.2     
  20 O20           13.3109     1.6199     0.4935 O.2     
  21 C21           15.8397     2.9531     0.2766 C.2     
  22 N22           14.7849     4.7694    -0.4807 N.pl3   
  23 C23           16.8116     3.9512     0.0238 C.ar    
  24 C24           18.2061     3.9911     0.1533 C.ar    
  25 C25           16.1229     5.0840    -0.4519 C.ar    
  26 C26           16.8396     6.2296    -0.7871 C.ar    
  27 C27           18.2092     6.2453    -0.6477 C.ar    
  28 C28           18.8862     5.1265    -0.1781 C.ar    
  29 Cl29           0.7408    -1.6798    -4.2850 Cl      
  30 Cl30           3.4263    -0.0926    -4.3229 Cl      
  31 O31            8.1795     2.5892     0.9057 O.3     
  32 H32           -0.4115     0.9912    -0.4105 H       
  33 H33           -0.8342    -0.7407    -2.1061 H       
  34 H34            1.7055     2.2460    -0.4293 H       
  35 H35            4.7043     0.6697    -0.8320 H       
  36 H36            4.8400     0.2266    -2.5510 H       
  37 H37            6.9576     1.2138    -1.6860 H       
  38 H38            6.2396     2.2192    -2.9679 H       
  39 H39            4.9008     4.7032    -0.6330 H       
  40 H40            5.0365     4.2602    -2.3520 H       
  41 H41            2.7832     3.7160    -1.4979 H       
  42 H42            3.5012     2.7107    -0.2160 H       
  43 H43            7.5694     4.0273    -2.0618 H       
  44 H44            7.2231     4.6428    -0.4280 H       
  45 H45            8.4924     1.9339    -1.0286 H       
  46 H46            9.9408     3.8964    -1.6309 H       
  47 H47            9.7642     4.4947     0.0362 H       
  48 H48           10.7542     2.3903     0.8963 H       
  49 H49           10.9308     1.7920    -0.7707 H       
  50 H50           12.2160     4.3000    -0.5844 H       
  51 H51           16.0312     1.9573     0.6484 H       
  52 H52           14.0718     5.3604    -0.7689 H       
  53 H53           18.7412     3.1255     0.5149 H       
  54 H54           16.3228     7.1033    -1.1558 H       
  55 H55           18.7630     7.1350    -0.9087 H       
  56 H56           19.9611     5.1550    -0.0770 H       
  57 H57            8.1235     3.3771     1.4635 H       
@<TRIPOS>BOND
   1    1    2 ar
   2    1    6 ar
   3    1   32 1
   4    2    3 ar
   5    2   33 1
   6    3    4 ar
   7    3   29 1
   8    4    5 ar
   9    4   30 1
  10    5    6 ar
  11    5    7 1
  12    6   34 1
  13    7    8 1
  14    7   12 1
  15    8    9 1
  16    8   35 1
  17    8   36 1
  18    9   10 1
  19    9   37 1
  20    9   38 1
  21   10   11 1
  22   10   13 1
  23   11   12 1
  24   11   39 1
  25   11   40 1
  26   12   41 1
  27   12   42 1
  28   13   14 1
  29   13   43 1
  30   13   44 1
  31   14   15 1
  32   14   31 1
  33   14   45 1
  34   15   16 1
  35   15   46 1
  36   15   47 1
  37   16   17 1
  38   16   48 1
  39   16   49 1
  40   17   18 am
  41   17   50 1
  42   18   19 1
  43   18   20 2
  44   19   22 1
  45   19   21 2
  46   21   23 1
  47   21   51 1
  48   22   25 1
  49   22   52 1
  50   23   25 ar
  51   23   24 ar
  52   24   28 ar
  53   24   53 1
  54   25   26 ar
  55   26   27 ar
  56   26   54 1
  57   27   28 ar
  58   27   55 1
  59   28   56 1
  60   31   57 1

#	End of record

