#	Name: ASD03091162
#	Creating user name:	WinNT
#	Creation time:	15. 06. 2019 20:30

#	Modifying user name:	WinNT
#	Modification time:	15. 06. 2019 20:30

#	Program:	/corina/corina34_cracker 3.40 0067  02.08.2006

@<TRIPOS>MOLECULE
ASD03091162
  31   33    0    0    0
SMALL
NO_CHARGES


@<TRIPOS>ATOM
   1 N1             0.0121     1.1719     0.4582 N.2     
   2 C2             0.0305    -0.0525    -0.0005 C.2     
   3 N3             1.1615    -0.6517    -0.4852 N.am    
   4 C4             2.3362     0.0201    -0.5084 C.2     
   5 C5             2.3391     1.3991     0.0021 C.ar    
   6 C6             3.4975     2.1731     0.0201 C.ar    
   7 C7             3.4427     3.4647     0.5110 C.ar    
   8 C8             2.2420     3.9901     0.9841 C.ar    
   9 C9             1.0978     3.2448     0.9739 C.ar    
  10 C10            1.1232     1.9358     0.4834 C.ar    
  11 O11            3.3518    -0.4976    -0.9352 O.2     
  12 C12            1.1004    -2.0288    -0.9815 C.3     
  13 O13            4.5680     4.2269     0.5328 O.3     
  14 C14           -1.2292    -0.8259     0.0053 C.ar    
  15 C15           -2.0807    -0.7703     1.1100 C.ar    
  16 C16           -3.2559    -1.4948     1.1086 C.ar    
  17 C17           -3.5900    -2.2750     0.0142 C.ar    
  18 C18           -2.7497    -2.3340    -1.0829 C.ar    
  19 C19           -1.5751    -1.6102    -1.0962 C.ar    
  20 Cl20          -4.3165    -1.4281     2.4813 Cl      
  21 H21            4.4294     1.7680    -0.3457 H       
  22 H22            2.2160     5.0006     1.3643 H       
  23 H23            0.1748     3.6657     1.3446 H       
  24 H24            0.7944    -2.0247    -2.0277 H       
  25 H25            2.0834    -2.4911    -0.8923 H       
  26 H26            0.3778    -2.5950    -0.3938 H       
  27 H27            4.7062     4.7472    -0.2705 H       
  28 H28           -1.8206    -0.1624     1.9639 H       
  29 H29           -4.5104    -2.8400     0.0176 H       
  30 H30           -3.0157    -2.9449    -1.9329 H       
  31 H31           -0.9225    -1.6536    -1.9557 H       
@<TRIPOS>BOND
   1    1    2 2
   2    1   10 1
   3    2    3 1
   4    2   14 1
   5    3    4 am
   6    3   12 1
   7    4    5 1
   8    4   11 2
   9    5    6 ar
  10    5   10 ar
  11    6    7 ar
  12    6   21 1
  13    7    8 ar
  14    7   13 1
  15    8    9 ar
  16    8   22 1
  17    9   10 ar
  18    9   23 1
  19   12   24 1
  20   12   25 1
  21   12   26 1
  22   13   27 1
  23   14   15 ar
  24   14   19 ar
  25   15   16 ar
  26   15   28 1
  27   16   17 ar
  28   16   20 1
  29   17   18 ar
  30   17   29 1
  31   18   19 ar
  32   18   30 1
  33   19   31 1

#	End of record

