#	Name: ASD01900468
#	Creating user name:	WinNT
#	Creation time:	15. 06. 2019 19:52

#	Modifying user name:	WinNT
#	Modification time:	15. 06. 2019 19:52

#	Program:	/corina/corina34_cracker 3.40 0067  02.08.2006

@<TRIPOS>MOLECULE
ASD01900468
  39   42    0    0    0
SMALL
NO_CHARGES


@<TRIPOS>ATOM
   1 C1             0.3995     3.9871     0.6060 C.ar    
   2 C2             0.8402     5.0255     1.4485 C.ar    
   3 C3             2.2070     5.2838     1.5465 C.ar    
   4 C4             3.0740     4.5036     0.8072 C.ar    
   5 C5             2.5692     3.4956    -0.0039 C.ar    
   6 N6             1.2785     3.2652    -0.0850 N.ar    
   7 N7            -1.4103     4.9102     1.5503 N.2     
   8 N8            -0.2752     5.5802     2.0184 N.pl3   
   9 C9            -1.0613     3.9697     0.7131 C.2     
  10 N10           -1.9266     3.0974     0.0457 N.pl3   
  11 C11           -3.3113     3.2653     0.1557 C.ar    
  12 C12           -3.8428     4.5301     0.3735 C.ar    
  13 C13           -5.2103     4.6947     0.4816 C.ar    
  14 C14           -6.0525     3.5963     0.3730 C.ar    
  15 C15           -5.5220     2.3338     0.1561 C.ar    
  16 C16           -4.1553     2.1685     0.0417 C.ar    
  17 O17           -7.3987     3.7587     0.4799 O.3     
  18 C18           -8.2055     2.5855     0.3582 C.3     
  19 C19          -11.7453     3.6410    -0.4351 C.ar    
  20 C20          -10.4156     3.3053    -0.6061 C.ar    
  21 C21           -9.6586     2.9579     0.5024 C.ar    
  22 C22          -10.2704     2.9609     1.7466 C.ar    
  23 C23          -11.6050     3.3075     1.8399 C.ar    
  24 N24          -12.2943     3.6329     0.7638 N.ar    
  25 Cl25          -5.8755     6.2750     0.7537 Cl      
  26 H26            2.5776     6.0733     2.1835 H       
  27 H27            4.1388     4.6766     0.8591 H       
  28 H28            3.2519     2.8887    -0.5801 H       
  29 H29           -0.2775     6.3193     2.6465 H       
  30 H30           -1.5669     2.3758    -0.4937 H       
  31 H31           -3.1874     5.3842     0.4586 H       
  32 H32           -6.1779     1.4799     0.0721 H       
  33 H33           -3.7429     1.1855    -0.1321 H       
  34 H34           -8.0419     2.1319    -0.6194 H       
  35 H35           -7.9333     1.8749     1.1386 H       
  36 H36          -12.3406     3.9171    -1.2929 H       
  37 H37           -9.9718     3.3135    -1.5906 H       
  38 H38           -9.7112     2.6953     2.6315 H       
  39 H39          -12.0890     3.3122     2.8054 H       
@<TRIPOS>BOND
   1    1    2 ar
   2    1    6 ar
   3    1    9 1
   4    2    3 ar
   5    2    8 1
   6    3    4 ar
   7    3   26 1
   8    4    5 ar
   9    4   27 1
  10    5    6 ar
  11    5   28 1
  12    7    8 1
  13    7    9 2
  14    8   29 1
  15    9   10 1
  16   10   11 1
  17   10   30 1
  18   11   12 ar
  19   11   16 ar
  20   12   13 ar
  21   12   31 1
  22   13   14 ar
  23   13   25 1
  24   14   15 ar
  25   14   17 1
  26   15   16 ar
  27   15   32 1
  28   16   33 1
  29   17   18 1
  30   18   21 1
  31   18   34 1
  32   18   35 1
  33   19   20 ar
  34   19   24 ar
  35   19   36 1
  36   20   21 ar
  37   20   37 1
  38   21   22 ar
  39   22   23 ar
  40   22   38 1
  41   23   24 ar
  42   23   39 1

#	End of record

