#	Name: ASD03092011
#	Creating user name:	WinNT
#	Creation time:	15. 06. 2019 20:31

#	Modifying user name:	WinNT
#	Modification time:	15. 06. 2019 20:31

#	Program:	/corina/corina34_cracker 3.40 0067  02.08.2006

@<TRIPOS>MOLECULE
ASD03092011
  46   48    0    0    0
SMALL
NO_CHARGES


@<TRIPOS>ATOM
   1 C1             0.1872     1.3441     0.0889 C.ar    
   2 N2             0.1992     0.1615    -0.4958 N.ar    
   3 C3            -0.9074    -0.4258    -0.9106 C.ar    
   4 C4            -2.1350     0.1809    -0.7477 C.ar    
   5 C5            -2.1950     1.4366    -0.1322 C.ar    
   6 C6            -0.9975     2.0194     0.2970 C.ar    
   7 C7            -3.4891     2.1258     0.0641 C.2     
   8 C8            -3.6714     3.4678     0.2413 C.2     
   9 C9            -5.0450     3.6974     0.3893 C.2     
  10 N10           -5.6701     2.5456     0.3058 N.2     
  11 N11           -4.7193     1.5389     0.0954 N.pl3   
  12 C12           -4.9966     0.1082    -0.0549 C.3     
  13 N13           -5.6495     4.9440     0.5921 N.pl3   
  14 C14           -7.0423     5.0497     0.6134 C.ar    
  15 C15           -7.6513     6.0819     1.3159 C.ar    
  16 C16           -9.0287     6.1844     1.3349 C.ar    
  17 C17           -9.8018     5.2609     0.6562 C.ar    
  18 C18           -9.1988     4.2308    -0.0450 C.ar    
  19 C19           -7.8211     4.1262    -0.0726 C.ar    
  20 C20           -5.3552    -0.1915    -1.5117 C.3     
  21 C21           -5.5455    -1.6990    -1.6904 C.3     
  22 C22           -5.7809    -2.0116    -3.1695 C.3     
  23 C23            1.4848     1.9628     0.5412 C.3     
  24 O24           -6.5666     0.4853    -1.8530 O.3     
  25 Cl25         -10.1738     3.0732    -0.8953 Cl      
  26 H26           -0.8508    -1.3947    -1.3844 H       
  27 H27           -3.0365    -0.3053    -1.0903 H       
  28 H28           -0.9999     2.9871     0.7765 H       
  29 H29           -2.8948     4.2180     0.2638 H       
  30 H30           -4.1132    -0.4647     0.2271 H       
  31 H31           -5.8308    -0.1698     0.5893 H       
  32 H32           -5.1011     5.7342     0.7178 H       
  33 H33           -7.0484     6.8035     1.8471 H       
  34 H34           -9.5022     6.9868     1.8811 H       
  35 H35          -10.8785     5.3430     0.6734 H       
  36 H36           -7.3507     3.3228    -0.6200 H       
  37 H37           -4.5511     0.1528    -2.1621 H       
  38 H38           -4.6528    -2.2212    -1.3463 H       
  39 H39           -6.4061    -2.0281    -1.1080 H       
  40 H40           -4.9203    -1.6825    -3.7518 H       
  41 H41           -5.9165    -3.0857    -3.2967 H       
  42 H42           -6.6737    -1.4894    -3.5136 H       
  43 H43            1.9005     2.5660    -0.2659 H       
  44 H44            1.3024     2.5949     1.4103 H       
  45 H45            2.1899     1.1751     0.8064 H       
  46 H46           -7.3265     0.2277    -1.3133 H       
@<TRIPOS>BOND
   1    1    2 ar
   2    1   23 1
   3    1    6 ar
   4    2    3 ar
   5    3    4 ar
   6    3   26 1
   7    4    5 ar
   8    4   27 1
   9    5    6 ar
  10    5    7 1
  11    6   28 1
  12    7    8 2
  13    7   11 1
  14    8    9 1
  15    8   29 1
  16    9   10 2
  17    9   13 1
  18   10   11 1
  19   11   12 1
  20   12   20 1
  21   12   30 1
  22   12   31 1
  23   13   14 1
  24   13   32 1
  25   14   15 ar
  26   14   19 ar
  27   15   16 ar
  28   15   33 1
  29   16   17 ar
  30   16   34 1
  31   17   18 ar
  32   17   35 1
  33   18   19 ar
  34   18   25 1
  35   19   36 1
  36   20   21 1
  37   20   24 1
  38   20   37 1
  39   21   22 1
  40   21   38 1
  41   21   39 1
  42   22   40 1
  43   22   41 1
  44   22   42 1
  45   23   43 1
  46   23   44 1
  47   23   45 1
  48   24   46 1

#	End of record

