#	Name: ASD01200198
#	Creating user name:	WinNT
#	Creation time:	15. 06. 2019 19:08

#	Modifying user name:	WinNT
#	Modification time:	15. 06. 2019 19:08

#	Program:	/corina/corina34_cracker 3.40 0067  02.08.2006

@<TRIPOS>MOLECULE
ASD01200198
  57   59    0    0    0
SMALL
NO_CHARGES


@<TRIPOS>ATOM
   1 C1            -0.0171     1.3853     0.0060 C.ar    
   2 N2             0.0021    -0.0041     0.0020 N.am    
   3 C3            -1.1504    -0.6943     0.1110 C.2     
   4 C4            -1.1435    -2.1964    -0.0102 C.3     
   5 S5            -2.8340    -2.8261     0.1804 S.3     
   6 C6            -2.6233    -4.6195     0.0068 C.3     
   7 N7            -3.8236    -5.3191     0.4834 N.am    
   8 C8            -4.3249    -6.0105    -0.5573 C.2     
   9 C9            -3.4923    -5.8015    -1.7463 C.2     
  10 C10           -2.4825    -4.9890    -1.4516 C.2     
  11 C11           -3.7435    -6.4162    -3.0991 C.3     
  12 C12           -1.4019    -4.5242    -2.3936 C.3     
  13 O13           -5.3217    -6.7060    -0.5173 O.2     
  14 C14           -4.3738    -5.2727     1.8404 C.3     
  15 C15           -5.3587    -4.1368     1.9445 C.ar    
  16 C16           -6.6941    -4.3529     1.6588 C.ar    
  17 C17           -7.5989    -3.3133     1.7535 C.ar    
  18 C18           -7.1666    -2.0517     2.1357 C.ar    
  19 C19           -5.8261    -1.8375     2.4219 C.ar    
  20 C20           -4.9262    -2.8817     2.3311 C.ar    
  21 O21           -8.0547    -1.0272     2.2292 O.3     
  22 O22           -2.1929    -0.1065     0.3067 O.2     
  23 N23           -1.1792     2.0224     0.0192 N.ar    
  24 C24           -1.2464     3.3372     0.0235 C.ar    
  25 C25           -0.0812     4.1064     0.0137 C.ar    
  26 C26            1.1630     3.4574    -0.0003 C.ar    
  27 C27            1.1852     2.0883     0.0019 C.ar    
  28 C28           -0.1568     5.5792     0.0175 C.2     
  29 O29           -1.3567     6.1922     0.0305 O.3     
  30 O30            0.8629     6.2399     0.0089 O.2     
  31 C31           -1.3552     7.6442     0.0335 C.3     
  32 C32           -7.5388     0.2442     2.6284 C.3     
  33 F33           -6.9569     0.1342     3.8959 F       
  34 F34           -6.5739     0.6660     1.7074 F       
  35 H35            0.8449    -0.4772    -0.0793 H       
  36 H36           -0.7583    -2.4800    -0.9896 H       
  37 H37           -0.5079    -2.6207     0.7670 H       
  38 H38           -1.7482    -4.9507     0.5659 H       
  39 H39           -4.6380    -7.0377    -3.0553 H       
  40 H40           -3.8858    -5.6262    -3.8364 H       
  41 H41           -2.8886    -7.0295    -3.3839 H       
  42 H42           -1.5671    -4.9596    -3.3792 H       
  43 H43           -1.4273    -3.4371    -2.4677 H       
  44 H44           -0.4296    -4.8400    -2.0153 H       
  45 H45           -4.8793    -6.2131     2.0598 H       
  46 H46           -3.5653    -5.1193     2.5552 H       
  47 H47           -7.0301    -5.3351     1.3609 H       
  48 H48           -8.6419    -3.4825     1.5299 H       
  49 H49           -5.4871    -0.8562     2.7197 H       
  50 H50           -3.8826    -2.7155     2.5538 H       
  51 H51           -2.2101     3.8246     0.0343 H       
  52 H52            2.0819     4.0248    -0.0085 H       
  53 H53            2.1262     1.5585    -0.0086 H       
  54 H54           -0.8323     8.0051     0.9192 H       
  55 H55           -0.8497     8.0089    -0.8607 H       
  56 H56           -2.3824     8.0086     0.0444 H       
  57 H57           -8.3503     0.9710     2.6630 H       
@<TRIPOS>BOND
   1    1    2 1
   2    1   23 ar
   3    1   27 ar
   4    2    3 am
   5    2   35 1
   6    3    4 1
   7    3   22 2
   8    4    5 1
   9    4   36 1
  10    4   37 1
  11    5    6 1
  12    6    7 1
  13    6   10 1
  14    6   38 1
  15    7    8 am
  16    7   14 1
  17    8    9 1
  18    8   13 2
  19    9   10 2
  20    9   11 1
  21   10   12 1
  22   11   39 1
  23   11   40 1
  24   11   41 1
  25   12   42 1
  26   12   43 1
  27   12   44 1
  28   14   15 1
  29   14   45 1
  30   14   46 1
  31   15   16 ar
  32   15   20 ar
  33   16   17 ar
  34   16   47 1
  35   17   18 ar
  36   17   48 1
  37   18   19 ar
  38   18   21 1
  39   19   20 ar
  40   19   49 1
  41   20   50 1
  42   21   32 1
  43   23   24 ar
  44   24   25 ar
  45   24   51 1
  46   25   26 ar
  47   25   28 1
  48   26   27 ar
  49   26   52 1
  50   27   53 1
  51   28   29 1
  52   28   30 2
  53   29   31 1
  54   31   54 1
  55   31   55 1
  56   31   56 1
  57   32   33 1
  58   32   34 1
  59   32   57 1

#	End of record

