#	Name: ASD01420088
#	Creating user name:	WinNT
#	Creation time:	15. 06. 2019 19:20

#	Modifying user name:	WinNT
#	Modification time:	15. 06. 2019 19:20

#	Program:	/corina/corina34_cracker 3.40 0067  02.08.2006

@<TRIPOS>MOLECULE
ASD01420088
  43   44    0    0    0
SMALL
NO_CHARGES


@<TRIPOS>ATOM
   1 C1            -0.0144     1.2120     0.0087 C.2     
   2 O2             0.3001     0.3316    -0.7692 O.2     
   3 C3             2.1586     1.0149     1.2580 C.3     
   4 N4             0.8503     1.6081     0.9636 N.am    
   5 C5             0.6629     2.7148     1.9072 C.3     
   6 C6             1.8879     2.7822     2.7837 C.ar    
   7 C7             2.2197     3.6346     3.8259 C.ar    
   8 C8             3.4282     3.4872     4.4836 C.ar    
   9 C9             4.3043     2.4891     4.1010 C.ar    
  10 C10            3.9730     1.6398     3.0629 C.ar    
  11 C11            2.7644     1.7861     2.4034 C.ar    
  12 F12            1.3626     4.6100     4.1991 F       
  13 C13           -1.3381     1.8496    -0.0967 C.ar    
  14 C14           -2.4903     1.0615    -0.2409 C.ar    
  15 C15           -3.7301     1.6687    -0.3387 C.ar    
  16 C16           -3.8314     3.0516    -0.2946 C.ar    
  17 C17           -2.6899     3.8343    -0.1517 C.ar    
  18 C18           -1.4523     3.2423    -0.0476 C.ar    
  19 C19           -2.8102     5.3358    -0.1048 C.3     
  20 C20           -2.2577     5.8504     1.2259 C.3     
  21 C21           -2.0131     5.9475    -1.2587 C.3     
  22 O22           -5.0488     3.6435    -0.3918 O.3     
  23 O23           -2.3891    -0.2906    -0.2847 O.3     
  24 H24            2.0350    -0.0305     1.5409 H       
  25 H25            2.8028     1.0877     0.3818 H       
  26 H26            0.5477     3.6508     1.3607 H       
  27 H27           -0.2201     2.5326     2.5198 H       
  28 H28            3.6866     4.1517     5.2948 H       
  29 H29            5.2480     2.3732     4.6133 H       
  30 H30            4.6585     0.8603     2.7649 H       
  31 H31           -4.6192     1.0657    -0.4498 H       
  32 H32           -0.5691     3.8531     0.0678 H       
  33 H33           -3.8586     5.6193    -0.1969 H       
  34 H34           -2.3447     6.9364     1.2598 H       
  35 H35           -2.8255     5.4146     2.0479 H       
  36 H36           -1.2092     5.5668     1.3180 H       
  37 H37           -2.4067     5.5809    -2.2067 H       
  38 H38           -2.1001     7.0335    -1.2248 H       
  39 H39           -0.9647     5.6640    -1.1666 H       
  40 H40           -5.4884     3.7806     0.4585 H       
  41 H41           -2.4458    -0.7175     0.5811 H       
  42 Cl42          10.2480    12.0335    10.2948 Cl      
  43 H43           10.2480    13.4035    10.2948 H       
@<TRIPOS>BOND
   1    1    2 2
   2    1    4 am
   3    1   13 1
   4    3    4 1
   5    3   11 1
   6    3   24 1
   7    3   25 1
   8    4    5 1
   9    5    6 1
  10    5   26 1
  11    5   27 1
  12    6    7 ar
  13    6   11 ar
  14    7    8 ar
  15    7   12 1
  16    8    9 ar
  17    8   28 1
  18    9   10 ar
  19    9   29 1
  20   10   11 ar
  21   10   30 1
  22   13   14 ar
  23   13   18 ar
  24   14   15 ar
  25   14   23 1
  26   15   16 ar
  27   15   31 1
  28   16   17 ar
  29   16   22 1
  30   17   18 ar
  31   17   19 1
  32   18   32 1
  33   19   20 1
  34   19   21 1
  35   19   33 1
  36   20   34 1
  37   20   35 1
  38   20   36 1
  39   21   37 1
  40   21   38 1
  41   21   39 1
  42   22   40 1
  43   23   41 1
  44   42   43 1

#	End of record

