#	Name: ASD01208432
#	Creating user name:	WinNT
#	Creation time:	15. 06. 2019 19:09

#	Modifying user name:	WinNT
#	Modification time:	15. 06. 2019 19:09

#	Program:	/corina/corina34_cracker 3.40 0067  02.08.2006

@<TRIPOS>MOLECULE
ASD01208432
  40   41    0    0    0
SMALL
NO_CHARGES


@<TRIPOS>ATOM
   1 S1            -0.0218     1.7570     0.0117 S.3     
   2 C2             0.0021    -0.0041     0.0020 C.2     
   3 N3             1.2428    -0.4229    -0.0121 N.2     
   4 C4             2.1799     0.4826    -0.0162 C.2     
   5 C5             1.7405     1.7794    -0.0050 C.2     
   6 C6             2.5849     2.9730    -0.0071 C.2     
   7 O7             3.7963     2.8611    -0.0197 O.2     
   8 O8             2.0207     4.1986     0.0049 O.3     
   9 N9            -1.1870    -2.2491     0.0013 N.am    
  10 C10           -1.1850    -0.8685     0.0087 C.2     
  11 C11           -2.4851    -0.4513     0.0234 C.2     
  12 C12           -3.2947    -1.5977     0.0249 C.2     
  13 C13           -2.4850    -2.6785     0.0114 C.2     
  14 C14           -0.0952    -3.0391    -0.0184 C.2     
  15 O15            1.0130    -2.5431    -0.0314 O.2     
  16 O16           -0.2333    -4.3776    -0.0236 O.3     
  17 C17            0.9858    -5.1660    -0.0451 C.3     
  18 C18            1.8233    -4.8440     1.1941 C.3     
  19 C19            0.6308    -6.6542    -0.0481 C.3     
  20 C20            1.7880    -4.8305    -1.3041 C.3     
  21 C21            2.9059     5.3204     0.0021 C.3     
  22 C22            2.0895     6.6143     0.0169 C.3     
  23 H23            3.2294     0.2280    -0.0272 H       
  24 H24           -2.8275     0.5729     0.0325 H       
  25 H25           -4.3745    -1.6129     0.0355 H       
  26 H26           -2.8085    -3.7089     0.0090 H       
  27 H27            1.2519    -5.0830     2.0910 H       
  28 H28            2.7385    -5.4358     1.1780 H       
  29 H29            2.0763    -3.7837     1.1962 H       
  30 H30            0.0341    -6.8837    -0.9310 H       
  31 H31            1.5460    -7.2461    -0.0642 H       
  32 H32            0.0593    -6.8932     0.8488 H       
  33 H33            2.0409    -3.7703    -1.3019 H       
  34 H34            2.7032    -5.4224    -1.3202 H       
  35 H35            1.1913    -5.0600    -2.1869 H       
  36 H36            3.5431     5.2827     0.8856 H       
  37 H37            3.5255     5.2920    -0.8943 H       
  38 H38            1.4523     6.6521    -0.8666 H       
  39 H39            1.4699     6.6427     0.9133 H       
  40 H40            2.7647     7.4700     0.0148 H       
@<TRIPOS>BOND
   1    1    2 1
   2    1    5 1
   3    2    3 2
   4    2   10 1
   5    3    4 1
   6    4    5 2
   7    4   23 1
   8    5    6 1
   9    6    7 2
  10    6    8 1
  11    8   21 1
  12    9   10 1
  13    9   13 1
  14    9   14 am
  15   10   11 2
  16   11   12 1
  17   11   24 1
  18   12   13 2
  19   12   25 1
  20   13   26 1
  21   14   15 2
  22   14   16 1
  23   16   17 1
  24   17   18 1
  25   17   20 1
  26   17   19 1
  27   18   27 1
  28   18   28 1
  29   18   29 1
  30   19   30 1
  31   19   31 1
  32   19   32 1
  33   20   33 1
  34   20   34 1
  35   20   35 1
  36   21   22 1
  37   21   36 1
  38   21   37 1
  39   22   38 1
  40   22   39 1
  41   22   40 1

#	End of record

