#	Name: ASD01908391
#	Creating user name:	WinNT
#	Creation time:	15. 06. 2019 19:55

#	Modifying user name:	WinNT
#	Modification time:	15. 06. 2019 19:55

#	Program:	/corina/corina34_cracker 3.40 0067  02.08.2006

@<TRIPOS>MOLECULE
ASD01908391
  46   49    0    0    0
SMALL
NO_CHARGES


@<TRIPOS>ATOM
   1 C1             0.0808     1.2913    -1.2876 C.ar    
   2 C2             0.0947    -0.0848    -1.1600 C.ar    
   3 C3             1.2852    -0.7388    -0.9184 C.ar    
   4 C4             2.4718    -0.0246    -0.8020 C.ar    
   5 C5             2.4580     1.3459    -0.9291 C.ar    
   6 C6             1.2574     2.0024    -1.1725 C.ar    
   7 S7             4.1071    -0.6120    -0.4990 S.o2    
   8 N8             5.0915     0.7238    -0.4706 N.am    
   9 S9             4.0805     2.0117    -0.7423 S.o2    
  10 C10            6.4722     0.7571    -0.2624 C.ar    
  11 C11            7.1470     1.9701    -0.2701 C.ar    
  12 C12            7.1710    -0.4234    -0.0415 C.ar    
  13 C13            8.5368    -0.3911     0.1645 C.ar    
  14 C14            9.2120     0.8141     0.1522 C.ar    
  15 C15            8.5184     1.9987    -0.0629 C.ar    
  16 O16            4.4436     2.5500    -2.0062 O.2     
  17 O17            4.0679     2.7745     0.4566 O.2     
  18 O18            4.1076    -1.1416     0.8196 O.2     
  19 O19            4.4833    -1.3661    -1.6432 O.2     
  20 N20            9.2032     3.2188    -0.0757 N.am    
  21 C21           10.4490     3.2870    -0.5854 C.2     
  22 C22           11.1462     4.6185    -0.6956 C.3     
  23 O23           11.0090     2.2767    -0.9553 O.2     
  24 C24           11.3933     5.1829     0.7058 C.3     
  25 C25           12.1553     6.5065     0.5877 C.3     
  26 C26           13.4586     6.2658    -0.1803 C.3     
  27 C27           13.1317     5.6595    -1.5475 C.3     
  28 O28           12.3965     4.4476    -1.3662 O.3     
  29 H29           -0.8476     1.8079    -1.4813 H       
  30 H30           -0.8235    -0.6464    -1.2489 H       
  31 H31            1.2951    -1.8141    -0.8185 H       
  32 H32            1.2455     3.0777    -1.2727 H       
  33 H33            6.6057     2.8895    -0.4375 H       
  34 H34            6.6459    -1.3671    -0.0305 H       
  35 H35            9.0778    -1.3100     0.3360 H       
  36 H36           10.2796     0.8359     0.3139 H       
  37 H37            8.7813     4.0156     0.2822 H       
  38 H38           10.5217     5.3100    -1.2611 H       
  39 H39           10.4386     5.3554     1.2027 H       
  40 H40           11.9837     4.4733     1.2855 H       
  41 H41           11.5444     7.2322     0.0508 H       
  42 H42           12.3836     6.8860     1.5836 H       
  43 H43           13.9809     7.2127    -0.3172 H       
  44 H44           14.0907     5.5781     0.3815 H       
  45 H45           12.5334     6.3649    -2.1242 H       
  46 H46           14.0578     5.4465    -2.0814 H       
@<TRIPOS>BOND
   1    1    2 ar
   2    1    6 ar
   3    1   29 1
   4    2    3 ar
   5    2   30 1
   6    3    4 ar
   7    3   31 1
   8    4    5 ar
   9    4    7 1
  10    5    6 ar
  11    5    9 1
  12    6   32 1
  13    7    8 am
  14    7   18 2
  15    7   19 2
  16    8    9 am
  17    8   10 1
  18    9   16 2
  19    9   17 2
  20   10   11 ar
  21   10   12 ar
  22   11   15 ar
  23   11   33 1
  24   12   13 ar
  25   12   34 1
  26   13   14 ar
  27   13   35 1
  28   14   15 ar
  29   14   36 1
  30   15   20 1
  31   20   21 am
  32   20   37 1
  33   21   22 1
  34   21   23 2
  35   22   24 1
  36   22   28 1
  37   22   38 1
  38   24   25 1
  39   24   39 1
  40   24   40 1
  41   25   26 1
  42   25   41 1
  43   25   42 1
  44   26   27 1
  45   26   43 1
  46   26   44 1
  47   27   28 1
  48   27   45 1
  49   27   46 1

#	End of record

