#	Name: ASD01914242
#	Creating user name:	WinNT
#	Creation time:	15. 06. 2019 20:03

#	Modifying user name:	WinNT
#	Modification time:	15. 06. 2019 20:03

#	Program:	/corina/corina34_cracker 3.40 0067  02.08.2006

@<TRIPOS>MOLECULE
ASD01914242
  51   53    0    0    0
SMALL
NO_CHARGES


@<TRIPOS>ATOM
   1 C1            -0.0168     1.3871     0.0097 C.ar    
   2 C2             0.0021    -0.0041     0.0020 C.ar    
   3 N3             1.1469    -0.6696    -0.0125 N.ar    
   4 C4             2.3089    -0.0510    -0.0203 C.ar    
   5 C5             2.3721     1.3432    -0.0134 C.ar    
   6 C6             1.1777     2.0780     0.0020 C.ar    
   7 N7             4.8183     1.3178    -0.0359 N.am    
   8 C8             3.6767     2.0340    -0.0216 C.2     
   9 O9             3.7212     3.2489    -0.0155 O.2     
  10 O10           -1.1677    -0.6878     0.0100 O.3     
  11 C11           -1.0854    -2.1144     0.0015 C.3     
  12 C12            6.1130     2.0034    -0.0441 C.3     
  13 C13           -2.4749    -2.6978     0.0122 C.ar    
  14 C14           -3.1235    -2.9587    -1.1797 C.ar    
  15 C15           -4.4003    -3.4948    -1.1695 C.ar    
  16 C16           -5.0253    -3.7687     0.0350 C.ar    
  17 C17           -4.3745    -3.5069     1.2259 C.ar    
  18 C18           -3.0979    -2.9770     1.2145 C.ar    
  19 F19           -5.0356    -3.7500    -2.3342 F       
  20 C20            6.5180     2.3455     1.3911 C.3     
  21 C21            7.1698     1.0900    -0.6684 C.3     
  22 C22            8.5219     1.8060    -0.6769 C.3     
  23 C23            9.5788     0.8926    -1.3012 C.3     
  24 C24            9.6886    -0.3947    -0.4816 C.3     
  25 C25            8.3365    -1.1107    -0.4731 C.3     
  26 C26            7.2796    -0.1973     0.1512 C.3     
  27 H27           -0.9559     1.9203     0.0170 H       
  28 H28            3.2219    -0.6278    -0.0317 H       
  29 H29            1.1924     3.1578     0.0073 H       
  30 H30            4.7828     0.3485    -0.0408 H       
  31 H31           -0.5604    -2.4427    -0.8955 H       
  32 H32           -0.5427    -2.4523     0.8843 H       
  33 H33            6.0348     2.9205    -0.6280 H       
  34 H34           -2.6351    -2.7443    -2.1187 H       
  35 H35           -6.0212    -4.1865     0.0441 H       
  36 H36           -4.8620    -3.7205     2.1657 H       
  37 H37           -2.5900    -2.7731     2.1456 H       
  38 H38            6.5963     1.4284     1.9749 H       
  39 H39            7.4813     2.8556     1.3850 H       
  40 H40            5.7651     2.9962     1.8358 H       
  41 H41            6.8813     0.8463    -1.6908 H       
  42 H42            8.4437     2.7231    -1.2608 H       
  43 H43            8.8105     2.0497     0.3455 H       
  44 H44            9.2902     0.6489    -2.3236 H       
  45 H45           10.5420     1.4027    -1.3073 H       
  46 H46           10.4415    -1.0454    -0.9264 H       
  47 H47            9.9771    -0.1510     0.5408 H       
  48 H48            8.0479    -1.3544    -1.4955 H       
  49 H49            8.4147    -2.0278     0.1108 H       
  50 H50            7.5682     0.0464     1.1736 H       
  51 H51            6.3164    -0.7074     0.1573 H       
@<TRIPOS>BOND
   1    1    2 ar
   2    1    6 ar
   3    1   27 1
   4    2    3 ar
   5    2   10 1
   6    3    4 ar
   7    4    5 ar
   8    4   28 1
   9    5    6 ar
  10    5    8 1
  11    6   29 1
  12    7    8 am
  13    7   12 1
  14    7   30 1
  15    8    9 2
  16   10   11 1
  17   11   13 1
  18   11   31 1
  19   11   32 1
  20   12   20 1
  21   12   21 1
  22   12   33 1
  23   13   14 ar
  24   13   18 ar
  25   14   15 ar
  26   14   34 1
  27   15   16 ar
  28   15   19 1
  29   16   17 ar
  30   16   35 1
  31   17   18 ar
  32   17   36 1
  33   18   37 1
  34   20   38 1
  35   20   39 1
  36   20   40 1
  37   21   22 1
  38   21   26 1
  39   21   41 1
  40   22   23 1
  41   22   42 1
  42   22   43 1
  43   23   24 1
  44   23   44 1
  45   23   45 1
  46   24   25 1
  47   24   46 1
  48   24   47 1
  49   25   26 1
  50   25   48 1
  51   25   49 1
  52   26   50 1
  53   26   51 1

#	End of record

