#	Name: ASD03320114
#	Creating user name:	WinNT
#	Creation time:	15. 06. 2019 20:36

#	Modifying user name:	WinNT
#	Modification time:	15. 06. 2019 20:36

#	Program:	/corina/corina34_cracker 3.40 0067  02.08.2006

@<TRIPOS>MOLECULE
ASD03320114
  42   44    0    0    0
SMALL
NO_CHARGES


@<TRIPOS>ATOM
   1 C1            -0.0181     1.4706     0.0146 C.2     
   2 C2             0.0015    -0.0045     0.0115 C.ar    
   3 C3             1.2205    -0.7002     0.0009 C.ar    
   4 C4             1.1912    -2.0690    -0.0017 C.ar    
   5 C5            -0.0387    -2.7267     0.0063 C.ar    
   6 N6            -1.1757    -2.0449     0.0159 N.ar    
   7 C7            -1.1917    -0.7281     0.0249 C.ar    
   8 O8             1.0269     2.0926     0.0079 O.2     
   9 N9            -1.1941     2.1289     0.0193 N.am    
  10 N10           -0.0728    -4.1114     0.0037 N.3     
  11 C11           -1.4618    -4.6058     0.0133 C.3     
  12 C12           -1.6308    -5.5181    -1.2198 C.3     
  13 C13           -0.1739    -5.9423    -1.5431 C.3     
  14 C14            0.6126    -4.6560    -1.1877 C.3     
  15 O15           -2.4297    -6.6586    -0.8989 O.3     
  16 C16           -1.2149     3.5249     0.1327 C.ar    
  17 C17           -2.1839     4.2615    -0.5368 C.ar    
  18 C18           -2.2047     5.6385    -0.4246 C.ar    
  19 C19           -1.2545     6.2861     0.3593 C.ar    
  20 C20           -0.2870     5.5482     1.0276 C.ar    
  21 C21           -0.2706     4.1713     0.9187 C.ar    
  22 S22           -1.2792     8.0421     0.5030 S.3     
  23 C23            0.1230     8.3812     1.6027 C.3     
  24 F24            1.3010     7.9063     1.0164 F       
  25 F25            0.2291     9.7605     1.8113 F       
  26 F26           -0.0797     7.7385     2.8287 F       
  27 F27           -3.1464     6.3556    -1.0757 F       
  28 Br28           2.8026    -3.0583    -0.0165 Br      
  29 H29            2.1602    -0.1678    -0.0055 H       
  30 H30           -2.1359    -0.2040     0.0377 H       
  31 H31           -2.0262     1.6360    -0.0559 H       
  32 H32           -1.6464    -5.1754     0.9241 H       
  33 H33           -2.1546    -3.7666    -0.0486 H       
  34 H34           -2.0647    -4.9643    -2.0524 H       
  35 H35            0.1382    -6.7768    -0.9152 H       
  36 H36           -0.0640    -6.1879    -2.5993 H       
  37 H37            0.5664    -3.9432    -2.0110 H       
  38 H38            1.6490    -4.8979    -0.9518 H       
  39 H39           -2.5663    -7.2643    -1.6402 H       
  40 H40           -2.9207     3.7581    -1.1452 H       
  41 H41            0.4506     6.0505     1.6360 H       
  42 H42            0.4799     3.5975     1.4422 H       
@<TRIPOS>BOND
   1    1    2 1
   2    1    8 2
   3    1    9 am
   4    2    3 ar
   5    2    7 ar
   6    3    4 ar
   7    3   29 1
   8    4    5 ar
   9    4   28 1
  10    5    6 ar
  11    5   10 1
  12    6    7 ar
  13    7   30 1
  14    9   16 1
  15    9   31 1
  16   10   11 1
  17   10   14 1
  18   11   12 1
  19   11   32 1
  20   11   33 1
  21   12   13 1
  22   12   15 1
  23   12   34 1
  24   13   14 1
  25   13   35 1
  26   13   36 1
  27   14   37 1
  28   14   38 1
  29   15   39 1
  30   16   17 ar
  31   16   21 ar
  32   17   18 ar
  33   17   40 1
  34   18   19 ar
  35   18   27 1
  36   19   20 ar
  37   19   22 1
  38   20   21 ar
  39   20   41 1
  40   21   42 1
  41   22   23 1
  42   23   24 1
  43   23   25 1
  44   23   26 1

#	End of record

