#	Name: ASD01917094
#	Creating user name:	WinNT
#	Creation time:	15. 06. 2019 20:08

#	Modifying user name:	WinNT
#	Modification time:	15. 06. 2019 20:08

#	Program:	/corina/corina34_cracker 3.40 0067  02.08.2006

@<TRIPOS>MOLECULE
ASD01917094
  37   39    0    0    0
SMALL
NO_CHARGES


@<TRIPOS>ATOM
   1 C1            -0.0184     1.5028     0.0103 C.3     
   2 C2             0.0021    -0.0041     0.0020 C.2     
   3 N3             0.5336    -0.7573    -0.9243 N.2     
   4 C4             0.3686    -2.0488    -0.6084 C.2     
   5 N5            -0.2770    -2.1240     0.5348 N.2     
   6 N6            -0.5186    -0.8043     0.9496 N.pl3   
   7 C7            -1.2105    -0.3820     2.1700 C.3     
   8 C8            -0.2108    -0.2311     3.2876 C.2     
   9 O9            -0.6205     0.1503     4.5076 O.3     
  10 O10            0.9595    -0.4534     3.0854 O.2     
  11 C11            0.8360    -3.2031    -1.4154 C.ar    
  12 C12            1.4199     2.0495    -0.0005 C.3     
  13 C13            0.6009    -4.5042    -0.9753 C.ar    
  14 C14            1.0372    -5.5746    -1.7286 C.ar    
  15 C15            1.7087    -5.3572    -2.9209 C.ar    
  16 C16            1.9450    -4.0653    -3.3619 C.ar    
  17 C17            1.5062    -2.9892    -2.6181 C.ar    
  18 F18            2.1347    -6.4082    -3.6553 F       
  19 C19            1.5627     2.8889    -1.2869 C.3     
  20 C20            0.1102     3.2974    -1.6370 C.3     
  21 C21           -0.6995     2.0291    -1.2699 C.3     
  22 H22           -0.5485     1.8639     0.8916 H       
  23 H23           -1.7064     0.5727     1.9947 H       
  24 H24           -1.9524    -1.1317     2.4449 H       
  25 H25            0.0573     0.2334     5.1922 H       
  26 H26            1.5876     2.6766     0.8751 H       
  27 H27            2.1327     1.2249    -0.0117 H       
  28 H28            0.0781    -4.6745    -0.0457 H       
  29 H29            0.8554    -6.5833    -1.3883 H       
  30 H30            2.4694    -3.9003    -4.2915 H       
  31 H31            1.6905    -1.9824    -2.9628 H       
  32 H32            2.1729     3.7725    -1.1000 H       
  33 H33            1.9938     2.2888    -2.0881 H       
  34 H34           -0.2083     4.1472    -1.0332 H       
  35 H35            0.0173     3.5209    -2.6998 H       
  36 H36           -0.6336     1.2901    -2.0684 H       
  37 H37           -1.7401     2.2852    -1.0707 H       
@<TRIPOS>BOND
   1    1    2 1
   2    1   12 1
   3    1   21 1
   4    1   22 1
   5    2    3 2
   6    2    6 1
   7    3    4 1
   8    4    5 2
   9    4   11 1
  10    5    6 1
  11    6    7 1
  12    7    8 1
  13    7   23 1
  14    7   24 1
  15    8    9 1
  16    8   10 2
  17    9   25 1
  18   11   13 ar
  19   11   17 ar
  20   12   19 1
  21   12   26 1
  22   12   27 1
  23   13   14 ar
  24   13   28 1
  25   14   15 ar
  26   14   29 1
  27   15   16 ar
  28   15   18 1
  29   16   17 ar
  30   16   30 1
  31   17   31 1
  32   19   20 1
  33   19   32 1
  34   19   33 1
  35   20   21 1
  36   20   34 1
  37   20   35 1
  38   21   36 1
  39   21   37 1

#	End of record

