#	Name: ASD06620005
#	Creating user name:	WinNT
#	Creation time:	15. 06. 2019 21:07

#	Modifying user name:	WinNT
#	Modification time:	15. 06. 2019 21:07

#	Program:	/corina/corina34_cracker 3.40 0067  02.08.2006

@<TRIPOS>MOLECULE
ASD06620005
  24   25    0    0    0
SMALL
NO_CHARGES


@<TRIPOS>ATOM
   1 C1            -0.0171     1.4073     0.0098 C.2     
   2 C2             0.0021    -0.0041     0.0020 C.2     
   3 C3             1.1967    -0.6543    -0.0129 C.2     
   4 C4             2.3935     0.0857    -0.0203 C.2     
   5 C5             2.3606     1.4332    -0.0123 C.2     
   6 N6             1.1679     2.1014     0.0022 N.pl3   
   7 N7            -1.0113     2.2788     0.0293 N.2     
   8 C8            -0.5022     3.5260     0.0282 C.2     
   9 C9             0.8613     3.4289     0.0122 C.2     
  10 C10           -1.2799     4.7775     0.0460 C.2     
  11 O11           -0.7069     5.8491     0.0427 O.2     
  12 O12           -2.6268     4.7337     0.0660 O.3     
  13 I13            2.2228     5.0212     0.0084 I       
  14 Cl14           1.2447    -2.3896    -0.0221 Cl      
  15 C15           -3.3275     6.0053     0.0827 C.3     
  16 C16           -4.8369     5.7556     0.1041 C.3     
  17 H17           -0.9226    -0.5621     0.0082 H       
  18 H18            3.3431    -0.4285    -0.0322 H       
  19 H19            3.2857     1.9906    -0.0178 H       
  20 H20           -3.0396     6.5671     0.9713 H       
  21 H21           -3.0662     6.5759    -0.8085 H       
  22 H22           -5.3629     6.7102     0.1167 H       
  23 H23           -5.1248     5.1937    -0.7844 H       
  24 H24           -5.0982     5.1850     0.9953 H       
@<TRIPOS>BOND
   1    1    2 1
   2    1    6 1
   3    1    7 2
   4    2    3 2
   5    2   17 1
   6    3    4 1
   7    3   14 1
   8    4    5 2
   9    4   18 1
  10    5    6 1
  11    5   19 1
  12    6    9 1
  13    7    8 1
  14    8    9 2
  15    8   10 1
  16    9   13 1
  17   10   11 2
  18   10   12 1
  19   12   15 1
  20   15   16 1
  21   15   20 1
  22   15   21 1
  23   16   22 1
  24   16   23 1
  25   16   24 1

#	End of record

