#	Name: ASD02030175
#	Creating user name:	WinNT
#	Creation time:	15. 06. 2019 20:14

#	Modifying user name:	WinNT
#	Modification time:	15. 06. 2019 20:14

#	Program:	/corina/corina34_cracker 3.40 0067  02.08.2006

@<TRIPOS>MOLECULE
ASD02030175
  49   51    0    0    0
SMALL
NO_CHARGES


@<TRIPOS>ATOM
   1 N1            -0.0367     1.3656     0.0828 N.am    
   2 C2             0.1034     0.0252     0.0725 C.2     
   3 C3            -1.0874    -0.8421     0.1652 C.ar    
   4 O4             1.2108    -0.4697    -0.0131 O.2     
   5 C5            -0.9443    -2.2320     0.1547 C.ar    
   6 C6            -2.0579    -3.0376     0.2418 C.ar    
   7 C7            -3.3226    -2.4700     0.3401 C.ar    
   8 C8            -3.4693    -1.0881     0.3504 C.ar    
   9 C9            -2.3603    -0.2754     0.2695 C.ar    
  10 O10           -4.4179    -3.2678     0.4258 O.3     
  11 C11           -4.5370    -4.0262     1.5327 C.2     
  12 N12           -5.5443    -4.9158     1.6350 N.am    
  13 O13           -3.7362    -3.9083     2.4390 O.2     
  14 C14           -5.6738    -5.7406     2.8388 C.3     
  15 C15           -6.5097    -5.0579     0.5423 C.3     
  16 C16            1.0924     2.1851     0.0734 C.ar    
  17 C17            2.2775     1.7300    -0.4630 C.ar    
  18 C18            3.4095     2.5398    -0.4776 C.ar    
  19 C19            3.3787     3.8003     0.0357 C.ar    
  20 C20            2.1898     4.3027     0.5922 C.ar    
  21 C21            1.0297     3.4900     0.6080 C.ar    
  22 C22            2.1284     5.6004     1.1289 C.ar    
  23 C23            0.9606     6.0552     1.6596 C.ar    
  24 C24           -0.1785     5.2528     1.6799 C.ar    
  25 C25           -0.1571     3.9932     1.1632 C.ar    
  26 C26           -6.5511    -5.0159     3.8616 C.3     
  27 C27           -6.0136    -6.1191    -0.4418 C.3     
  28 H28           -0.9226     1.7606     0.0926 H       
  29 H29            0.0382    -2.6739     0.0780 H       
  30 H30           -1.9482    -4.1120     0.2335 H       
  31 H31           -4.4539    -0.6509     0.4266 H       
  32 H32           -2.4752     0.7985     0.2775 H       
  33 H33           -6.1321    -6.6945     2.5780 H       
  34 H34           -4.6868    -5.9166     3.2665 H       
  35 H35           -7.4751    -5.3611     0.9476 H       
  36 H36           -6.6162    -4.1043     0.0252 H       
  37 H37            2.3285     0.7336    -0.8764 H       
  38 H38            4.3275     2.1618    -0.9029 H       
  39 H39            4.2674     4.4138     0.0158 H       
  40 H40            3.0036     6.2331     1.1206 H       
  41 H41            0.9161     7.0527     2.0714 H       
  42 H42           -1.0928     5.6373     2.1072 H       
  43 H43           -1.0475     3.3824     1.1853 H       
  44 H44           -6.6474    -5.6296     4.7572 H       
  45 H45           -6.0928    -4.0620     4.1223 H       
  46 H46           -7.5381    -4.8400     3.4338 H       
  47 H47           -5.0483    -5.8158    -0.8471 H       
  48 H48           -5.9072    -7.0727     0.0753 H       
  49 H49           -6.7319    -6.2249    -1.2548 H       
@<TRIPOS>BOND
   1    1    2 am
   2    1   16 1
   3    1   28 1
   4    2    3 1
   5    2    4 2
   6    3    5 ar
   7    3    9 ar
   8    5    6 ar
   9    5   29 1
  10    6    7 ar
  11    6   30 1
  12    7    8 ar
  13    7   10 1
  14    8    9 ar
  15    8   31 1
  16    9   32 1
  17   10   11 1
  18   11   12 am
  19   11   13 2
  20   12   14 1
  21   12   15 1
  22   14   26 1
  23   14   33 1
  24   14   34 1
  25   15   27 1
  26   15   35 1
  27   15   36 1
  28   16   17 ar
  29   16   21 ar
  30   17   18 ar
  31   17   37 1
  32   18   19 ar
  33   18   38 1
  34   19   20 ar
  35   19   39 1
  36   20   21 ar
  37   20   22 ar
  38   21   25 ar
  39   22   23 ar
  40   22   40 1
  41   23   24 ar
  42   23   41 1
  43   24   25 ar
  44   24   42 1
  45   25   43 1
  46   26   44 1
  47   26   45 1
  48   26   46 1
  49   27   47 1
  50   27   48 1
  51   27   49 1

#	End of record

