#	Name: ASD01940139
#	Creating user name:	WinNT
#	Creation time:	15. 06. 2019 20:11

#	Modifying user name:	WinNT
#	Modification time:	15. 06. 2019 20:11

#	Program:	/corina/corina34_cracker 3.40 0067  02.08.2006

@<TRIPOS>MOLECULE
ASD01940139
  38   39    0    0    0
SMALL
NO_CHARGES


@<TRIPOS>ATOM
   1 C1             2.7235    -3.8152    -1.8341 C.1     
   2 F2             1.8754     1.5464     2.2274 F       
   3 C3             1.0410     2.1416     1.3472 C.ar    
   4 C4             1.3688     2.1839    -0.0015 C.ar    
   5 C5             0.5044     2.7986    -0.9060 C.ar    
   6 C6            -0.6785     3.3650    -0.4551 C.ar    
   7 C7            -0.9995     3.3202     0.8891 C.ar    
   8 C8            -0.1455     2.7052     1.7886 C.ar    
   9 N9             2.5657     1.6105    -0.4520 N.pl3   
  10 N10            0.8304     2.8447    -2.2680 N.am    
  11 C11            2.6056     0.2578    -0.7967 C.ar    
  12 C12            1.4438    -0.5036    -0.7531 C.ar    
  13 C13            1.4797    -1.8393    -1.0928 C.ar    
  14 C14            2.6841    -2.4278    -1.4814 C.ar    
  15 C15            3.8509    -1.6615    -1.5252 C.ar    
  16 C16            3.8086    -0.3245    -1.1891 C.ar    
  17 F17            4.9362     0.4184    -1.2314 F       
  18 F18           -0.4667     2.6595     3.1000 F       
  19 S19            0.4205     4.1695    -3.1731 S.o2    
  20 O20            0.9880     3.9108    -4.4499 O.2     
  21 O21           -0.9858     4.2864    -3.0065 O.2     
  22 C22            2.7558    -4.9525    -2.1232 C.1     
  23 C23            1.2742     5.5513    -2.3653 C.3     
  24 O24            0.9907     6.7627    -3.0681 O.3     
  25 C25           -0.3231     7.2752    -2.8367 C.3     
  26 H26           -1.3494     3.8417    -1.1545 H       
  27 H27           -1.9212     3.7623     1.2376 H       
  28 H28            3.3664     2.1533    -0.5245 H       
  29 H29            1.2960     2.1006    -2.6807 H       
  30 H30            0.5117    -0.0485    -0.4525 H       
  31 H31            0.5763    -2.4300    -1.0578 H       
  32 H32            4.7843    -2.1142    -1.8255 H       
  33 H33            2.7848    -5.9698    -2.3818 H       
  34 H34            0.9287     5.6395    -1.3352 H       
  35 H35            2.3489     5.3693    -2.3737 H       
  36 H36           -1.0614     6.5388    -3.1541 H       
  37 H37           -0.4502     7.4825    -1.7742 H       
  38 H38           -0.4596     8.1951    -3.4052 H       
@<TRIPOS>BOND
   1    1   22 3
   2    1   14 1
   3    2    3 1
   4    3    4 ar
   5    3    8 ar
   6    4    5 ar
   7    4    9 1
   8    5    6 ar
   9    5   10 1
  10    6    7 ar
  11    6   26 1
  12    7    8 ar
  13    7   27 1
  14    8   18 1
  15    9   11 1
  16    9   28 1
  17   10   19 am
  18   10   29 1
  19   11   12 ar
  20   11   16 ar
  21   12   13 ar
  22   12   30 1
  23   13   14 ar
  24   13   31 1
  25   14   15 ar
  26   15   16 ar
  27   15   32 1
  28   16   17 1
  29   19   20 2
  30   19   21 2
  31   19   23 1
  32   22   33 1
  33   23   24 1
  34   23   34 1
  35   23   35 1
  36   24   25 1
  37   25   36 1
  38   25   37 1
  39   25   38 1

#	End of record

