#	Name: ASD01917784
#	Creating user name:	WinNT
#	Creation time:	15. 06. 2019 20:10

#	Modifying user name:	WinNT
#	Modification time:	15. 06. 2019 20:10

#	Program:	/corina/corina34_cracker 3.40 0067  02.08.2006

@<TRIPOS>MOLECULE
ASD01917784
  50   54    0    0    0
SMALL
NO_CHARGES


@<TRIPOS>ATOM
   1 C1             0.4183     1.0715    -1.7486 C.2     
   2 C2             0.3635    -0.2667    -1.8908 C.2     
   3 C3            -0.8196    -1.1194    -1.5084 C.3     
   4 C4            -1.7164    -0.3224    -0.5529 C.3     
   5 N5            -1.8879     1.0409    -1.0771 N.am    
   6 C6            -0.6990     1.9071    -1.1743 C.3     
   7 C7            -3.1010     1.4868    -1.4595 C.2     
   8 O8            -4.0497     0.7257    -1.4814 O.2     
   9 C9            -3.2777     2.8935    -1.8501 C.2     
  10 O10            1.6144     1.4747    -2.1968 O.3     
  11 C11            2.2818     0.3839    -2.6054 C.2     
  12 N12            1.5278    -0.6650    -2.4204 N.2     
  13 C13            3.6735     0.3727    -3.1834 C.3     
  14 O14            3.6009     0.5195    -4.6030 O.3     
  15 C15            4.7773     0.5293    -5.2832 C.ar    
  16 C16            4.7807     0.6683    -6.6635 C.ar    
  17 C17            5.9779     0.6780    -7.3527 C.ar    
  18 C18            7.1722     0.5492    -6.6679 C.ar    
  19 C19            7.1715     0.4101    -5.2923 C.ar    
  20 C20            5.9772     0.4061    -4.5979 C.ar    
  21 C21           -2.4608     3.9188    -1.4927 C.2     
  22 C22           -2.9774     5.1033    -2.0713 C.ar    
  23 C23           -4.1347     4.7399    -2.7872 C.ar    
  24 N24           -4.2973     3.3823    -2.6437 N.pl3   
  25 C25           -2.5670     6.4427    -2.0504 C.ar    
  26 C26           -3.2899     7.3846    -2.7224 C.ar    
  27 C27           -4.4321     7.0288    -3.4289 C.ar    
  28 C28           -4.8553     5.7193    -3.4654 C.ar    
  29 C29           -5.3796     2.5864    -3.2280 C.3     
  30 H30           -1.3834    -1.3841    -2.4030 H       
  31 H31           -0.4717    -2.0255    -1.0123 H       
  32 H32           -2.6891    -0.8081    -0.4758 H       
  33 H33           -1.2510    -0.2782     0.4318 H       
  34 H34           -0.4208     2.2677    -0.1840 H       
  35 H35           -0.9075     2.7508    -1.8322 H       
  36 H36            4.2486     1.1971    -2.7618 H       
  37 H37            4.1603    -0.5717    -2.9402 H       
  38 H38            3.8481     0.7685    -7.1989 H       
  39 H39            5.9810     0.7858    -8.4273 H       
  40 H40            8.1071     0.5570    -7.2085 H       
  41 H41            8.1056     0.3090    -4.7598 H       
  42 H42            5.9772     0.2974    -3.5234 H       
  43 H43           -1.5764     3.8437    -0.8774 H       
  44 H44           -1.6808     6.7289    -1.5033 H       
  45 H45           -2.9715     8.4165    -2.7048 H       
  46 H46           -4.9931     7.7869    -3.9553 H       
  47 H47           -5.7443     5.4527    -4.0177 H       
  48 H48           -5.0397     2.1423    -4.1636 H       
  49 H49           -5.6654     1.7964    -2.5335 H       
  50 H50           -6.2389     3.2283    -3.4217 H       
@<TRIPOS>BOND
   1    1    2 2
   2    1   10 1
   3    1    6 1
   4    2    3 1
   5    2   12 1
   6    3    4 1
   7    3   30 1
   8    3   31 1
   9    4    5 1
  10    4   32 1
  11    4   33 1
  12    5    6 1
  13    5    7 am
  14    6   34 1
  15    6   35 1
  16    7    8 2
  17    7    9 1
  18    9   21 2
  19    9   24 1
  20   10   11 1
  21   11   12 2
  22   11   13 1
  23   13   14 1
  24   13   36 1
  25   13   37 1
  26   14   15 1
  27   15   16 ar
  28   15   20 ar
  29   16   17 ar
  30   16   38 1
  31   17   18 ar
  32   17   39 1
  33   18   19 ar
  34   18   40 1
  35   19   20 ar
  36   19   41 1
  37   20   42 1
  38   21   22 1
  39   21   43 1
  40   22   23 ar
  41   22   25 ar
  42   23   24 1
  43   23   28 ar
  44   24   29 1
  45   25   26 ar
  46   25   44 1
  47   26   27 ar
  48   26   45 1
  49   27   28 ar
  50   27   46 1
  51   28   47 1
  52   29   48 1
  53   29   49 1
  54   29   50 1

#	End of record

