#	Name: ASD01510010
#	Creating user name:	WinNT
#	Creation time:	15. 06. 2019 19:21

#	Modifying user name:	WinNT
#	Modification time:	15. 06. 2019 19:21

#	Program:	/corina/corina34_cracker 3.40 0067  02.08.2006

@<TRIPOS>MOLECULE
ASD01510010
  63   67    0    0    0
SMALL
NO_CHARGES


@<TRIPOS>ATOM
   1 N1             1.1952    -0.7076     0.3088 N.1     
   2 C2             1.0692     0.4206     0.2665 C.1     
   3 C3             0.9103     1.8428     0.2132 C.ar    
   4 C4             2.0300     2.6700     0.1046 C.ar    
   5 C5             1.8697     4.0391     0.0533 C.ar    
   6 C6             0.6030     4.5931     0.1096 C.ar    
   7 C7            -0.5108     3.7794     0.2173 C.ar    
   8 C8            -0.3653     2.4083     0.2638 C.ar    
   9 C9             0.4359     6.0898     0.0540 C.3     
  10 O10            0.2973     6.5034    -1.3068 O.3     
  11 C11            0.1321     7.9131    -1.4719 C.3     
  12 C12           -0.0058     8.2397    -2.9603 C.3     
  13 O13           -1.2312     7.6899    -3.4900 O.3     
  14 C14           -1.5429     8.4308    -4.6817 C.3     
  15 C15           -0.9076     9.8268    -4.5326 C.3     
  16 C16           -0.1735     9.7660    -3.1710 C.3     
  17 O17           -0.9730    10.3391    -2.1345 O.3     
  18 C18            0.0868    10.0865    -5.6660 C.3     
  19 N19           -0.9822     7.7508    -5.8519 N.pl3   
  20 C20           -1.6070     7.5590    -7.0533 C.2     
  21 N21           -2.8846     7.9819    -7.3604 N.pl3   
  22 C22           -3.4452     7.7154    -8.6873 C.3     
  23 C23           -4.8420     8.2760    -8.7643 C.ar    
  24 C24           -5.0425     9.5742    -9.1945 C.ar    
  25 C25           -6.3234    10.0895    -9.2660 C.ar    
  26 C26           -7.4050     9.3059    -8.9070 C.ar    
  27 C27           -7.2041     8.0052    -8.4760 C.ar    
  28 C28           -5.9225     7.4896    -8.4101 C.ar    
  29 Cl29          -8.5607     7.0204    -8.0250 Cl      
  30 Cl30          -9.0136     9.9526    -8.9961 Cl      
  31 N31           -0.8104     6.9139    -7.8687 N.2     
  32 C32            0.3645     6.6564    -7.2407 C.ar    
  33 C33            0.2720     7.1929    -5.9464 C.ar    
  34 N34            1.3062     7.0708    -5.1212 N.ar    
  35 C35            2.4044     6.4561    -5.5077 C.ar    
  36 N36            2.5376     5.9360    -6.7142 N.ar    
  37 C37            1.5577     6.0136    -7.6087 C.ar    
  38 N38            1.7065     5.4649    -8.8723 N.pl3   
  39 H39            3.0193     2.2388     0.0613 H       
  40 H40            2.7348     4.6801    -0.0307 H       
  41 H41           -1.4965     4.2184     0.2611 H       
  42 H42           -1.2356     1.7743     0.3475 H       
  43 H43           -0.4544     6.3770     0.6135 H       
  44 H44            1.3110     6.5697     0.4922 H       
  45 H45           -0.7645     8.2382    -0.9440 H       
  46 H46            1.0009     8.4308    -1.0653 H       
  47 H47            0.8543     7.8653    -3.5154 H       
  48 H48           -2.6237     8.5248    -4.7877 H       
  49 H49           -1.6787    10.5971    -4.5162 H       
  50 H50            0.7967    10.2595    -3.2298 H       
  51 H51           -0.5558    10.3244    -1.2622 H       
  52 H52           -0.4317    10.0338    -6.6234 H       
  53 H53            0.5256    11.0768    -5.5445 H       
  54 H54            0.8747     9.3339    -5.6376 H       
  55 H55           -3.4111     8.4556    -6.6976 H       
  56 H56           -2.8219     8.1876    -9.4467 H       
  57 H57           -3.4755     6.6396    -8.8596 H       
  58 H58           -4.1981    10.1864    -9.4746 H       
  59 H59           -6.4793    11.1040    -9.6019 H       
  60 H60           -5.7651     6.4754    -8.0741 H       
  61 H61            3.2269     6.3744    -4.8125 H       
  62 H62            2.5331     5.0178    -9.1127 H       
  63 H63            0.9841     5.5279    -9.5166 H       
@<TRIPOS>BOND
   1    1    2 3
   2    2    3 1
   3    3    4 ar
   4    3    8 ar
   5    4    5 ar
   6    4   39 1
   7    5    6 ar
   8    5   40 1
   9    6    7 ar
  10    6    9 1
  11    7    8 ar
  12    7   41 1
  13    8   42 1
  14    9   10 1
  15    9   43 1
  16    9   44 1
  17   10   11 1
  18   11   12 1
  19   11   45 1
  20   11   46 1
  21   12   13 1
  22   12   16 1
  23   12   47 1
  24   13   14 1
  25   14   15 1
  26   14   19 1
  27   14   48 1
  28   15   16 1
  29   15   18 1
  30   15   49 1
  31   16   17 1
  32   16   50 1
  33   17   51 1
  34   18   52 1
  35   18   53 1
  36   18   54 1
  37   19   20 1
  38   19   33 1
  39   20   21 1
  40   20   31 2
  41   21   22 1
  42   21   55 1
  43   22   23 1
  44   22   56 1
  45   22   57 1
  46   23   24 ar
  47   23   28 ar
  48   24   25 ar
  49   24   58 1
  50   25   26 ar
  51   25   59 1
  52   26   27 ar
  53   26   30 1
  54   27   28 ar
  55   27   29 1
  56   28   60 1
  57   31   32 1
  58   32   33 ar
  59   32   37 ar
  60   33   34 ar
  61   34   35 ar
  62   35   36 ar
  63   35   61 1
  64   36   37 ar
  65   37   38 1
  66   38   62 1
  67   38   63 1

#	End of record

