#	Name: ASD09610015
#	Creating user name:	WinNT
#	Creation time:	15. 06. 2019 21:22

#	Modifying user name:	WinNT
#	Modification time:	15. 06. 2019 21:22

#	Program:	/corina/corina34_cracker 3.40 0067  02.08.2006

@<TRIPOS>MOLECULE
ASD09610015
  49   50    0    0    0
SMALL
NO_CHARGES


@<TRIPOS>ATOM
   1 C1            -0.9874    -0.0621     0.5862 C.2     
   2 C2             0.0680    -0.0629    -0.4535 C.2     
   3 O3            -0.7141    -0.3696     1.7296 O.2     
   4 N4            -2.2495     0.2850     0.2650 N.am    
   5 C5             1.4288    -0.5498    -0.1274 C.ar    
   6 C6             1.6313    -1.8876     0.2114 C.ar    
   7 C7             2.9008    -2.3352     0.5136 C.ar    
   8 C8             3.9719    -1.4598     0.4816 C.ar    
   9 C9             3.7774    -0.1319     0.1464 C.ar    
  10 C10            2.5131     0.3263    -0.1635 C.ar    
  11 C11            0.4657    -2.8421     0.2477 C.3     
  12 O12            0.9425    -4.1673     0.4892 O.3     
  13 N13           -0.0792    -5.1463     0.5423 N.2     
  14 C14            0.2232    -6.3857     0.7551 C.2     
  15 C15            1.6629    -6.7879     0.9465 C.3     
  16 C16           -0.8421    -7.4064     0.8104 C.ar    
  17 C17           -2.1770    -7.0372     0.6335 C.ar    
  18 C18           -3.1672    -7.9960     0.6860 C.ar    
  19 C19           -2.8401    -9.3212     0.9133 C.ar    
  20 C20           -1.5197    -9.6938     1.0899 C.ar    
  21 C21           -0.5187    -8.7458     1.0341 C.ar    
  22 C22           -4.6086    -7.5994     0.4957 C.3     
  23 F23           -4.9363    -7.6699    -0.8625 F       
  24 F24           -5.4311    -8.4692     1.2197 F       
  25 F25           -4.7965    -6.2908     0.9534 F       
  26 C26           -3.2931     0.2858     1.2931 C.3     
  27 N27           -0.2002     0.3640    -1.6530 N.2     
  28 O28            0.8016     0.3398    -2.6535 O.3     
  29 C29            0.3689     0.8374    -3.9213 C.3     
  30 H30           -2.4668     0.5343    -0.6469 H       
  31 H31            3.0589    -3.3708     0.7761 H       
  32 H32            4.9638    -1.8146     0.7197 H       
  33 H33            4.6172     0.5467     0.1234 H       
  34 H34            2.3630     1.3623    -0.4291 H       
  35 H35           -0.2177    -2.5508     1.0454 H       
  36 H36           -0.0578    -2.8128    -0.7079 H       
  37 H37            1.9176    -6.7336     2.0049 H       
  38 H38            1.8055    -7.8081     0.5903 H       
  39 H39            2.3068    -6.1128     0.3827 H       
  40 H40           -2.4337    -6.0032     0.4563 H       
  41 H41           -3.6194   -10.0679     0.9534 H       
  42 H42           -1.2713   -10.7298     1.2673 H       
  43 H43            0.5122    -9.0387     1.1677 H       
  44 H44           -4.2405     0.5912     0.8489 H       
  45 H45           -3.3936    -0.7165     1.7096 H       
  46 H46           -3.0219     0.9831     2.0857 H       
  47 H47           -0.4627     0.2333    -4.2841 H       
  48 H48            0.0462     1.8730    -3.8143 H       
  49 H49            1.1933     0.7853    -4.6326 H       
@<TRIPOS>BOND
   1    1    2 1
   2    1    3 2
   3    1    4 am
   4    2    5 1
   5    2   27 2
   6    4   26 1
   7    4   30 1
   8    5    6 ar
   9    5   10 ar
  10    6    7 ar
  11    6   11 1
  12    7    8 ar
  13    7   31 1
  14    8    9 ar
  15    8   32 1
  16    9   10 ar
  17    9   33 1
  18   10   34 1
  19   11   12 1
  20   11   35 1
  21   11   36 1
  22   12   13 1
  23   13   14 2
  24   14   15 1
  25   14   16 1
  26   15   37 1
  27   15   38 1
  28   15   39 1
  29   16   17 ar
  30   16   21 ar
  31   17   18 ar
  32   17   40 1
  33   18   19 ar
  34   18   22 1
  35   19   20 ar
  36   19   41 1
  37   20   21 ar
  38   20   42 1
  39   21   43 1
  40   22   23 1
  41   22   24 1
  42   22   25 1
  43   26   44 1
  44   26   45 1
  45   26   46 1
  46   27   28 1
  47   28   29 1
  48   29   47 1
  49   29   48 1
  50   29   49 1

#	End of record

