#	Name: ASD01890016
#	Creating user name:	WinNT
#	Creation time:	15. 06. 2019 19:50

#	Modifying user name:	WinNT
#	Modification time:	15. 06. 2019 19:50

#	Program:	/corina/corina34_cracker 3.40 0067  02.08.2006

@<TRIPOS>MOLECULE
ASD01890016
 118  120    0    0    0
SMALL
NO_CHARGES


@<TRIPOS>ATOM
   1 C1             2.1102     0.3340     2.9321 C.3     
   2 C2             1.7424    -1.0553     2.4788 C.2     
   3 N3             1.4886    -2.0161     3.3892 N.am    
   4 C4             1.1311    -3.3667     2.9486 C.3     
   5 C5             1.4903    -4.3580     4.0253 C.2     
   6 N6             1.2505    -5.6712     3.8396 N.am    
   7 C7             3.5888     0.3680     3.3239 C.3     
   8 N8             1.8715     1.2852     1.8383 N.3     
   9 C9             3.9320     1.7428     3.9009 C.3     
  10 C10            5.4106     1.7768     4.2927 C.3     
  11 N11            5.7392     3.0932     4.8453 N.pl3   
  12 C12            7.0195     3.3607     5.2692 C.2     
  13 N13            7.3279     4.5961     5.7877 N.pl3   
  14 N14            7.9408     2.4431     5.1795 N.2     
  15 O15            1.6749    -1.3089     1.2947 O.2     
  16 C16           -0.3730    -3.4328     2.6757 C.3     
  17 C17           -0.7133    -2.5321     1.5165 C.ar    
  18 C18           -0.6914    -3.0294     0.2265 C.ar    
  19 C19           -1.0030    -2.2057    -0.8379 C.ar    
  20 C20           -1.3379    -0.8786    -0.6116 C.ar    
  21 C21           -1.3591    -0.3821     0.6836 C.ar    
  22 C22           -1.0522    -1.2113     1.7451 C.ar    
  23 O23           -1.6444    -0.0662    -1.6571 O.3     
  24 O24            1.9952    -3.9741     5.0590 O.2     
  25 C25            1.5997    -6.6348     4.8863 C.3     
  26 C26            0.4751    -6.7185     5.8872 C.2     
  27 N27           -0.4910    -7.6367     5.7393 N.am    
  28 C28           -0.4781    -8.7868     4.8196 C.3     
  29 C29            0.5165    -8.5507     3.6920 C.3     
  30 C30            1.8293    -8.0092     4.2570 C.3     
  31 C31           -1.7926    -7.6698     6.4246 C.3     
  32 C32           -2.7688    -8.4190     5.4956 C.3     
  33 C33           -1.9206    -8.8275     4.2670 C.3     
  34 O34            0.4443    -5.9540     6.8282 O.2     
  35 C35           -2.2845    -6.2655     6.6636 C.2     
  36 O36           -1.6185    -5.3195     6.2997 O.2     
  37 N37           -3.4646    -6.0609     7.2816 N.am    
  38 C38           -3.9429    -4.6958     7.5139 C.3     
  39 C39           -3.3369    -4.1569     8.8113 C.3     
  40 C40           -5.4457    -4.7022     7.6261 C.2     
  41 C41           -1.8201    -4.0330     8.6528 C.3     
  42 N42           -6.1103    -3.5497     7.8418 N.am    
  43 O43           -6.0570    -5.7445     7.5223 O.2     
  44 C44           -7.5752    -3.5377     7.8410 C.3     
  45 C45           -8.0689    -2.4108     8.7112 C.2     
  46 C46           -8.0827    -3.3382     6.4114 C.3     
  47 O47           -7.2752    -1.6767     9.2609 O.2     
  48 N48           -9.3923    -2.2186     8.8785 N.am    
  49 C49           -7.4616    -2.0703     5.8220 C.3     
  50 C50           -7.7859    -1.9900     4.3290 C.3     
  51 C51           -8.0336    -0.8432     6.5348 C.3     
  52 C52           -9.8722    -1.1230     9.7245 C.3     
  53 C53          -11.2606    -0.7263     9.2931 C.2     
  54 C54           -9.9031    -1.5814    11.1839 C.3     
  55 O55          -11.7964    -1.3020     8.3699 O.2     
  56 N56          -11.9068     0.2683     9.9332 N.am    
  57 C57           -1.2232    -3.5023     9.9307 C.2     
  58 O58           -1.9376    -3.2491    10.8717 O.2     
  59 O59            0.1021    -3.3108    10.0236 O.3     
  60 H60            1.4999     0.6090     3.7924 H       
  61 H61            1.5426    -1.8133     4.3362 H       
  62 H62            1.6767    -3.6076     2.0362 H       
  63 H63            0.8466    -5.9783     3.0128 H       
  64 H64            3.7839    -0.3994     4.0729 H       
  65 H65            4.2025     0.1802     2.4429 H       
  66 H66            2.4262     1.0517     1.0285 H       
  67 H67            0.8909     1.3288     1.6046 H       
  68 H68            3.7369     2.5103     3.1519 H       
  69 H69            3.3183     1.9306     4.7819 H       
  70 H70            5.6057     1.0094     5.0418 H       
  71 H71            6.0243     1.5890     3.4117 H       
  72 H72            5.0536     3.7761     4.9120 H       
  73 H73            6.6423     5.2790     5.8545 H       
  74 H74            8.2311     4.7848     6.0868 H       
  75 H75            8.8440     2.6318     5.4785 H       
  76 H76           -0.6537    -4.4579     2.4340 H       
  77 H77           -0.9176    -3.1063     3.5616 H       
  78 H78           -0.4303    -4.0625     0.0509 H       
  79 H79           -0.9855    -2.5945    -1.8453 H       
  80 H80           -1.6195     0.6507     0.8623 H       
  81 H81           -1.0686    -0.8252     2.7536 H       
  82 H82           -2.5837    -0.0582    -1.8868 H       
  83 H83            2.5102    -6.3098     5.3898 H       
  84 H84           -0.2342    -9.7032     5.3571 H       
  85 H85            0.7062    -9.4910     3.1744 H       
  86 H86            0.1007    -7.8298     2.9881 H       
  87 H87            2.5602    -7.9213     3.4532 H       
  88 H88            2.2077    -8.6956     5.0146 H       
  89 H89           -1.7008    -8.1990     7.3731 H       
  90 H90           -3.1627    -9.3042     5.9950 H       
  91 H91           -3.5828    -7.7609     5.1918 H       
  92 H92           -2.0441    -8.1094     3.4564 H       
  93 H93           -2.1793    -9.8334     3.9363 H       
  94 H94           -3.9974    -6.8175     7.5726 H       
  95 H95           -3.6434    -4.0593     6.6812 H       
  96 H96           -3.7605    -3.1769     9.0306 H       
  97 H97           -3.5620    -4.8414     9.6292 H       
  98 H98           -1.3965    -5.0131     8.4335 H       
  99 H99           -1.5950    -3.3486     7.8349 H       
 100 H100          -5.6186    -2.7282     7.9977 H       
 101 H101          -7.9466    -4.4861     8.2293 H       
 102 H102          -7.8013    -4.1975     5.8027 H       
 103 H103          -9.1683    -3.2401     6.4217 H       
 104 H104         -10.0271    -2.8056     8.4388 H       
 105 H105          -6.3805    -2.0983     5.9580 H       
 106 H106          -8.8670    -1.9620     4.1930 H       
 107 H107          -7.3434    -1.0867     3.9091 H       
 108 H108          -7.3783    -2.8642     3.8211 H       
 109 H109          -9.1145    -0.9485     6.6285 H       
 110 H110          -7.5895    -0.7593     7.5267 H       
 111 H111          -7.8045     0.0522     5.9572 H       
 112 H112          -9.2031    -0.2682     9.6262 H       
 113 H113         -10.5722    -2.4362    11.2821 H       
 114 H114          -8.8989    -1.8683    11.4959 H       
 115 H115         -10.2601    -0.7663    11.8133 H       
 116 H116         -11.4782     0.7287    10.6716 H       
 117 H117         -12.8004     0.5236     9.6555 H       
 118 H118           0.4384    -2.9687    10.8632 H       
@<TRIPOS>BOND
   1    1    2 1
   2    1    7 1
   3    1    8 1
   4    1   60 1
   5    2    3 am
   6    2   15 2
   7    3    4 1
   8    3   61 1
   9    4    5 1
  10    4   16 1
  11    4   62 1
  12    5    6 am
  13    5   24 2
  14    6   25 1
  15    6   63 1
  16    7    9 1
  17    7   64 1
  18    7   65 1
  19    8   66 1
  20    8   67 1
  21    9   10 1
  22    9   68 1
  23    9   69 1
  24   10   11 1
  25   10   70 1
  26   10   71 1
  27   11   12 1
  28   11   72 1
  29   12   13 1
  30   12   14 2
  31   13   73 1
  32   13   74 1
  33   14   75 1
  34   16   17 1
  35   16   76 1
  36   16   77 1
  37   17   18 ar
  38   17   22 ar
  39   18   19 ar
  40   18   78 1
  41   19   20 ar
  42   19   79 1
  43   20   21 ar
  44   20   23 1
  45   21   22 ar
  46   21   80 1
  47   22   81 1
  48   23   82 1
  49   25   26 1
  50   25   30 1
  51   25   83 1
  52   26   27 am
  53   26   34 2
  54   27   28 1
  55   27   31 1
  56   28   29 1
  57   28   33 1
  58   28   84 1
  59   29   30 1
  60   29   85 1
  61   29   86 1
  62   30   87 1
  63   30   88 1
  64   31   32 1
  65   31   35 1
  66   31   89 1
  67   32   33 1
  68   32   90 1
  69   32   91 1
  70   33   92 1
  71   33   93 1
  72   35   36 2
  73   35   37 am
  74   37   38 1
  75   37   94 1
  76   38   39 1
  77   38   40 1
  78   38   95 1
  79   39   41 1
  80   39   96 1
  81   39   97 1
  82   40   42 am
  83   40   43 2
  84   41   57 1
  85   41   98 1
  86   41   99 1
  87   42   44 1
  88   42  100 1
  89   44   45 1
  90   44   46 1
  91   44  101 1
  92   45   47 2
  93   45   48 am
  94   46   49 1
  95   46  102 1
  96   46  103 1
  97   48   52 1
  98   48  104 1
  99   49   50 1
 100   49   51 1
 101   49  105 1
 102   50  106 1
 103   50  107 1
 104   50  108 1
 105   51  109 1
 106   51  110 1
 107   51  111 1
 108   52   53 1
 109   52   54 1
 110   52  112 1
 111   53   55 2
 112   53   56 am
 113   54  113 1
 114   54  114 1
 115   54  115 1
 116   56  116 1
 117   56  117 1
 118   57   58 2
 119   57   59 1
 120   59  118 1

#	End of record

