#	Name: ASD01882339
#	Creating user name:	WinNT
#	Creation time:	15. 06. 2019 19:44

#	Modifying user name:	WinNT
#	Modification time:	15. 06. 2019 19:44

#	Program:	/corina/corina34_cracker 3.40 0067  02.08.2006

@<TRIPOS>MOLECULE
ASD01882339
  54   58    0    0    0
SMALL
NO_CHARGES


@<TRIPOS>ATOM
   1 C1             1.7956     1.7403     0.6674 C.2     
   2 C2             1.8596     0.3365     0.6752 C.2     
   3 C3             1.4336    -0.3566    -0.4252 C.2     
   4 C4             0.9394     0.3483    -1.5445 C.2     
   5 C5             0.8869     1.6945    -1.5304 C.2     
   6 N6             1.3091     2.3949    -0.4382 N.pl3   
   7 N7             1.8667     3.8344     1.0642 N.2     
   8 N8             2.1166     2.6709     1.5532 N.2     
   9 C9             1.3745     3.7246    -0.1415 C.2     
  10 C10            2.3911    -0.3964     1.8799 C.3     
  11 F11            3.7473    -0.6829     1.6907 F       
  12 F12            2.2377     0.4034     3.0175 F       
  13 F13            1.6816    -1.5901     2.0501 F       
  14 N14            1.4877    -1.7470    -0.4413 N.pl3   
  15 C15            2.7774    -2.4529    -0.3993 C.3     
  16 C16            2.8128    -3.4706    -1.5444 C.3     
  17 N17            1.6283    -4.3357    -1.4632 N.3     
  18 C18            0.3914    -3.5636    -1.6419 C.3     
  19 C19            0.2565    -2.5498    -0.4946 C.3     
  20 C20            1.7057    -5.3784    -2.3893 C.ar    
  21 C21            1.7437    -6.6964    -1.9520 C.ar    
  22 C22            1.8197    -7.7250    -2.8703 C.ar    
  23 C23            1.8579    -7.4443    -4.2238 C.ar    
  24 C24            1.8202    -6.1334    -4.6626 C.ar    
  25 C25            1.7389    -5.1002    -3.7498 C.ar    
  26 C26            4.0773    -4.3243    -1.4297 C.3     
  27 C27            0.9539     4.8597    -1.0392 C.3     
  28 C28           -0.5202     5.1863    -0.7918 C.3     
  29 C29           -1.1092     6.3928    -1.5255 C.3     
  30 C30           -1.4950     4.9750    -1.9520 C.3     
  31 H31            0.6023    -0.1940    -2.4155 H       
  32 H32            0.5075     2.2241    -2.3917 H       
  33 H33            3.5906    -1.7373    -0.5201 H       
  34 H34            2.8804    -2.9709     0.5543 H       
  35 H35            2.8141    -2.9443    -2.4989 H       
  36 H36            0.4264    -3.0360    -2.5950 H       
  37 H37           -0.4639    -4.2393    -1.6310 H       
  38 H38            0.1218    -3.0769     0.4499 H       
  39 H39           -0.5978    -1.8982    -0.6786 H       
  40 H40            1.7142    -6.9163    -0.8950 H       
  41 H41            1.8497    -8.7499    -2.5310 H       
  42 H42            1.9177    -8.2506    -4.9398 H       
  43 H43            1.8503    -5.9176    -5.7203 H       
  44 H44            1.7050    -4.0768    -4.0933 H       
  45 H45            4.0753    -4.8503    -0.4750 H       
  46 H46            4.1015    -5.0489    -2.2437 H       
  47 H47            4.9559    -3.6820    -1.4888 H       
  48 H48            1.5619     5.7382    -0.8232 H       
  49 H49            1.0919     4.5695    -2.0808 H       
  50 H50           -0.8842     4.9827     0.2153 H       
  51 H51           -1.8611     6.9828    -1.0012 H       
  52 H52           -0.4466     6.9539    -2.1844 H       
  53 H53           -1.0861     4.6033    -2.8915 H       
  54 H54           -2.5006     4.6322    -1.7084 H       
@<TRIPOS>BOND
   1    1    2 1
   2    1    6 1
   3    1    8 2
   4    2    3 2
   5    2   10 1
   6    3    4 1
   7    3   14 1
   8    4    5 2
   9    4   31 1
  10    5    6 1
  11    5   32 1
  12    6    9 1
  13    7    8 1
  14    7    9 2
  15    9   27 1
  16   10   11 1
  17   10   12 1
  18   10   13 1
  19   14   15 1
  20   14   19 1
  21   15   16 1
  22   15   33 1
  23   15   34 1
  24   16   17 1
  25   16   26 1
  26   16   35 1
  27   17   18 1
  28   17   20 1
  29   18   19 1
  30   18   36 1
  31   18   37 1
  32   19   38 1
  33   19   39 1
  34   20   21 ar
  35   20   25 ar
  36   21   22 ar
  37   21   40 1
  38   22   23 ar
  39   22   41 1
  40   23   24 ar
  41   23   42 1
  42   24   25 ar
  43   24   43 1
  44   25   44 1
  45   26   45 1
  46   26   46 1
  47   26   47 1
  48   27   28 1
  49   27   48 1
  50   27   49 1
  51   28   29 1
  52   28   30 1
  53   28   50 1
  54   29   30 1
  55   29   51 1
  56   29   52 1
  57   30   53 1
  58   30   54 1

#	End of record

