#	Name: ASD02039068
#	Creating user name:	WinNT
#	Creation time:	15. 06. 2019 20:17

#	Modifying user name:	WinNT
#	Modification time:	15. 06. 2019 20:17

#	Program:	/corina/corina34_cracker 3.40 0067  02.08.2006

@<TRIPOS>MOLECULE
ASD02039068
  50   54    0    0    0
SMALL
NO_CHARGES


@<TRIPOS>ATOM
   1 N1             0.1005     1.3640     0.7340 N.2     
   2 N2             0.1485     0.1012     0.9754 N.2     
   3 C3             1.2706     1.7678     0.3030 C.2     
   4 O4             2.0801     0.6927     0.2791 O.3     
   5 C5             1.3404    -0.3475     0.7105 C.2     
   6 N6             1.6103     3.0589    -0.0603 N.pl3   
   7 C7             0.6370     4.0620    -0.0670 C.ar    
   8 C8             1.8090    -1.7720     0.8597 C.3     
   9 O9             1.5793    -2.4793    -0.3606 O.3     
  10 C10            1.9484    -3.7874    -0.3948 C.ar    
  11 C11            1.7532    -4.5264    -1.5445 C.ar    
  12 C12            2.5269    -4.3736     0.7282 C.ar    
  13 C13            2.9079    -5.6974     0.7115 C.ar    
  14 C14            2.7153    -6.4612    -0.4346 C.ar    
  15 C15            2.1353    -5.8713    -1.5736 C.ar    
  16 C16           -0.6898     3.7412    -0.3177 C.ar    
  17 C17            0.9957     5.3812     0.1830 C.ar    
  18 C18            0.0338     6.3723     0.1768 C.ar    
  19 C19           -1.2873     6.0554    -0.0774 C.ar    
  20 C20           -1.6523     4.7390    -0.3230 C.ar    
  21 N21            3.0898    -7.7892    -0.4712 N.am    
  22 C22            2.9044    -8.5298    -1.5777 C.2     
  23 C23            2.3231    -7.9871    -2.7436 C.2     
  24 C24            1.9380    -6.6873    -2.7732 C.2     
  25 O25            3.2472    -9.6996    -1.5741 O.2     
  26 O26           -2.9515     4.4292    -0.5731 O.3     
  27 C27           -3.8626     5.4372    -0.5555 C.ar    
  28 C28           -3.9626     6.3026    -1.6354 C.ar    
  29 C29           -4.8899     7.3262    -1.6151 C.ar    
  30 C30           -5.7181     7.4888    -0.5199 C.ar    
  31 C31           -5.6205     6.6278     0.5576 C.ar    
  32 C32           -4.6985     5.5993     0.5401 C.ar    
  33 H33            2.5239     3.2678    -0.3104 H       
  34 H34            2.8743    -1.7819     1.0903 H       
  35 H35            1.2579    -2.2531     1.6677 H       
  36 H36            1.3078    -4.0689    -2.4156 H       
  37 H37            2.6786    -3.7847     1.6207 H       
  38 H38            3.3562    -6.1417     1.5878 H       
  39 H39           -0.9720     2.7163    -0.5086 H       
  40 H40            2.0272     5.6315     0.3825 H       
  41 H41            0.3145     7.3969     0.3713 H       
  42 H42           -2.0372     6.8326    -0.0808 H       
  43 H43            3.4930    -8.1939     0.3128 H       
  44 H44            2.1879    -8.6083    -3.6166 H       
  45 H45            1.4921    -6.2641    -3.6612 H       
  46 H46           -3.3157     6.1763    -2.4910 H       
  47 H47           -4.9679     8.0004    -2.4553 H       
  48 H48           -6.4422     8.2900    -0.5058 H       
  49 H49           -6.2683     6.7572     1.4120 H       
  50 H50           -4.6226     4.9271     1.3820 H       
@<TRIPOS>BOND
   1    1    2 1
   2    1    3 2
   3    2    5 2
   4    3    4 1
   5    3    6 1
   6    4    5 1
   7    5    8 1
   8    6    7 1
   9    6   33 1
  10    7   16 ar
  11    7   17 ar
  12    8    9 1
  13    8   34 1
  14    8   35 1
  15    9   10 1
  16   10   11 ar
  17   10   12 ar
  18   11   15 ar
  19   11   36 1
  20   12   13 ar
  21   12   37 1
  22   13   14 ar
  23   13   38 1
  24   14   15 ar
  25   14   21 1
  26   15   24 1
  27   16   20 ar
  28   16   39 1
  29   17   18 ar
  30   17   40 1
  31   18   19 ar
  32   18   41 1
  33   19   20 ar
  34   19   42 1
  35   20   26 1
  36   21   22 am
  37   21   43 1
  38   22   23 1
  39   22   25 2
  40   23   24 2
  41   23   44 1
  42   24   45 1
  43   26   27 1
  44   27   28 ar
  45   27   32 ar
  46   28   29 ar
  47   28   46 1
  48   29   30 ar
  49   29   47 1
  50   30   31 ar
  51   30   48 1
  52   31   32 ar
  53   31   49 1
  54   32   50 1

#	End of record

