#	Name: ASD01882472
#	Creating user name:	WinNT
#	Creation time:	15. 06. 2019 19:44

#	Modifying user name:	WinNT
#	Modification time:	15. 06. 2019 19:44

#	Program:	/corina/corina34_cracker 3.40 0067  02.08.2006

@<TRIPOS>MOLECULE
ASD01882472
  68   73    0    0    0
SMALL
NO_CHARGES


@<TRIPOS>ATOM
   1 C1            -0.0036     1.4595     0.1789 C.2     
   2 C2             0.0170    -0.0042     0.1798 C.2     
   3 C3             1.2465    -0.6462    -0.0133 C.2     
   4 C4             2.4044     0.1333    -0.1991 C.2     
   5 C5             2.3458     1.4783    -0.1932 C.2     
   6 N6             1.1712     2.1454    -0.0093 N.pl3   
   7 N7            -0.4516     3.5390     0.2411 N.2     
   8 N8            -0.9570     2.3582     0.3221 N.2     
   9 C9             0.8372     3.4679     0.0395 C.2     
  10 C10           -1.1853    -0.7578     0.3730 C.1     
  11 N11           -2.1391    -1.3556     0.5262 N.1     
  12 C12            1.7815     4.6324    -0.1134 C.3     
  13 N13            1.8720     5.0066    -1.5310 N.3     
  14 C14            2.5905     6.2767    -1.6952 C.3     
  15 C15            2.5393     6.7073    -3.1629 C.3     
  16 C16            3.1801     5.6209    -4.0311 C.3     
  17 C17            2.4438     4.2976    -3.8050 C.3     
  18 C18            2.4978     3.9368    -2.3187 C.3     
  19 C19            3.0790     6.0118    -5.4830 C.ar    
  20 C20            4.2263     6.1709    -6.2375 C.ar    
  21 C21            4.1335     6.5295    -7.5693 C.ar    
  22 C22            2.8935     6.7286    -8.1467 C.ar    
  23 C23            1.7461     6.5687    -7.3924 C.ar    
  24 C24            1.8387     6.2059    -6.0618 C.ar    
  25 N25            1.3225    -2.0264    -0.0210 N.pl3   
  26 C26            2.0977    -2.7391     1.0035 C.3     
  27 C27            3.0920    -3.6741     0.3078 C.3     
  28 C28            2.3356    -4.5892    -0.6578 C.3     
  29 C29            1.6398    -3.7427    -1.7262 C.3     
  30 C30            0.6245    -2.8088    -1.0503 C.3     
  31 C31            3.3063    -5.5335    -1.3189 C.ar    
  32 C32            3.1552    -6.8991    -1.1659 C.ar    
  33 C33            4.0457    -7.7652    -1.7723 C.ar    
  34 C34            5.0869    -7.2659    -2.5321 C.ar    
  35 C35            5.2375    -5.9004    -2.6859 C.ar    
  36 C36            4.3445    -5.0344    -2.0831 C.ar    
  37 H37            3.3555    -0.3561    -0.3485 H       
  38 H38            3.2542     2.0442    -0.3380 H       
  39 H39            1.4098     5.4796     0.4630 H       
  40 H40            2.7689     4.3498     0.2516 H       
  41 H41            2.1222     7.0416    -1.0757 H       
  42 H42            3.6292     6.1484    -1.3904 H       
  43 H43            1.5015     6.8491    -3.4645 H       
  44 H44            3.0860     7.6420    -3.2872 H       
  45 H45            4.2285     5.5061    -3.7560 H       
  46 H46            1.4045     4.4015    -4.1167 H       
  47 H47            2.9223     3.5107    -4.3881 H       
  48 H48            3.5369     3.8195    -2.0110 H       
  49 H49            1.9621     3.0023    -2.1521 H       
  50 H50            5.1951     6.0153    -5.7863 H       
  51 H51            5.0299     6.6544    -8.1585 H       
  52 H52            2.8210     7.0095    -9.1870 H       
  53 H53            0.7773     6.7247    -7.8435 H       
  54 H54            0.9422     6.0774    -5.4734 H       
  55 H55            2.6403    -2.0200     1.6172 H       
  56 H56            1.4243    -3.3233     1.6307 H       
  57 H57            3.8206    -3.0827    -0.2467 H       
  58 H58            3.6064    -4.2789     1.0547 H       
  59 H59            1.5902    -5.1623    -0.1064 H       
  60 H60            2.3821    -3.1507    -2.2616 H       
  61 H61            1.1207    -4.3964    -2.4271 H       
  62 H62           -0.1666    -3.3985    -0.5871 H       
  63 H63            0.1948    -2.1357    -1.7921 H       
  64 H64            2.3417    -7.2892    -0.5722 H       
  65 H65            3.9280    -8.8321    -1.6521 H       
  66 H66            5.7830    -7.9426    -3.0053 H       
  67 H67            6.0512    -5.5103    -3.2793 H       
  68 H68            4.4599    -3.9676    -2.2063 H       
@<TRIPOS>BOND
   1    1    2 1
   2    1    6 1
   3    1    8 2
   4    2    3 2
   5    2   10 1
   6    3    4 1
   7    3   25 1
   8    4    5 2
   9    4   37 1
  10    5    6 1
  11    5   38 1
  12    6    9 1
  13    7    8 1
  14    7    9 2
  15    9   12 1
  16   10   11 3
  17   12   13 1
  18   12   39 1
  19   12   40 1
  20   13   14 1
  21   13   18 1
  22   14   15 1
  23   14   41 1
  24   14   42 1
  25   15   16 1
  26   15   43 1
  27   15   44 1
  28   16   17 1
  29   16   19 1
  30   16   45 1
  31   17   18 1
  32   17   46 1
  33   17   47 1
  34   18   48 1
  35   18   49 1
  36   19   20 ar
  37   19   24 ar
  38   20   21 ar
  39   20   50 1
  40   21   22 ar
  41   21   51 1
  42   22   23 ar
  43   22   52 1
  44   23   24 ar
  45   23   53 1
  46   24   54 1
  47   25   26 1
  48   25   30 1
  49   26   27 1
  50   26   55 1
  51   26   56 1
  52   27   28 1
  53   27   57 1
  54   27   58 1
  55   28   29 1
  56   28   31 1
  57   28   59 1
  58   29   30 1
  59   29   60 1
  60   29   61 1
  61   30   62 1
  62   30   63 1
  63   31   32 ar
  64   31   36 ar
  65   32   33 ar
  66   32   64 1
  67   33   34 ar
  68   33   65 1
  69   34   35 ar
  70   34   66 1
  71   35   36 ar
  72   35   67 1
  73   36   68 1

#	End of record

