#	Name: ASD01810654
#	Creating user name:	WinNT
#	Creation time:	15. 06. 2019 19:25

#	Modifying user name:	WinNT
#	Modification time:	15. 06. 2019 19:25

#	Program:	/corina/corina34_cracker 3.40 0067  02.08.2006

@<TRIPOS>MOLECULE
ASD01810654
  73   77    0    0    0
SMALL
NO_CHARGES


@<TRIPOS>ATOM
   1 C1            -0.0705     1.2387     0.8083 C.ar    
   2 C2            -0.0677    -0.1439     1.0025 C.ar    
   3 C3            -1.2582    -0.8225     1.1752 C.ar    
   4 C4            -2.4579    -0.1399     1.1567 C.ar    
   5 C5            -2.4749     1.2434     0.9634 C.ar    
   6 C6            -1.2772     1.9346     0.7943 C.ar    
   7 C7            -3.7608     1.9731     0.9433 C.2     
   8 C8             1.2371    -0.8975     1.0231 C.3     
   9 C9            -3.7521    -0.8888     1.3450 C.3     
  10 N10           -3.9649     3.0022     1.7893 N.am    
  11 O11           -4.6338     1.6448     0.1639 O.2     
  12 C12           -5.2698     3.6748     1.8489 C.3     
  13 C13           -2.8886     3.4689     2.6739 C.3     
  14 C14           -3.4051     3.4791     4.1161 C.3     
  15 C15           -4.6854     4.3143     4.1892 C.3     
  16 C16           -5.7548     3.6822     3.3020 C.3     
  17 C17           -5.1778     4.3548     5.6129 C.ar    
  18 C18           -5.2990     5.5688     6.2654 C.ar    
  19 C19           -5.7495     5.6132     7.5685 C.ar    
  20 C20           -6.0836     4.4292     8.2289 C.ar    
  21 C21           -5.9589     3.2075     7.5644 C.ar    
  22 C22           -5.5121     3.1782     6.2596 C.ar    
  23 C23           -6.5515     4.4676     9.5818 C.1     
  24 C24            1.2056     1.9639     0.6241 C.2     
  25 N25            2.4099     1.4439     0.7352 N.2     
  26 C26            3.3205     2.3907     0.5031 C.2     
  27 C27            2.6685     3.5446     0.2325 C.2     
  28 N28            1.3347     3.2862     0.3037 N.pl3   
  29 C29            4.8225     2.2492     0.5313 C.3     
  30 C30            5.4455     3.4331    -0.2183 C.3     
  31 N31            4.7867     4.6764     0.2088 N.am    
  32 C32            3.3541     4.8481    -0.0943 C.3     
  33 C33            5.4749     5.6345     0.8606 C.2     
  34 C34            6.9032     5.3878     1.2734 C.3     
  35 O35            4.9448     6.6953     1.1150 O.2     
  36 C36            7.8089     5.4561     0.0422 C.3     
  37 N37           -6.9227     4.4981    10.6550 N.1     
  38 C38            7.3336     6.4537     2.2830 C.3     
  39 H39           -1.2504    -1.8920     1.3250 H       
  40 H40           -1.2847     3.0042     0.6449 H       
  41 H41            1.6746    -0.8392     2.0198 H       
  42 H42            1.0579    -1.9414     0.7656 H       
  43 H43            1.9225    -0.4571     0.2990 H       
  44 H44           -3.9572    -0.9977     2.4100 H       
  45 H45           -4.5640    -0.3353     0.8733 H       
  46 H46           -3.6710    -1.8750     0.8879 H       
  47 H47           -5.1692     4.6998     1.4920 H       
  48 H48           -5.9864     3.1379     1.2273 H       
  49 H49           -2.0345     2.7961     2.5965 H       
  50 H50           -2.5898     4.4767     2.3856 H       
  51 H51           -3.6181     2.4583     4.4335 H       
  52 H52           -2.6493     3.9137     4.7702 H       
  53 H53           -4.4773     5.3285     3.8482 H       
  54 H54           -6.6747     4.2629     3.3712 H       
  55 H55           -5.9433     2.6604     3.6313 H       
  56 H56           -5.0399     6.4838     5.7535 H       
  57 H57           -5.8433     6.5615     8.0768 H       
  58 H58           -6.2153     2.2879     8.0695 H       
  59 H59           -5.4152     2.2339     5.7444 H       
  60 H60            0.6142     3.9198     0.1611 H       
  61 H61            5.1699     2.2475     1.5645 H       
  62 H62            5.1107     1.3169     0.0456 H       
  63 H63            6.5101     3.4884     0.0089 H       
  64 H64            5.3078     3.2980    -1.2911 H       
  65 H65            3.2238     5.0812    -1.1511 H       
  66 H66            2.9389     5.6492     0.5172 H       
  67 H67            6.9842     4.4013     1.7297 H       
  68 H68            8.8243     5.1754     0.3221 H       
  69 H69            7.4391     4.7698    -0.7195 H       
  70 H70            7.8087     6.4719    -0.3531 H       
  71 H71            6.6884     6.4050     3.1601 H       
  72 H72            8.3667     6.2753     2.5816 H       
  73 H73            7.2526     7.4403     1.8266 H       
@<TRIPOS>BOND
   1    1    2 ar
   2    1   24 1
   3    1    6 ar
   4    2    3 ar
   5    2    8 1
   6    3    4 ar
   7    3   39 1
   8    4    5 ar
   9    4    9 1
  10    5    6 ar
  11    5    7 1
  12    6   40 1
  13    7   10 am
  14    7   11 2
  15    8   41 1
  16    8   42 1
  17    8   43 1
  18    9   44 1
  19    9   45 1
  20    9   46 1
  21   10   12 1
  22   10   13 1
  23   12   16 1
  24   12   47 1
  25   12   48 1
  26   13   14 1
  27   13   49 1
  28   13   50 1
  29   14   15 1
  30   14   51 1
  31   14   52 1
  32   15   16 1
  33   15   17 1
  34   15   53 1
  35   16   54 1
  36   16   55 1
  37   17   18 ar
  38   17   22 ar
  39   18   19 ar
  40   18   56 1
  41   19   20 ar
  42   19   57 1
  43   20   21 ar
  44   20   23 1
  45   21   22 ar
  46   21   58 1
  47   22   59 1
  48   23   37 3
  49   24   25 2
  50   24   28 1
  51   25   26 1
  52   26   27 2
  53   26   29 1
  54   27   28 1
  55   27   32 1
  56   28   60 1
  57   29   30 1
  58   29   61 1
  59   29   62 1
  60   30   31 1
  61   30   63 1
  62   30   64 1
  63   31   32 1
  64   31   33 am
  65   32   65 1
  66   32   66 1
  67   33   34 1
  68   33   35 2
  69   34   36 1
  70   34   38 1
  71   34   67 1
  72   36   68 1
  73   36   69 1
  74   36   70 1
  75   38   71 1
  76   38   72 1
  77   38   73 1

#	End of record

