#	Name: ASD03731017
#	Creating user name:	WinNT
#	Creation time:	15. 06. 2019 20:45

#	Modifying user name:	WinNT
#	Modification time:	15. 06. 2019 20:45

#	Program:	/corina/corina34_cracker 3.40 0067  02.08.2006

@<TRIPOS>MOLECULE
ASD03731017
  48   53    0    0    0
SMALL
NO_CHARGES


@<TRIPOS>ATOM
   1 O1             0.2016     1.3673    -0.2562 O.3     
   2 C2             0.2486    -0.0717    -0.2412 C.3     
   3 O3             1.5658    -0.3766    -0.7359 O.3     
   4 C4             2.3367     0.7034    -0.4128 C.ar    
   5 C5             1.4974     1.7756    -0.1190 C.ar    
   6 C6             3.7093     0.8603    -0.3438 C.ar    
   7 C7             4.2616     2.0858     0.0165 C.ar    
   8 C8             3.4132     3.1518     0.2997 C.ar    
   9 C9             2.0440     2.9968     0.2378 C.ar    
  10 O10            5.5697     2.4440     0.1597 O.3     
  11 C11            4.2955     4.3279     0.6227 C.3     
  12 C12            5.6758     3.8803     0.1226 C.3     
  13 N13            3.6154     6.4894     0.9217 N.am    
  14 C14            3.8357     5.5865    -0.0548 C.2     
  15 C15            4.3075     4.6466     2.0884 C.ar    
  16 C16            4.6312     3.9255     3.2160 C.ar    
  17 C17            4.5390     4.5138     4.4648 C.ar    
  18 C18            4.1211     5.8273     4.5775 C.ar    
  19 C19            3.7950     6.5536     3.4511 C.ar    
  20 C20            3.8850     5.9696     2.1899 C.ar    
  21 O21            3.6912     5.7574    -1.2468 O.2     
  22 C22            3.1483     7.8569     0.6808 C.3     
  23 C23            4.3344     8.7657     0.4854 C.ar    
  24 C24            4.1396    10.1055     0.2048 C.ar    
  25 C25            5.2265    10.9402     0.0249 C.ar    
  26 C26            6.5097    10.4363     0.1253 C.ar    
  27 C27            6.7059     9.0951     0.4066 C.ar    
  28 C28            5.6162     8.2610     0.5922 C.ar    
  29 C29            2.7411    10.6561     0.0946 C.3     
  30 F30            7.9597     8.6013     0.5045 F       
  31 H31            0.1241    -0.4483     0.7740 H       
  32 H32           -0.5137    -0.4866    -0.9008 H       
  33 H33            4.3567     0.0261    -0.5707 H       
  34 H34            1.3966     3.8301     0.4678 H       
  35 H35            6.4619     4.2279     0.7929 H       
  36 H36            5.8508     4.2294    -0.8950 H       
  37 H37            4.9569     2.8998     3.1256 H       
  38 H38            4.7925     3.9486     5.3495 H       
  39 H39            4.0495     6.2866     5.5523 H       
  40 H40            3.4686     7.5786     3.5475 H       
  41 H41            2.5249     7.8757    -0.2132 H       
  42 H42            2.5662     8.1981     1.5368 H       
  43 H43            5.0732    11.9865    -0.1946 H       
  44 H44            7.3588    11.0885    -0.0161 H       
  45 H45            5.7681     7.2154     0.8161 H       
  46 H46            2.3733    10.9151     1.0874 H       
  47 H47            2.7498    11.5469    -0.5335 H       
  48 H48            2.0887     9.9045    -0.3499 H       
@<TRIPOS>BOND
   1    1    2 1
   2    1    5 1
   3    2    3 1
   4    2   31 1
   5    2   32 1
   6    3    4 1
   7    4    5 ar
   8    4    6 ar
   9    5    9 ar
  10    6    7 ar
  11    6   33 1
  12    7    8 ar
  13    7   10 1
  14    8    9 ar
  15    8   11 1
  16    9   34 1
  17   10   12 1
  18   11   12 1
  19   11   14 1
  20   11   15 1
  21   12   35 1
  22   12   36 1
  23   13   14 am
  24   13   20 1
  25   13   22 1
  26   14   21 2
  27   15   16 ar
  28   15   20 ar
  29   16   17 ar
  30   16   37 1
  31   17   18 ar
  32   17   38 1
  33   18   19 ar
  34   18   39 1
  35   19   20 ar
  36   19   40 1
  37   22   23 1
  38   22   41 1
  39   22   42 1
  40   23   24 ar
  41   23   28 ar
  42   24   25 ar
  43   24   29 1
  44   25   26 ar
  45   25   43 1
  46   26   27 ar
  47   26   44 1
  48   27   28 ar
  49   27   30 1
  50   28   45 1
  51   29   46 1
  52   29   47 1
  53   29   48 1

#	End of record

