#	Name: ASD08170711
#	Creating user name:	WinNT
#	Creation time:	15. 06. 2019 21:17

#	Modifying user name:	WinNT
#	Modification time:	15. 06. 2019 21:17

#	Program:	/corina/corina34_cracker 3.40 0067  02.08.2006

@<TRIPOS>MOLECULE
ASD08170711
  82   86    0    0    0
SMALL
NO_CHARGES


@<TRIPOS>ATOM
   1 N1            -0.0159     1.3150     0.0224 N.ar    
   2 C2             0.0017    -0.0034     0.0124 C.ar    
   3 C3            -1.2931    -0.7743     0.0243 C.3     
   4 C4            -2.1384    -0.3331     1.2208 C.3     
   5 C5            -3.4530    -1.1158     1.2328 C.3     
   6 C6            -4.2984    -0.6746     2.4294 C.3     
   7 C7            -5.5932    -1.4455     2.4412 C.2     
   8 C8             1.2122    -0.6808    -0.0095 C.ar    
   9 C9             2.3785     0.0690    -0.0202 C.ar    
  10 C10            2.2616     1.4575    -0.0083 C.ar    
  11 N11            1.0600     2.0148     0.0126 N.ar    
  12 N12            3.4043     2.2567    -0.0179 N.am    
  13 N13           -5.8033    -2.5767     3.0361 N.2     
  14 N14           -6.9625    -3.0651     2.9277 N.2     
  15 C15           -7.8359    -2.3975     2.2358 C.2     
  16 S16           -7.0970    -0.9657     1.6538 S.3     
  17 N17           -9.1540    -2.7791     2.0098 N.am    
  18 C18            3.2889     3.5963    -0.1113 C.2     
  19 O19            2.1992     4.1007    -0.2812 O.2     
  20 C20            4.5141     4.4673    -0.0047 C.3     
  21 C21            4.1152     5.9141    -0.1410 C.ar    
  22 C22            3.7798     6.6468     0.9824 C.ar    
  23 C23            3.4129     7.9745     0.8607 C.ar    
  24 C24            3.3807     8.5720    -0.3842 C.ar    
  25 C25            3.7174     7.8389    -1.5132 C.ar    
  26 C26            4.0905     6.5088    -1.3878 C.ar    
  27 C27           -9.6205    -3.9317     2.5297 C.2     
  28 O28           -8.8908    -4.6361     3.1947 O.2     
  29 C29          -11.0488    -4.3451     2.2847 C.3     
  30 C30          -11.3154    -5.6609     2.9693 C.ar    
  31 C31          -11.7761    -5.6812     4.2724 C.ar    
  32 C32          -12.0205    -6.8882     4.9004 C.ar    
  33 C33          -11.8047    -8.0749     4.2251 C.ar    
  34 C34          -11.3448    -8.0546     2.9216 C.ar    
  35 C35          -11.1045    -6.8475     2.2922 C.ar    
  36 O36            3.6861     8.4244    -2.7392 O.3     
  37 C37            3.2973     9.7985    -2.7923 C.3     
  38 C38            3.3208    10.2724    -4.2226 C.2     
  39 O39            3.6392     9.5086    -5.1093 O.2     
  40 N40            2.9881    11.5449    -4.5165 N.am    
  41 C41            3.0063    12.0216    -5.9061 C.3     
  42 C42            1.6432    12.6395    -6.2334 C.3     
  43 C43            1.3174    13.7220    -5.2018 C.3     
  44 C44            1.2412    13.0944    -3.8080 C.3     
  45 C45            2.5943    12.4802    -3.4539 C.3     
  46 H46           -1.8401    -0.5802    -0.8983 H       
  47 H47           -1.0805    -1.8405     0.1031 H       
  48 H48           -1.5915    -0.5273     2.1434 H       
  49 H49           -2.3511     0.7331     1.1420 H       
  50 H50           -4.0000    -0.9216     0.3102 H       
  51 H51           -3.2404    -2.1820     1.3116 H       
  52 H52           -3.7514    -0.8687     3.3520 H       
  53 H53           -4.5110     0.3916     2.3505 H       
  54 H54            1.2451    -1.7603    -0.0176 H       
  55 H55            3.3472    -0.4082    -0.0369 H       
  56 H56            4.2821     1.8485     0.0427 H       
  57 H57           -9.7376    -2.2157     1.4779 H       
  58 H58            4.9880     4.3107     0.9643 H       
  59 H59            5.2148     4.2073    -0.7981 H       
  60 H60            3.8040     6.1813     1.9566 H       
  61 H61            3.1510     8.5447     1.7397 H       
  62 H62            3.0935     9.6088    -0.4789 H       
  63 H63            4.3530     5.9361    -2.2651 H       
  64 H64          -11.7206    -3.5852     2.6839 H       
  65 H65          -11.2174    -4.4524     1.2132 H       
  66 H66          -11.9447    -4.7541     4.8001 H       
  67 H67          -12.3798    -6.9040     5.9188 H       
  68 H68          -11.9950    -9.0179     4.7160 H       
  69 H69          -11.1759    -8.9817     2.3941 H       
  70 H70          -10.7452    -6.8317     1.2738 H       
  71 H71            2.2900     9.9068    -2.3902 H       
  72 H72            3.9910    10.3955    -2.2002 H       
  73 H73            3.7863    12.7738    -6.0242 H       
  74 H74            3.1985    11.1844    -6.5771 H       
  75 H75            1.6743    13.0829    -7.2286 H       
  76 H76            0.8763    11.8655    -6.2032 H       
  77 H77            2.0976    14.4830    -5.2152 H       
  78 H78            0.3592    14.1802    -5.4466 H       
  79 H79            0.9861    13.8617    -3.0770 H       
  80 H80            0.4780    12.3162    -3.8007 H       
  81 H81            2.5168    11.9470    -2.5064 H       
  82 H82            3.3431    13.2680    -3.3721 H       
@<TRIPOS>BOND
   1    1    2 ar
   2    1   11 ar
   3    2    3 1
   4    2    8 ar
   5    3    4 1
   6    3   46 1
   7    3   47 1
   8    4    5 1
   9    4   48 1
  10    4   49 1
  11    5    6 1
  12    5   50 1
  13    5   51 1
  14    6    7 1
  15    6   52 1
  16    6   53 1
  17    7   13 2
  18    7   16 1
  19    8    9 ar
  20    8   54 1
  21    9   10 ar
  22    9   55 1
  23   10   11 ar
  24   10   12 1
  25   12   18 am
  26   12   56 1
  27   13   14 1
  28   14   15 2
  29   15   16 1
  30   15   17 1
  31   17   27 am
  32   17   57 1
  33   18   19 2
  34   18   20 1
  35   20   21 1
  36   20   58 1
  37   20   59 1
  38   21   22 ar
  39   21   26 ar
  40   22   23 ar
  41   22   60 1
  42   23   24 ar
  43   23   61 1
  44   24   25 ar
  45   24   62 1
  46   25   26 ar
  47   25   36 1
  48   26   63 1
  49   27   28 2
  50   27   29 1
  51   29   30 1
  52   29   64 1
  53   29   65 1
  54   30   31 ar
  55   30   35 ar
  56   31   32 ar
  57   31   66 1
  58   32   33 ar
  59   32   67 1
  60   33   34 ar
  61   33   68 1
  62   34   35 ar
  63   34   69 1
  64   35   70 1
  65   36   37 1
  66   37   38 1
  67   37   71 1
  68   37   72 1
  69   38   39 2
  70   38   40 am
  71   40   41 1
  72   40   45 1
  73   41   42 1
  74   41   73 1
  75   41   74 1
  76   42   43 1
  77   42   75 1
  78   42   76 1
  79   43   44 1
  80   43   77 1
  81   43   78 1
  82   44   45 1
  83   44   79 1
  84   44   80 1
  85   45   81 1
  86   45   82 1

#	End of record

