#	Name: ASD01883769
#	Creating user name:	WinNT
#	Creation time:	15. 06. 2019 19:47

#	Modifying user name:	WinNT
#	Modification time:	15. 06. 2019 19:47

#	Program:	/corina/corina34_cracker 3.40 0067  02.08.2006

@<TRIPOS>MOLECULE
ASD01883769
  44   48    0    0    0
SMALL
NO_CHARGES


@<TRIPOS>ATOM
   1 C1            -0.0167     1.3789     0.0096 C.2     
   2 C2             0.0021    -0.0041     0.0020 C.2     
   3 C3            -1.2229    -0.7132     0.0104 C.2     
   4 C4            -2.3913    -0.0452     0.0256 C.2     
   5 N5            -2.4195     1.3211     0.0332 N.pl3   
   6 C6            -1.2557     2.0463     0.0309 C.2     
   7 C7            -3.4508     2.2218     0.0483 C.2     
   8 C8            -2.9028     3.4569     0.0495 C.2     
   9 N9            -1.5738     3.3342     0.0397 N.2     
  10 C10           -4.9222     1.8962     0.0608 C.3     
  11 C11            1.2906    -0.7354    -0.0152 C.ar    
  12 C12            1.6542    -1.5261     1.0678 C.ar    
  13 C13            2.8690    -2.2096     1.0391 C.ar    
  14 C14            3.7142    -2.0946    -0.0804 C.ar    
  15 C15            3.3299    -1.2969    -1.1542 C.ar    
  16 C16            2.1375    -0.6334    -1.1250 C.ar    
  17 C17           -5.4613     1.9169    -1.3709 C.3     
  18 F18           -4.7800     0.9670    -2.1395 F       
  19 F19           -6.8272     1.6148    -1.3593 F       
  20 F20           -5.2695     3.1880    -1.9231 F       
  21 Cl21           1.4676     2.2791     0.0003 Cl      
  22 C22            3.5535    -3.1066     1.9751 C.2     
  23 C23            4.7118    -3.4648     1.4006 C.2     
  24 N24            4.8271    -2.8703     0.1707 N.pl3   
  25 C25            5.9089    -3.0260    -0.6975 C.ar    
  26 C26            6.9758    -3.8369    -0.3293 C.ar    
  27 C27            8.0420    -3.9831    -1.1997 C.ar    
  28 C28            8.0033    -3.3102    -2.4130 C.ar    
  29 C29            6.9105    -2.5207    -2.7137 C.ar    
  30 N30            5.9065    -2.4044    -1.8662 N.ar    
  31 H31           -1.2201    -1.7932     0.0042 H       
  32 H32           -3.3198    -0.5968     0.0315 H       
  33 H33           -3.4493     4.3884     0.0599 H       
  34 H34           -5.0716     0.9059     0.4910 H       
  35 H35           -5.4530     2.6364     0.6596 H       
  36 H36            1.0017    -1.6103     1.9243 H       
  37 H37            3.9755    -1.2059    -2.0152 H       
  38 H38            1.8481    -0.0171    -1.9634 H       
  39 H39            3.1936    -3.4194     2.9441 H       
  40 H40            5.4451    -4.1234     1.8420 H       
  41 H41            6.9732    -4.3458     0.6233 H       
  42 H42            8.8851    -4.6063    -0.9405 H       
  43 H43            8.8192    -3.4026    -3.1145 H       
  44 H44            6.8758    -1.9951    -3.6565 H       
@<TRIPOS>BOND
   1    1    2 2
   2    1   21 1
   3    1    6 1
   4    2    3 1
   5    2   11 1
   6    3    4 2
   7    3   31 1
   8    4    5 1
   9    4   32 1
  10    5    6 1
  11    5    7 1
  12    6    9 2
  13    7    8 2
  14    7   10 1
  15    8    9 1
  16    8   33 1
  17   10   17 1
  18   10   34 1
  19   10   35 1
  20   11   12 ar
  21   11   16 ar
  22   12   13 ar
  23   12   36 1
  24   13   14 ar
  25   13   22 1
  26   14   15 ar
  27   14   24 1
  28   15   16 ar
  29   15   37 1
  30   16   38 1
  31   17   18 1
  32   17   19 1
  33   17   20 1
  34   22   23 2
  35   22   39 1
  36   23   24 1
  37   23   40 1
  38   24   25 1
  39   25   26 ar
  40   25   30 ar
  41   26   27 ar
  42   26   41 1
  43   27   28 ar
  44   27   42 1
  45   28   29 ar
  46   28   43 1
  47   29   30 ar
  48   29   44 1

#	End of record

