#	Name: ASD03331102
#	Creating user name:	WinNT
#	Creation time:	15. 06. 2019 20:38

#	Modifying user name:	WinNT
#	Modification time:	15. 06. 2019 20:38

#	Program:	/corina/corina34_cracker 3.40 0067  02.08.2006

@<TRIPOS>MOLECULE
ASD03331102
  68   71    0    0    0
SMALL
NO_CHARGES


@<TRIPOS>ATOM
   1 N1            -0.7150     1.7639    -0.0835 N.pl3   
   2 C2            -0.5036     0.4363     0.1219 C.2     
   3 C3             0.8201    -0.2002     0.4563 C.3     
   4 N4             1.4655     0.5667     1.5332 N.3     
   5 C5             2.2894     1.6496     0.9928 C.3     
   6 C6             1.6757     2.2176    -0.2837 C.3     
   7 C7             0.3002     2.8156     0.0239 C.3     
   8 C8            -2.0346     1.9247    -0.3916 C.2     
   9 N9            -2.6183     0.7494    -0.3603 N.2     
  10 C10           -1.7007    -0.1908    -0.0434 C.2     
  11 C11           -1.9510    -1.6360     0.0973 C.2     
  12 O12           -1.0383    -2.3859     0.3870 O.2     
  13 N13           -3.1913    -2.1270    -0.0951 N.am    
  14 C14           -2.6966     3.2086    -0.7075 C.ar    
  15 C15           -3.5446     3.3068    -1.8141 C.ar    
  16 C16           -4.1609     4.5089    -2.1043 C.ar    
  17 C17           -3.9392     5.6152    -1.3012 C.ar    
  18 C18           -3.0976     5.5232    -0.2014 C.ar    
  19 C19           -2.4814     4.3250     0.1014 C.ar    
  20 F20           -2.8849     6.6065     0.5773 F       
  21 F21           -4.5439     6.7883    -1.5897 F       
  22 F22           -3.7609     2.2285    -2.5987 F       
  23 C23            2.2570    -0.3125     2.4042 C.3     
  24 C24           -4.6464    -3.9469    -0.7735 C.2     
  25 C25           -3.4401    -3.5640     0.0447 C.3     
  26 C26           -3.6955    -3.8965     1.5161 C.3     
  27 C27           -4.0852    -5.3704     1.6457 C.3     
  28 O28           -5.5238    -3.1347    -0.9769 O.2     
  29 C29           -2.4252    -3.6317     2.3268 C.3     
  30 C30           -4.8315    -3.0200     2.0474 C.3     
  31 N31           -4.7501    -5.1918    -1.2791 N.am    
  32 C32           -5.7671    -5.9521    -2.0212 C.3     
  33 C33           -4.6272    -6.7864    -2.6217 C.3     
  34 C34           -3.8935    -6.3859    -1.3374 C.3     
  35 O35           -4.9142    -8.1825    -2.7247 O.3     
  36 C36           -4.2539    -8.8330    -3.8122 C.3     
  37 H37            0.6580    -1.2263     0.7864 H       
  38 H38            1.4593    -0.1971    -0.4267 H       
  39 H39            2.3697     2.4434     1.7354 H       
  40 H40            3.2852     1.2656     0.7712 H       
  41 H41            2.3270     2.9943    -0.6845 H       
  42 H42            1.5681     1.4208    -1.0197 H       
  43 H43            0.0798     3.6091    -0.6901 H       
  44 H44            0.2976     3.2226     1.0351 H       
  45 H45           -3.9192    -1.5290    -0.3262 H       
  46 H46           -4.8164     4.5860    -2.9592 H       
  47 H47           -1.8302     4.2534     0.9600 H       
  48 H48            2.9840    -0.8597     1.8041 H       
  49 H49            2.7792     0.2882     3.1489 H       
  50 H50            1.5951    -1.0184     2.9059 H       
  51 H51           -2.5709    -4.1192    -0.3077 H       
  52 H52           -3.2878    -5.9939     1.2415 H       
  53 H53           -4.2398    -5.6143     2.6968 H       
  54 H54           -5.0057    -5.5529     1.0912 H       
  55 H55           -2.1475    -2.5817     2.2345 H       
  56 H56           -2.6071    -3.8686     3.3750 H       
  57 H57           -1.6159    -4.2561     1.9483 H       
  58 H58           -5.7365    -3.2087     1.4699 H       
  59 H59           -5.0134    -3.2569     3.0957 H       
  60 H60           -4.5538    -1.9700     1.9551 H       
  61 H61           -6.4338    -6.5271    -1.3785 H       
  62 H62           -6.3031    -5.3549    -2.7588 H       
  63 H63           -4.1951    -6.3650    -3.5294 H       
  64 H64           -2.8395    -6.1567    -1.4948 H       
  65 H65           -4.0561    -7.0775    -0.5108 H       
  66 H66           -4.5234    -9.8891    -3.8216 H       
  67 H67           -4.5597    -8.3717    -4.7513 H       
  68 H68           -3.1749    -8.7344    -3.6935 H       
@<TRIPOS>BOND
   1    1    2 1
   2    1    7 1
   3    1    8 1
   4    2    3 1
   5    2   10 2
   6    3    4 1
   7    3   37 1
   8    3   38 1
   9    4    5 1
  10    4   23 1
  11    5    6 1
  12    5   39 1
  13    5   40 1
  14    6    7 1
  15    6   41 1
  16    6   42 1
  17    7   43 1
  18    7   44 1
  19    8    9 2
  20    8   14 1
  21    9   10 1
  22   10   11 1
  23   11   12 2
  24   11   13 am
  25   13   25 1
  26   13   45 1
  27   14   15 ar
  28   14   19 ar
  29   15   16 ar
  30   15   22 1
  31   16   17 ar
  32   16   46 1
  33   17   18 ar
  34   17   21 1
  35   18   19 ar
  36   18   20 1
  37   19   47 1
  38   23   48 1
  39   23   49 1
  40   23   50 1
  41   24   28 2
  42   24   31 am
  43   24   25 1
  44   25   26 1
  45   25   51 1
  46   26   27 1
  47   26   29 1
  48   26   30 1
  49   27   52 1
  50   27   53 1
  51   27   54 1
  52   29   55 1
  53   29   56 1
  54   29   57 1
  55   30   58 1
  56   30   59 1
  57   30   60 1
  58   31   32 1
  59   31   34 1
  60   32   33 1
  61   32   61 1
  62   32   62 1
  63   33   34 1
  64   33   35 1
  65   33   63 1
  66   34   64 1
  67   34   65 1
  68   35   36 1
  69   36   66 1
  70   36   67 1
  71   36   68 1

#	End of record

