#	Name: ASD01880014
#	Creating user name:	WinNT
#	Creation time:	15. 06. 2019 19:39

#	Modifying user name:	WinNT
#	Modification time:	15. 06. 2019 19:39

#	Program:	/corina/corina34_cracker 3.40 0067  02.08.2006

@<TRIPOS>MOLECULE
ASD01880014
  55   57    0    0    0
SMALL
NO_CHARGES


@<TRIPOS>ATOM
   1 N1            -0.0060     0.4442    -0.5574 N.pl3   
   2 N2             0.1691     0.5464    -1.8286 N.2     
   3 N3             1.4330     0.6306    -2.0718 N.2     
   4 C4             2.0695     0.5779    -0.8931 C.2     
   5 N5             1.1391     0.4612     0.0335 N.2     
   6 C6             3.5362     0.6390    -0.6741 C.ar    
   7 C7             4.3996     0.7644    -1.7606 C.ar    
   8 C8             5.7621     0.8209    -1.5541 C.ar    
   9 C9             6.2735     0.7525    -0.2653 C.ar    
  10 C10            5.4157     0.6276     0.8190 C.ar    
  11 C11            4.0521     0.5769     0.6189 C.ar    
  12 C12           13.3222     5.3861    -0.2014 C.ar    
  13 C13           14.2437     4.3597    -0.0116 C.ar    
  14 C14           15.5794     4.6327     0.0469 C.ar    
  15 C15           16.0325     5.9523    -0.0845 C.ar    
  16 C16           15.1040     6.9915    -0.2767 C.ar    
  17 C17           13.7526     6.6989    -0.3334 C.ar    
  18 C18           12.7494     7.8044    -0.5395 C.3     
  19 C19           12.5082     8.0015    -2.0375 C.3     
  20 C20           11.4898     9.1239    -2.2467 C.3     
  21 O21           15.5305     8.2723    -0.4047 O.3     
  22 C22           17.4659     6.2481    -0.0215 C.2     
  23 C23           18.4573     5.1321     0.1850 C.3     
  24 O24           17.8549     7.3918    -0.1356 O.2     
  25 O25            7.6165     0.8076    -0.0648 O.3     
  26 C26            8.1992     2.0128    -0.1672 C.2     
  27 C27           11.6220     3.7288    -0.1255 C.3     
  28 C28            9.6983     2.1354    -0.0735 C.3     
  29 C29           10.1001     3.6044    -0.2207 C.3     
  30 O30           11.9973     5.1008    -0.2629 O.3     
  31 O31            7.5217     2.9992    -0.3345 O.2     
  32 H32           -0.8653     0.3702    -0.1135 H       
  33 H33            4.0023     0.8169    -2.7635 H       
  34 H34            6.4317     0.9181    -2.3958 H       
  35 H35            5.8163     0.5743     1.8205 H       
  36 H36            3.3852     0.4796     1.4628 H       
  37 H37           13.8992     3.3412     0.0901 H       
  38 H38           16.2880     3.8312     0.1950 H       
  39 H39           11.8112     7.5392    -0.0522 H       
  40 H40           13.1340     8.7289    -0.1087 H       
  41 H41           13.4465     8.2668    -2.5247 H       
  42 H42           12.1237     7.0770    -2.4683 H       
  43 H43           10.5515     8.8587    -1.7594 H       
  44 H44           11.8743    10.0484    -1.8158 H       
  45 H45           11.3179     9.2644    -3.3138 H       
  46 H46           15.7149     8.5362    -1.3166 H       
  47 H47           18.3721     4.4147    -0.6312 H       
  48 H48           19.4670     5.5421     0.2045 H       
  49 H49           18.2497     4.6322     1.1312 H       
  50 H50           11.9573     3.3556     0.8421 H       
  51 H51           12.0848     3.1442    -0.9206 H       
  52 H52           10.0336     1.7622     0.8941 H       
  53 H53           10.1611     1.5508    -0.8686 H       
  54 H54            9.6373     4.1890     0.5745 H       
  55 H55            9.7648     3.9776    -1.1883 H       
@<TRIPOS>BOND
   1    1    2 1
   2    1    5 1
   3    1   32 1
   4    2    3 2
   5    3    4 1
   6    4    5 2
   7    4    6 1
   8    6    7 ar
   9    6   11 ar
  10    7    8 ar
  11    7   33 1
  12    8    9 ar
  13    8   34 1
  14    9   10 ar
  15    9   25 1
  16   10   11 ar
  17   10   35 1
  18   11   36 1
  19   12   13 ar
  20   12   17 ar
  21   12   30 1
  22   13   14 ar
  23   13   37 1
  24   14   15 ar
  25   14   38 1
  26   15   16 ar
  27   15   22 1
  28   16   17 ar
  29   16   21 1
  30   17   18 1
  31   18   19 1
  32   18   39 1
  33   18   40 1
  34   19   20 1
  35   19   41 1
  36   19   42 1
  37   20   43 1
  38   20   44 1
  39   20   45 1
  40   21   46 1
  41   22   23 1
  42   22   24 2
  43   23   47 1
  44   23   48 1
  45   23   49 1
  46   25   26 1
  47   26   28 1
  48   26   31 2
  49   27   30 1
  50   27   29 1
  51   27   50 1
  52   27   51 1
  53   28   29 1
  54   28   52 1
  55   28   53 1
  56   29   54 1
  57   29   55 1

#	End of record

