#	Name: ASD01882384
#	Creating user name:	WinNT
#	Creation time:	15. 06. 2019 19:44

#	Modifying user name:	WinNT
#	Modification time:	15. 06. 2019 19:44

#	Program:	/corina/corina34_cracker 3.40 0067  02.08.2006

@<TRIPOS>MOLECULE
ASD01882384
  55   59    0    0    0
SMALL
NO_CHARGES


@<TRIPOS>ATOM
   1 C1             1.1969     1.2789     1.0174 C.2     
   2 C2             1.4783    -0.0968     0.9616 C.2     
   3 C3             0.9817    -0.8375    -0.0764 C.2     
   4 C4             0.1986    -0.2088    -1.0690 C.2     
   5 C5            -0.0589     1.1116    -0.9958 C.2     
   6 N6             0.4315     1.8590     0.0350 N.pl3   
   7 N7             1.0096     3.3534     1.4748 N.2     
   8 N8             1.5175     2.2395     1.8706 N.2     
   9 C9             0.3400     3.1791     0.3660 C.2     
  10 C10            2.3167    -0.7481     2.0312 C.3     
  11 F11            3.6526    -0.7864     1.6177 F       
  12 F12            2.2162    -0.0109     3.2159 F       
  13 F13            1.8596    -2.0516     2.2528 F       
  14 N14            1.2472    -2.2013    -0.1534 N.pl3   
  15 C15            2.6160    -2.6860    -0.3772 C.3     
  16 C16            2.6136    -3.6306    -1.5833 C.3     
  17 C17            1.5835    -4.7394    -1.3557 C.3     
  18 C18            0.1891    -4.1230    -1.2222 C.3     
  19 C19            0.1649    -3.1841    -0.0064 C.3     
  20 C20            1.6024    -5.6898    -2.5251 C.ar    
  21 C21            1.0001    -5.3318    -3.7166 C.ar    
  22 C22            1.0173    -6.2036    -4.7892 C.ar    
  23 C23            1.6373    -7.4334    -4.6703 C.ar    
  24 C24            2.2405    -7.7911    -3.4791 C.ar    
  25 C25            2.2270    -6.9175    -2.4079 C.ar    
  26 C26            2.2493    -2.8463    -2.8455 C.3     
  27 C27           -0.4000     4.2419    -0.4047 C.3     
  28 C28           -1.8419     4.3270     0.0999 C.3     
  29 C29           -2.7286     5.4318    -0.4782 C.3     
  30 C30           -2.9574     3.9751    -0.8864 C.3     
  31 H31           -0.1954    -0.7888    -1.8905 H       
  32 H32           -0.6587     1.5830    -1.7603 H       
  33 H33            3.2749    -1.8409    -0.5763 H       
  34 H34            2.9628    -3.2222     0.5061 H       
  35 H35            3.6032    -4.0721    -1.7016 H       
  36 H36            1.8297    -5.2819    -0.4430 H       
  37 H37           -0.0476    -3.5596    -2.1248 H       
  38 H38           -0.5469    -4.9149    -1.0835 H       
  39 H39            0.3159    -3.7601     0.9065 H       
  40 H40           -0.7939    -2.6677     0.0392 H       
  41 H41            0.5157    -4.3710    -3.8095 H       
  42 H42            0.5461    -5.9242    -5.7199 H       
  43 H43            1.6502    -8.1149    -5.5081 H       
  44 H44            2.7246    -8.7521    -3.3861 H       
  45 H45            2.7014    -7.1954    -1.4783 H       
  46 H46            2.9269    -1.9997    -2.9554 H       
  47 H47            2.3368    -3.4971    -3.7155 H       
  48 H48            1.2246    -2.4835    -2.7647 H       
  49 H49            0.0924     5.2037    -0.2615 H       
  50 H50           -0.4003     3.9881    -1.4647 H       
  51 H51           -1.9907     4.0577     1.1455 H       
  52 H52           -3.4610     5.8890     0.1871 H       
  53 H53           -2.2846     6.0980    -1.2179 H       
  54 H54           -2.6640     3.6830    -1.8947 H       
  55 H55           -3.8404     3.4740    -0.4897 H       
@<TRIPOS>BOND
   1    1    2 1
   2    1    6 1
   3    1    8 2
   4    2    3 2
   5    2   10 1
   6    3    4 1
   7    3   14 1
   8    4    5 2
   9    4   31 1
  10    5    6 1
  11    5   32 1
  12    6    9 1
  13    7    8 1
  14    7    9 2
  15    9   27 1
  16   10   11 1
  17   10   12 1
  18   10   13 1
  19   14   15 1
  20   14   19 1
  21   15   16 1
  22   15   33 1
  23   15   34 1
  24   16   17 1
  25   16   26 1
  26   16   35 1
  27   17   18 1
  28   17   20 1
  29   17   36 1
  30   18   19 1
  31   18   37 1
  32   18   38 1
  33   19   39 1
  34   19   40 1
  35   20   21 ar
  36   20   25 ar
  37   21   22 ar
  38   21   41 1
  39   22   23 ar
  40   22   42 1
  41   23   24 ar
  42   23   43 1
  43   24   25 ar
  44   24   44 1
  45   25   45 1
  46   26   46 1
  47   26   47 1
  48   26   48 1
  49   27   28 1
  50   27   49 1
  51   27   50 1
  52   28   29 1
  53   28   30 1
  54   28   51 1
  55   29   30 1
  56   29   52 1
  57   29   53 1
  58   30   54 1
  59   30   55 1

#	End of record

