#	Name: ASD07931983
#	Creating user name:	WinNT
#	Creation time:	15. 06. 2019 21:14

#	Modifying user name:	WinNT
#	Modification time:	15. 06. 2019 21:14

#	Program:	/corina/corina34_cracker 3.40 0067  02.08.2006

@<TRIPOS>MOLECULE
ASD07931983
  52   55    0    0    0
SMALL
NO_CHARGES


@<TRIPOS>ATOM
   1 C1            -0.0903     1.1916    -0.5516 C.ar    
   2 N2             0.0042    -0.0013     0.0233 N.ar    
   3 C3             1.0194     1.7749    -1.1588 C.ar    
   4 C4             1.1360    -0.6705     0.0416 C.ar    
   5 C5             2.2800    -0.1505    -0.5432 C.ar    
   6 C6             2.2257     1.0921    -1.1546 C.ar    
   7 C7            -1.3881     1.9056    -0.5528 C.2     
   8 O8            -1.4803     2.9979    -1.0777 O.2     
   9 N9            -2.4668     1.3439     0.0281 N.am    
  10 C10            3.5703    -0.9285    -0.5142 C.3     
  11 C11           -3.6627     2.0637     0.1267 C.ar    
  12 C12           -4.8813     1.4058     0.0197 C.ar    
  13 C13           -6.0603     2.1180     0.1178 C.ar    
  14 C14           -6.0283     3.4873     0.3226 C.ar    
  15 C15           -4.8147     4.1453     0.4291 C.ar    
  16 C16           -3.6330     3.4359     0.3373 C.ar    
  17 F17           -7.1829     4.1822     0.4183 F       
  18 S18           -8.6528    -0.4754    -2.2169 S.3     
  19 C19           -8.6283     1.2819    -2.1156 C.2     
  20 N20           -8.0731     1.9093    -1.1463 N.2     
  21 C21           -7.3827     1.4047     0.0013 C.3     
  22 C22           -7.1050    -0.1069    -0.0039 C.3     
  23 C23           -8.3444    -0.8724    -0.4774 C.3     
  24 O24           -7.8865     0.4968     2.1576 O.3     
  25 C25           -8.1653     1.6178     1.3070 C.3     
  26 C26           -6.9456    -0.3806     1.5174 C.3     
  27 C27           -7.2811    -1.8398     1.8324 C.3     
  28 F28           -6.4160    -2.6806     1.1240 F       
  29 F29           -7.1321    -2.0668     3.2047 F       
  30 F30           -8.6021    -2.1062     1.4564 F       
  31 N31           -9.2287     2.0100    -3.1165 N.pl3   
  32 C32            3.6550    -1.8221    -1.7532 C.3     
  33 H33            0.9409     2.7453    -1.6264 H       
  34 H34            1.1748    -1.6384     0.5192 H       
  35 H35            3.1033     1.5185    -1.6176 H       
  36 H36           -2.4141     0.4407     0.3779 H       
  37 H37            4.4120    -0.2361    -0.5074 H       
  38 H38            3.6014    -1.5471     0.3827 H       
  39 H39           -4.9067     0.3380    -0.1404 H       
  40 H40           -4.7920     5.2132     0.5885 H       
  41 H41           -2.6866     3.9488     0.4249 H       
  42 H42           -6.2163    -0.3643    -0.5801 H       
  43 H43           -9.2059    -0.5784     0.1222 H       
  44 H44           -8.1736    -1.9438    -0.3725 H       
  45 H45           -7.8385     2.5392     1.7890 H       
  46 H46           -9.2334     1.6661     1.0955 H       
  47 H47           -5.9308    -0.1470     1.8394 H       
  48 H48           -9.6546     1.5541    -3.8593 H       
  49 H49           -9.2262     2.9793    -3.0795 H       
  50 H50            4.5883    -2.3849    -1.7322 H       
  51 H51            2.8132    -2.5146    -1.7600 H       
  52 H52            3.6238    -1.2036    -2.6502 H       
@<TRIPOS>BOND
   1    1    2 ar
   2    1    3 ar
   3    1    7 1
   4    2    4 ar
   5    3    6 ar
   6    3   33 1
   7    4    5 ar
   8    4   34 1
   9    5    6 ar
  10    5   10 1
  11    6   35 1
  12    7    8 2
  13    7    9 am
  14    9   11 1
  15    9   36 1
  16   10   32 1
  17   10   37 1
  18   10   38 1
  19   11   12 ar
  20   11   16 ar
  21   12   13 ar
  22   12   39 1
  23   13   14 ar
  24   13   21 1
  25   14   15 ar
  26   14   17 1
  27   15   16 ar
  28   15   40 1
  29   16   41 1
  30   18   19 1
  31   18   23 1
  32   19   20 2
  33   19   31 1
  34   20   21 1
  35   21   25 1
  36   21   22 1
  37   22   23 1
  38   22   26 1
  39   22   42 1
  40   23   43 1
  41   23   44 1
  42   24   25 1
  43   24   26 1
  44   25   45 1
  45   25   46 1
  46   26   27 1
  47   26   47 1
  48   27   28 1
  49   27   29 1
  50   27   30 1
  51   31   48 1
  52   31   49 1
  53   32   50 1
  54   32   51 1
  55   32   52 1

#	End of record

