#	Name: ASD05790003
#	Creating user name:	WinNT
#	Creation time:	15. 06. 2019 21:03

#	Modifying user name:	WinNT
#	Modification time:	15. 06. 2019 21:03

#	Program:	/corina/corina34_cracker 3.40 0067  02.08.2006

@<TRIPOS>MOLECULE
ASD05790003
  49   52    0    0    0
SMALL
NO_CHARGES


@<TRIPOS>ATOM
   1 C1            -0.1753     1.4722    -0.5693 C.2     
   2 C2            -0.1532    -0.0033    -0.5732 C.ar    
   3 C3             0.8994    -0.6867    -1.1880 C.ar    
   4 C4             0.9163    -2.0635    -1.1894 C.ar    
   5 C5            -0.1120    -2.7737    -0.5808 C.ar    
   6 C6            -1.1610    -2.0978     0.0314 C.ar    
   7 C7            -1.1819    -0.7210     0.0430 C.ar    
   8 O8             0.7232     2.0951    -1.1016 O.2     
   9 N9            -1.1942     2.1294     0.0193 N.am    
  10 C10           -1.1619     3.5218     0.1191 C.ar    
  11 C11           -2.3411     4.2520     0.0191 C.ar    
  12 C12           -2.3128     5.6259     0.1176 C.ar    
  13 C13           -1.0980     6.2851     0.3182 C.ar    
  14 C14            0.0845     5.5488     0.4183 C.ar    
  15 C15            0.0486     4.1748     0.3242 C.ar    
  16 O16           -2.1302     8.5731     0.3440 O.3     
  17 C17           -1.0639     7.7583     0.4238 C.2     
  18 N18            0.0115     8.4851     0.6108 N.2     
  19 C19           -0.3499     9.7845     0.6541 C.2     
  20 C20           -1.6952     9.8402     0.4865 C.2     
  21 C21           -2.5434    11.0856     0.4634 C.3     
  22 F22           -2.6393    11.5601    -0.8492 F       
  23 F23           -3.8223    10.7878     0.9462 F       
  24 F24           -1.9561    12.0649     1.2716 F       
  25 C25            0.5584    10.9416     0.8494 C.ar    
  26 C26            1.6703    10.8252     1.6811 C.ar    
  27 C27            2.5121    11.9045     1.8587 C.ar    
  28 C28            2.2533    13.1002     1.2133 C.ar    
  29 C29            1.1510    13.2213     0.3865 C.ar    
  30 C30            0.3058    12.1468     0.1971 C.ar    
  31 O31           -0.0920    -4.1307    -0.5848 O.3     
  32 C32           -1.1799    -4.7974     0.0586 C.3     
  33 H33            1.6984    -0.1356    -1.6617 H       
  34 H34            1.7294    -2.5924    -1.6643 H       
  35 H35           -1.9585    -2.6532     0.5026 H       
  36 H36           -1.9947    -0.1965     0.5234 H       
  37 H37           -1.9498     1.6351     0.3736 H       
  38 H38           -3.2801     3.7416    -0.1364 H       
  39 H39           -3.2289     6.1924     0.0394 H       
  40 H40            1.0254     6.0556     0.5734 H       
  41 H41            0.9621     3.6045     0.4055 H       
  42 H42            1.8729     9.8923     2.1861 H       
  43 H43            3.3741    11.8153     2.5032 H       
  44 H44            2.9142    13.9424     1.3557 H       
  45 H45            0.9534    14.1574    -0.1148 H       
  46 H46           -0.5521    12.2411    -0.4521 H       
  47 H47           -2.1153    -4.5169    -0.4255 H       
  48 H48           -1.0408    -5.8759    -0.0169 H       
  49 H49           -1.2133    -4.5081     1.1090 H       
@<TRIPOS>BOND
   1    1    2 1
   2    1    8 2
   3    1    9 am
   4    2    3 ar
   5    2    7 ar
   6    3    4 ar
   7    3   33 1
   8    4    5 ar
   9    4   34 1
  10    5    6 ar
  11    5   31 1
  12    6    7 ar
  13    6   35 1
  14    7   36 1
  15    9   10 1
  16    9   37 1
  17   10   11 ar
  18   10   15 ar
  19   11   12 ar
  20   11   38 1
  21   12   13 ar
  22   12   39 1
  23   13   14 ar
  24   13   17 1
  25   14   15 ar
  26   14   40 1
  27   15   41 1
  28   16   17 1
  29   16   20 1
  30   17   18 2
  31   18   19 1
  32   19   20 2
  33   19   25 1
  34   20   21 1
  35   21   22 1
  36   21   23 1
  37   21   24 1
  38   25   26 ar
  39   25   30 ar
  40   26   27 ar
  41   26   42 1
  42   27   28 ar
  43   27   43 1
  44   28   29 ar
  45   28   44 1
  46   29   30 ar
  47   29   45 1
  48   30   46 1
  49   31   32 1
  50   32   47 1
  51   32   48 1
  52   32   49 1

#	End of record

