#	Name: ASD01880109
#	Creating user name:	WinNT
#	Creation time:	15. 06. 2019 19:40

#	Modifying user name:	WinNT
#	Modification time:	15. 06. 2019 19:40

#	Program:	/corina/corina34_cracker 3.40 0067  02.08.2006

@<TRIPOS>MOLECULE
ASD01880109
  58   62    0    0    0
SMALL
NO_CHARGES


@<TRIPOS>ATOM
   1 C1            -0.0169     1.3934     0.0097 C.ar    
   2 C2             0.0021    -0.0041     0.0020 C.ar    
   3 C3            -1.1808    -0.7078     0.0100 C.ar    
   4 C4            -2.3984    -0.0268     0.0258 C.ar    
   5 C5            -2.4187     1.3682     0.0335 C.ar    
   6 C6            -1.2372     2.0744     0.0309 C.ar    
   7 C7            -3.6718    -0.7862     0.0339 C.ar    
   8 C8            -3.6553    -2.1799     0.0258 C.ar    
   9 C9            -4.8438    -2.8815     0.0339 C.ar    
  10 C10           -6.0497    -2.2043     0.0500 C.ar    
  11 C11           -6.0723    -0.8209     0.0581 C.ar    
  12 C12           -4.8904    -0.1089     0.0555 C.ar    
  13 C13           -7.3902    -0.0904     0.0756 C.3     
  14 O14           -7.7931     0.1329     1.4284 O.3     
  15 C15           -8.9678     0.7840     1.6218 C.ar    
  16 C16           -9.7185     1.2002     0.5291 C.ar    
  17 C17          -10.9136     1.8621     0.7166 C.ar    
  18 C18          -11.3753     2.1174     2.0100 C.ar    
  19 C19          -10.6109     1.6931     3.1128 C.ar    
  20 C20           -9.4216     1.0288     2.9137 C.ar    
  21 C21          -11.8993     2.4084    -0.2886 C.3     
  22 C22          -13.0378     3.0388     0.5252 C.3     
  23 C23          -12.6594     2.8287     1.9711 C.2     
  24 C24          -13.1449     4.5336     0.2172 C.3     
  25 C25          -13.4306     4.7441    -1.2801 C.3     
  26 C26          -14.7843     5.4782    -1.3715 C.3     
  27 C27          -14.9255     6.1867    -0.0014 C.3     
  28 C28          -14.3350     5.1471     0.9834 C.3     
  29 O29          -13.3042     3.1859     2.9344 O.2     
  30 Cl30          -8.4816     0.5064     4.2765 Cl      
  31 Cl31         -11.1711     2.0029     4.7265 Cl      
  32 C32            1.2507     2.1493     0.0017 C.2     
  33 O33            2.3113     1.5568    -0.0116 O.2     
  34 O34            1.2318     3.4966     0.0091 O.3     
  35 H35            0.9444    -0.5315    -0.0105 H       
  36 H36           -1.1665    -1.7877     0.0037 H       
  37 H37           -3.3619     1.8942     0.0457 H       
  38 H38           -1.2532     3.1543     0.0368 H       
  39 H39           -2.7143    -2.7098     0.0128 H       
  40 H40           -4.8323    -3.9615     0.0272 H       
  41 H41           -6.9773    -2.7574     0.0559 H       
  42 H42           -4.9091     0.9709     0.0618 H       
  43 H43           -7.2818     0.8671    -0.4339 H       
  44 H44           -8.1447    -0.6897    -0.4340 H       
  45 H45           -9.3641     1.0046    -0.4722 H       
  46 H46          -11.4200     3.1646    -0.9103 H       
  47 H47          -12.2860     1.6013    -0.9108 H       
  48 H48          -13.9810     2.5386     0.3052 H       
  49 H49          -12.2202     5.0391     0.4955 H       
  50 H50          -12.6450     5.3525    -1.7282 H       
  51 H51          -13.4930     3.7813    -1.7873 H       
  52 H52          -14.7678     6.2098    -2.1793 H       
  53 H53          -15.5958     4.7653    -1.5177 H       
  54 H54          -14.3459     7.1096     0.0178 H       
  55 H55          -15.9733     6.3825     0.2261 H       
  56 H56          -15.0739     4.3807     1.2175 H       
  57 H57          -13.9905     5.6371     1.8941 H       
  58 H58            2.0871     3.9477     0.0033 H       
@<TRIPOS>BOND
   1    1    2 ar
   2    1   32 1
   3    1    6 ar
   4    2    3 ar
   5    2   35 1
   6    3    4 ar
   7    3   36 1
   8    4    5 ar
   9    4    7 1
  10    5    6 ar
  11    5   37 1
  12    6   38 1
  13    7    8 ar
  14    7   12 ar
  15    8    9 ar
  16    8   39 1
  17    9   10 ar
  18    9   40 1
  19   10   11 ar
  20   10   41 1
  21   11   12 ar
  22   11   13 1
  23   12   42 1
  24   13   14 1
  25   13   43 1
  26   13   44 1
  27   14   15 1
  28   15   16 ar
  29   15   20 ar
  30   16   17 ar
  31   16   45 1
  32   17   18 ar
  33   17   21 1
  34   18   19 ar
  35   18   23 1
  36   19   20 ar
  37   19   31 1
  38   20   30 1
  39   21   22 1
  40   21   46 1
  41   21   47 1
  42   22   23 1
  43   22   24 1
  44   22   48 1
  45   23   29 2
  46   24   25 1
  47   24   28 1
  48   24   49 1
  49   25   26 1
  50   25   50 1
  51   25   51 1
  52   26   27 1
  53   26   52 1
  54   26   53 1
  55   27   28 1
  56   27   54 1
  57   27   55 1
  58   28   56 1
  59   28   57 1
  60   32   33 2
  61   32   34 1
  62   34   58 1

#	End of record

