#	Name: ASD05720322
#	Creating user name:	WinNT
#	Creation time:	15. 06. 2019 21:02

#	Modifying user name:	WinNT
#	Modification time:	15. 06. 2019 21:02

#	Program:	/corina/corina34_cracker 3.40 0067  02.08.2006

@<TRIPOS>MOLECULE
ASD05720322
  70   74    0    0    0
SMALL
NO_CHARGES


@<TRIPOS>ATOM
   1 N1             0.7182     2.2492    -1.6696 N.am    
   2 C2             0.6639     0.9192    -1.4580 C.2     
   3 O3             1.5813     0.3555    -0.8934 O.2     
   4 N4            -0.4074     0.2142    -1.8723 N.am    
   5 C5            -0.4175    -1.1770    -1.7503 C.ar    
   6 C6            -1.6126    -1.8432    -1.5022 C.ar    
   7 C7            -1.6257    -3.2154    -1.3813 C.ar    
   8 C8            -0.4376    -3.9372    -1.5087 C.ar    
   9 C9             0.7606    -3.2658    -1.7582 C.ar    
  10 C10            0.7666    -1.8938    -1.8829 C.ar    
  11 C11           -1.2896    -7.3346    -0.4074 C.ar    
  12 N12           -0.4961    -8.1222    -1.1140 N.ar    
  13 C13            0.3640    -7.6097    -1.9898 C.ar    
  14 C14            0.4172    -6.2100    -2.1542 C.ar    
  15 C15           -0.4482    -5.4110    -1.3789 C.ar    
  16 N16           -1.2744    -6.0135    -0.5287 N.ar    
  17 N17            1.9045    -7.0803    -3.5273 N.2     
  18 N18            1.2880    -8.1360    -2.8440 N.pl3   
  19 C19            1.4014    -5.9462    -3.1305 C.2     
  20 O20           -3.2660    -8.4097     3.0272 O.3     
  21 C21           -3.9714    -7.5659     2.1130 C.3     
  22 C22           -2.9685    -6.8843     1.1784 C.3     
  23 N23           -2.1736    -7.9108     0.4885 N.3     
  24 C24           -1.4639    -8.7586     1.4574 C.3     
  25 C25           -2.4820    -9.4214     2.3892 C.3     
  26 N26            2.9610   -11.7437    -4.1735 N.am    
  27 C27            1.5953   -11.4618    -4.6360 C.3     
  28 C28            1.3168    -9.9648    -4.4678 C.3     
  29 C29            1.5850    -9.5601    -3.0164 C.3     
  30 C30            3.0543    -9.8194    -2.6759 C.3     
  31 C31            3.3525   -11.3147    -2.8238 C.3     
  32 C32            3.8364   -12.3885    -4.9700 C.2     
  33 O33            3.4715   -12.8317    -6.0383 O.2     
  34 C34            5.2686   -12.5588    -4.5331 C.3     
  35 C35            5.3479   -13.6424    -3.4559 C.3     
  36 N36            6.0887   -12.9536    -5.6862 N.3     
  37 C37            1.8827     3.0156    -1.2192 C.3     
  38 H38           -0.0119     2.6983    -2.1236 H       
  39 H39           -1.1715     0.6730    -2.2553 H       
  40 H40           -2.5315    -1.2842    -1.4037 H       
  41 H41           -2.5541    -3.7322    -1.1879 H       
  42 H42            1.6812    -3.8216    -1.8572 H       
  43 H43            1.6927    -1.3741    -2.0797 H       
  44 H44            1.6891    -4.9686    -3.4884 H       
  45 H45           -4.6663    -8.1662     1.5257 H       
  46 H46           -4.5237    -6.8083     2.6689 H       
  47 H47           -3.5053    -6.2847     0.4433 H       
  48 H48           -2.3073    -6.2420     1.7601 H       
  49 H49           -0.9026    -9.5271     0.9261 H       
  50 H50           -0.7787    -8.1462     2.0436 H       
  51 H51           -1.9571   -10.0057     3.1450 H       
  52 H52           -3.1335   -10.0756     1.8100 H       
  53 H53            1.5018   -11.7350    -5.6871 H       
  54 H54            0.8829   -12.0349    -4.0426 H       
  55 H55            1.9696    -9.3966    -5.1304 H       
  56 H56            0.2760    -9.7582    -4.7167 H       
  57 H57            0.9497   -10.1465    -2.3526 H       
  58 H58            3.6908    -9.2526    -3.3554 H       
  59 H59            3.2501    -9.5092    -1.6495 H       
  60 H60            2.7834   -11.8759    -2.0826 H       
  61 H61            4.4184   -11.4909    -2.6792 H       
  62 H62            5.6396   -11.6169    -4.1289 H       
  63 H63            5.0597   -14.6023    -3.8843 H       
  64 H64            6.3683   -13.7049    -3.0778 H       
  65 H65            4.6721   -13.3919    -2.6382 H       
  66 H66            6.0021   -12.2855    -6.4372 H       
  67 H67            7.0541   -13.0742    -5.4189 H       
  68 H68            1.9872     2.9163    -0.1388 H       
  69 H69            2.7795     2.6344    -1.7076 H       
  70 H70            1.7477     4.0662    -1.4761 H       
@<TRIPOS>BOND
   1    1    2 am
   2    1   37 1
   3    1   38 1
   4    2    3 2
   5    2    4 am
   6    4    5 1
   7    4   39 1
   8    5    6 ar
   9    5   10 ar
  10    6    7 ar
  11    6   40 1
  12    7    8 ar
  13    7   41 1
  14    8    9 ar
  15    8   15 1
  16    9   10 ar
  17    9   42 1
  18   10   43 1
  19   11   12 ar
  20   11   16 ar
  21   11   23 1
  22   12   13 ar
  23   13   14 ar
  24   13   18 1
  25   14   15 ar
  26   14   19 1
  27   15   16 ar
  28   17   18 1
  29   17   19 2
  30   18   29 1
  31   19   44 1
  32   20   21 1
  33   20   25 1
  34   21   22 1
  35   21   45 1
  36   21   46 1
  37   22   23 1
  38   22   47 1
  39   22   48 1
  40   23   24 1
  41   24   25 1
  42   24   49 1
  43   24   50 1
  44   25   51 1
  45   25   52 1
  46   26   27 1
  47   26   31 1
  48   26   32 am
  49   27   28 1
  50   27   53 1
  51   27   54 1
  52   28   29 1
  53   28   55 1
  54   28   56 1
  55   29   30 1
  56   29   57 1
  57   30   31 1
  58   30   58 1
  59   30   59 1
  60   31   60 1
  61   31   61 1
  62   32   33 2
  63   32   34 1
  64   34   35 1
  65   34   36 1
  66   34   62 1
  67   35   63 1
  68   35   64 1
  69   35   65 1
  70   36   66 1
  71   36   67 1
  72   37   68 1
  73   37   69 1
  74   37   70 1

#	End of record

