#	Name: ASD01410177
#	Creating user name:	WinNT
#	Creation time:	15. 06. 2019 19:16

#	Modifying user name:	WinNT
#	Modification time:	15. 06. 2019 19:16

#	Program:	/corina/corina34_cracker 3.40 0067  02.08.2006

@<TRIPOS>MOLECULE
ASD01410177
  45   48    0    0    0
SMALL
NO_CHARGES


@<TRIPOS>ATOM
   1 C1           -10.0356    -3.3916     0.2678 C.ar    
   2 C2            -8.9707    -4.2813     0.1967 C.ar    
   3 C3            -7.6746    -3.8028     0.1239 C.ar    
   4 C4            -7.4458    -2.4208     0.1224 C.ar    
   5 C5            -8.5224    -1.5213     0.1943 C.ar    
   6 C6            -9.8152    -2.0221     0.2610 C.ar    
   7 C7            -6.2239    -1.6034     0.0575 C.2     
   8 C8            -6.7060    -0.2142     0.0986 C.2     
   9 O9            -8.0570    -0.2529     0.1783 O.3     
  10 O10           -5.0702    -1.9908    -0.0140 O.2     
  11 C11           -5.9368     0.9026     0.0628 C.2     
  12 C12           -6.5671     2.2257    -0.0352 C.ar    
  13 O13          -11.3048    -3.8674     0.3391 O.3     
  14 O14           -6.6312    -4.6671     0.0547 O.3     
  15 C15           -5.7826     3.3867     0.0630 C.ar    
  16 C16           -7.9447     2.3297    -0.2316 C.ar    
  17 C17           -8.5279     3.5904    -0.3225 C.ar    
  18 C18           -7.7292     4.7465    -0.2163 C.ar    
  19 C19           -6.3542     4.6207    -0.0261 C.ar    
  20 C20           -9.9010     4.0639    -0.5206 C.2     
  21 C21           -9.8555     5.4050    -0.5226 C.2     
  22 N22           -8.5669     5.8293    -0.3422 N.pl3   
  23 C23           -8.1429     7.2307    -0.2900 C.3     
  24 C24           -7.6738     7.6735    -1.6773 C.3     
  25 C25           -7.2309     9.1370    -1.6229 C.3     
  26 C26           -6.7618     9.5799    -3.0102 C.3     
  27 H27           -9.1546    -5.3455     0.1986 H       
  28 H28          -10.6528    -1.3425     0.3164 H       
  29 H29           -4.8609     0.8189     0.1063 H       
  30 H30          -11.6201    -4.0130     1.2416 H       
  31 H31           -6.3810    -4.9102    -0.8472 H       
  32 H32           -4.7162     3.3006     0.2109 H       
  33 H33           -8.5525     1.4406    -0.3127 H       
  34 H34           -5.7396     5.5050     0.0556 H       
  35 H35          -10.7815     3.4503    -0.6419 H       
  36 H36          -10.7096     6.0539    -0.6486 H       
  37 H37           -8.9807     7.8523     0.0258 H       
  38 H38           -7.3238     7.3362     0.4214 H       
  39 H39           -6.8359     7.0519    -1.9932 H       
  40 H40           -8.4929     7.5680    -2.3887 H       
  41 H41           -8.0687     9.7586    -1.3070 H       
  42 H42           -6.4118     9.2425    -0.9115 H       
  43 H43           -7.5809     9.4744    -3.7215 H       
  44 H44           -6.4463    10.6225    -2.9714 H       
  45 H45           -5.9240     8.9583    -3.3260 H       
@<TRIPOS>BOND
   1    1    2 ar
   2    1   13 1
   3    1    6 ar
   4    2    3 ar
   5    2   27 1
   6    3    4 ar
   7    3   14 1
   8    4    5 ar
   9    4    7 1
  10    5    6 ar
  11    5    9 1
  12    6   28 1
  13    7    8 1
  14    7   10 2
  15    8    9 1
  16    8   11 2
  17   11   12 1
  18   11   29 1
  19   12   16 ar
  20   12   15 ar
  21   13   30 1
  22   14   31 1
  23   15   19 ar
  24   15   32 1
  25   16   17 ar
  26   16   33 1
  27   17   18 ar
  28   17   20 1
  29   18   19 ar
  30   18   22 1
  31   19   34 1
  32   20   21 2
  33   20   35 1
  34   21   22 1
  35   21   36 1
  36   22   23 1
  37   23   24 1
  38   23   37 1
  39   23   38 1
  40   24   25 1
  41   24   39 1
  42   24   40 1
  43   25   26 1
  44   25   41 1
  45   25   42 1
  46   26   43 1
  47   26   44 1
  48   26   45 1

#	End of record

