#	Name: ASD03092633
#	Creating user name:	WinNT
#	Creation time:	15. 06. 2019 20:32

#	Modifying user name:	WinNT
#	Modification time:	15. 06. 2019 20:32

#	Program:	/corina/corina34_cracker 3.40 0067  02.08.2006

@<TRIPOS>MOLECULE
ASD03092633
  54   57    0    0    0
SMALL
NO_CHARGES


@<TRIPOS>ATOM
   1 C1            -0.4703     1.3515    -1.0614 C.ar    
   2 C2            -0.4694    -0.0582    -1.0865 C.ar    
   3 C3             0.6403    -0.7508    -0.5534 C.ar    
   4 C4             1.6859     0.0046    -0.0257 C.ar    
   5 C5             1.6009     1.3882    -0.0425 C.ar    
   6 N6             0.5564     2.0098    -0.5443 N.ar    
   7 N7            -2.3671     0.5985    -1.9985 N.2     
   8 N8            -1.6555     1.7468    -1.6313 N.pl3   
   9 C9            -1.6793    -0.4641    -1.6886 C.2     
  10 C10            0.6907    -2.2281    -0.5549 C.2     
  11 O11           -0.3254    -2.8711    -0.3762 O.2     
  12 N12            1.8632    -2.8622    -0.7543 N.am    
  13 C13            1.1305    -4.9604     0.2219 C.ar    
  14 C14            1.9236    -4.2595    -0.6877 C.ar    
  15 C15            2.7738    -4.9695    -1.5266 C.ar    
  16 C16            2.7986    -6.3532    -1.4241 C.ar    
  17 C17            1.9854    -6.9781    -0.5001 C.ar    
  18 N18            1.1867    -6.2789     0.2850 N.ar    
  19 C19            3.6476    -4.2541    -2.5243 C.3     
  20 O20            0.2988    -4.2816     1.0525 O.3     
  21 C21           -0.4864    -5.0572     1.9603 C.3     
  22 C22            2.7339     2.2006     0.5298 C.3     
  23 C23           -2.1084    -1.8892    -1.9258 C.3     
  24 C24           -2.0796     3.0705    -1.8133 C.ar    
  25 C25           -2.8217     3.4141    -2.9355 C.ar    
  26 C26           -3.2394     4.7179    -3.1140 C.ar    
  27 C27           -2.9174     5.6848    -2.1725 C.ar    
  28 C28           -2.1760     5.3422    -1.0510 C.ar    
  29 C29           -1.7625     4.0375    -0.8685 C.ar    
  30 O30           -3.3283     6.9686    -2.3492 O.3     
  31 C31           -2.9612     7.9119    -1.3406 C.3     
  32 H32            2.5539    -0.4833     0.3925 H       
  33 H33            2.6652    -2.3505    -0.9439 H       
  34 H34            3.4477    -6.9356    -2.0613 H       
  35 H35            2.0025    -8.0548    -0.4185 H       
  36 H36            4.6060    -4.0158    -2.0629 H       
  37 H37            3.8108    -4.8957    -3.3902 H       
  38 H38            3.1582    -3.3333    -2.8415 H       
  39 H39           -1.1256    -5.7378     1.3978 H       
  40 H40            0.1725    -5.6319     2.6112 H       
  41 H41           -1.1051    -4.3934     2.5642 H       
  42 H42            3.4607     2.4131    -0.2542 H       
  43 H43            2.3443     3.1375     0.9278 H       
  44 H44            3.2161     1.6386     1.3296 H       
  45 H45           -2.5646    -2.2869    -1.0193 H       
  46 H46           -2.8320    -1.9199    -2.7404 H       
  47 H47           -1.2389    -2.4913    -2.1894 H       
  48 H48           -3.0718     2.6616    -3.6688 H       
  49 H49           -3.8166     4.9852    -3.9868 H       
  50 H50           -1.9257     6.0953    -0.3185 H       
  51 H51           -1.1892     3.7701     0.0068 H       
  52 H52           -1.8748     7.9597    -1.2659 H       
  53 H53           -3.3509     8.8953    -1.6036 H       
  54 H54           -3.3778     7.6003    -0.3828 H       
@<TRIPOS>BOND
   1    1    2 ar
   2    1    6 ar
   3    1    8 1
   4    2    3 ar
   5    2    9 1
   6    3    4 ar
   7    3   10 1
   8    4    5 ar
   9    4   32 1
  10    5    6 ar
  11    5   22 1
  12    7    8 1
  13    7    9 2
  14    8   24 1
  15    9   23 1
  16   10   11 2
  17   10   12 am
  18   12   14 1
  19   12   33 1
  20   13   14 ar
  21   13   18 ar
  22   13   20 1
  23   14   15 ar
  24   15   16 ar
  25   15   19 1
  26   16   17 ar
  27   16   34 1
  28   17   18 ar
  29   17   35 1
  30   19   36 1
  31   19   37 1
  32   19   38 1
  33   20   21 1
  34   21   39 1
  35   21   40 1
  36   21   41 1
  37   22   42 1
  38   22   43 1
  39   22   44 1
  40   23   45 1
  41   23   46 1
  42   23   47 1
  43   24   25 ar
  44   24   29 ar
  45   25   26 ar
  46   25   48 1
  47   26   27 ar
  48   26   49 1
  49   27   28 ar
  50   27   30 1
  51   28   29 ar
  52   28   50 1
  53   29   51 1
  54   30   31 1
  55   31   52 1
  56   31   53 1
  57   31   54 1

#	End of record

