#	Name: ASD01940333
#	Creating user name:	WinNT
#	Creation time:	15. 06. 2019 20:12

#	Modifying user name:	WinNT
#	Modification time:	15. 06. 2019 20:12

#	Program:	/corina/corina34_cracker 3.40 0067  02.08.2006

@<TRIPOS>MOLECULE
ASD01940333
  37   38    0    0    0
SMALL
NO_CHARGES


@<TRIPOS>ATOM
   1 C1            -0.0119     1.4041     0.1160 C.ar    
   2 C2             0.0458     0.0242    -0.0633 C.ar    
   3 C3             1.2665    -0.6349     0.0280 C.ar    
   4 C4             2.4225     0.0820     0.2970 C.ar    
   5 C5             2.3637     1.4537     0.4755 C.ar    
   6 C6             1.1502     2.1160     0.3852 C.ar    
   7 N7            -1.2394     2.0741     0.0192 N.pl3   
   8 N8            -1.1265    -0.6998    -0.3353 N.pl3   
   9 O9             1.3268    -1.9830    -0.1462 O.3     
  10 C10            2.6140    -2.5941    -0.0385 C.3     
  11 C11            2.4830    -4.1019    -0.2627 C.3     
  12 O12            2.0583    -4.3489    -1.6046 O.3     
  13 C13            1.9042    -5.7341    -1.9198 C.3     
  14 C14           -1.2668     3.4574    -0.1835 C.ar    
  15 C15           -0.8770     3.9907    -1.4082 C.ar    
  16 C16           -0.9060     5.3586    -1.6045 C.ar    
  17 C17           -1.3221     6.1963    -0.5846 C.ar    
  18 C18           -1.7095     5.6684     0.6335 C.ar    
  19 C19           -1.6884     4.3015     0.8348 C.ar    
  20 I20           -1.3646     8.2690    -0.8863 I       
  21 F21           -0.4704     3.1728    -2.4036 F       
  22 F22            1.0970     3.4547     0.5592 F       
  23 F23            3.4925     2.1481     0.7384 F       
  24 H24            3.3704    -0.4306     0.3678 H       
  25 H25           -2.0698     1.5781     0.0928 H       
  26 H26           -1.9777    -0.2388    -0.3984 H       
  27 H27           -1.0851    -1.6609    -0.4600 H       
  28 H28            3.2808    -2.1716    -0.7901 H       
  29 H29            3.0223    -2.4086     0.9549 H       
  30 H30            3.4480    -4.5796    -0.0932 H       
  31 H31            1.7487    -4.5101     0.4318 H       
  32 H32            2.8572    -6.2457    -1.7848 H       
  33 H33            1.1579    -6.1761    -1.2597 H       
  34 H34            1.5801    -5.8372    -2.9554 H       
  35 H35           -0.6034     5.7740    -2.5544 H       
  36 H36           -2.0333     6.3253     1.4273 H       
  37 H37           -1.9955     3.8904     1.7851 H       
@<TRIPOS>BOND
   1    1    2 ar
   2    1    6 ar
   3    1    7 1
   4    2    3 ar
   5    2    8 1
   6    3    4 ar
   7    3    9 1
   8    4    5 ar
   9    4   24 1
  10    5    6 ar
  11    5   23 1
  12    6   22 1
  13    7   14 1
  14    7   25 1
  15    8   26 1
  16    8   27 1
  17    9   10 1
  18   10   11 1
  19   10   28 1
  20   10   29 1
  21   11   12 1
  22   11   30 1
  23   11   31 1
  24   12   13 1
  25   13   32 1
  26   13   33 1
  27   13   34 1
  28   14   15 ar
  29   14   19 ar
  30   15   16 ar
  31   15   21 1
  32   16   17 ar
  33   16   35 1
  34   17   18 ar
  35   17   20 1
  36   18   19 ar
  37   18   36 1
  38   19   37 1

#	End of record

