#	Name: ASD04590507
#	Creating user name:	WinNT
#	Creation time:	15. 06. 2019 20:50

#	Modifying user name:	WinNT
#	Modification time:	15. 06. 2019 20:50

#	Program:	/corina/corina34_cracker 3.40 0067  02.08.2006

@<TRIPOS>MOLECULE
ASD04590507
  61   65    0    0    0
SMALL
NO_CHARGES


@<TRIPOS>ATOM
   1 C1            -0.0166     1.3786     0.1588 C.ar    
   2 C2             0.0030    -0.0086     0.1506 C.ar    
   3 C3             2.4018     0.0193     0.0754 C.ar    
   4 C4             2.3759     1.4253     0.0839 C.ar    
   5 C5             1.1616     2.0949     0.1256 C.ar    
   6 N6             3.7034    -0.3572     0.0320 N.2     
   7 C7             4.4693     0.7067     0.0135 C.2     
   8 N8             3.6952     1.8354     0.0442 N.pl3   
   9 C9             5.9460     0.6901    -0.0339 C.2     
  10 C10            6.7636    -0.4630    -0.0671 C.2     
  11 C11            8.0547    -0.0534    -0.1065 C.2     
  12 N12            8.0611     1.3058    -0.0988 N.pl3   
  13 N13            6.7328     1.7481    -0.0585 N.2     
  14 N14            6.3171    -1.7956    -0.0601 N.am    
  15 C15            7.2090    -2.8053    -0.0949 C.2     
  16 O16            8.4002    -2.5634    -0.1324 O.2     
  17 C17            1.1976    -0.6907     0.1094 C.ar    
  18 N18            6.7809    -4.0833    -0.0881 N.am    
  19 C19            7.7028    -5.1319    -0.2097 C.ar    
  20 C20           -1.2943    -0.7747     0.1877 C.3     
  21 N21           -1.7598    -1.0160    -1.1845 N.3     
  22 C22           -2.8883    -1.9581    -1.2000 C.3     
  23 C23           -0.6636    -1.5024    -2.0349 C.3     
  24 C24           -1.1767    -1.6834    -3.4659 C.3     
  25 O25           -2.2928    -2.5776    -3.4573 O.3     
  26 C26           -3.3792    -2.1345    -2.6394 C.3     
  27 C27            9.0202    -4.9483     0.1825 C.ar    
  28 C28            9.9278    -5.9841     0.0616 C.ar    
  29 C29            9.5258    -7.2036    -0.4501 C.ar    
  30 C30            8.2137    -7.3939    -0.8436 C.ar    
  31 C31            7.2968    -6.3633    -0.7195 C.ar    
  32 C32           11.3591    -5.7830     0.4882 C.3     
  33 O33            6.0062    -6.5491    -1.1057 O.3     
  34 C34            5.6647    -7.8333    -1.6312 C.3     
  35 H35           -0.9612     1.9014     0.1868 H       
  36 H36            1.1390     3.1746     0.1319 H       
  37 H37            4.0131     2.7518     0.0394 H       
  38 H38            8.9242    -0.6932    -0.1378 H       
  39 H39            8.8488     1.8714    -0.1209 H       
  40 H40            5.3669    -1.9886    -0.0301 H       
  41 H41            1.2050    -1.7706     0.1036 H       
  42 H42            5.8346    -4.2773     0.0009 H       
  43 H43           -1.1386    -1.7286     0.6916 H       
  44 H44           -2.0428    -0.1958     0.7287 H       
  45 H45           -2.5640    -2.9210    -0.8054 H       
  46 H46           -3.6982    -1.5660    -0.5847 H       
  47 H47            0.1506    -0.7777    -2.0291 H       
  48 H48           -0.3037    -2.4580    -1.6537 H       
  49 H49           -1.4868    -0.7181    -3.8662 H       
  50 H50           -0.3831    -2.0979    -4.0875 H       
  51 H51           -4.1784    -2.8753    -2.6632 H       
  52 H52           -3.7533    -1.1824    -3.0156 H       
  53 H53            9.3371    -3.9963     0.5819 H       
  54 H54           10.2383    -8.0099    -0.5430 H       
  55 H55            7.9029    -8.3479    -1.2433 H       
  56 H56           11.4665    -6.0533     1.5387 H       
  57 H57           12.0107    -6.4127    -0.1175 H       
  58 H58           11.6353    -4.7374     0.3520 H       
  59 H59            6.2674    -8.0355    -2.5166 H       
  60 H60            5.8579    -8.5972    -0.8780 H       
  61 H61            4.6084    -7.8468    -1.8998 H       
@<TRIPOS>BOND
   1    1    2 ar
   2    1    5 ar
   3    1   35 1
   4    2   17 ar
   5    2   20 1
   6    3    4 ar
   7    3    6 1
   8    3   17 ar
   9    4    5 ar
  10    4    8 1
  11    5   36 1
  12    6    7 2
  13    7    8 1
  14    7    9 1
  15    8   37 1
  16    9   10 1
  17    9   13 2
  18   10   11 2
  19   10   14 1
  20   11   12 1
  21   11   38 1
  22   12   13 1
  23   12   39 1
  24   14   15 am
  25   14   40 1
  26   15   16 2
  27   15   18 am
  28   17   41 1
  29   18   19 1
  30   18   42 1
  31   19   27 ar
  32   19   31 ar
  33   20   21 1
  34   20   43 1
  35   20   44 1
  36   21   22 1
  37   21   23 1
  38   22   26 1
  39   22   45 1
  40   22   46 1
  41   23   24 1
  42   23   47 1
  43   23   48 1
  44   24   25 1
  45   24   49 1
  46   24   50 1
  47   25   26 1
  48   26   51 1
  49   26   52 1
  50   27   28 ar
  51   27   53 1
  52   28   29 ar
  53   28   32 1
  54   29   30 ar
  55   29   54 1
  56   30   31 ar
  57   30   55 1
  58   31   33 1
  59   32   56 1
  60   32   57 1
  61   32   58 1
  62   33   34 1
  63   34   59 1
  64   34   60 1
  65   34   61 1

#	End of record

