#	Name: ASD00310267
#	Creating user name:	WinNT
#	Creation time:	15. 06. 2019 18:34

#	Modifying user name:	WinNT
#	Modification time:	15. 06. 2019 18:34

#	Program:	/corina/corina34_cracker 3.40 0067  02.08.2006

@<TRIPOS>MOLECULE
ASD00310267
  39   42    0    0    0
SMALL
NO_CHARGES


@<TRIPOS>ATOM
   1 C1            -0.0168     1.3908     0.0097 C.ar    
   2 C2             0.0021    -0.0041     0.0020 C.ar    
   3 C3             1.1665     2.0956     0.0022 C.ar    
   4 C4             2.3836     1.4148    -0.0131 C.ar    
   5 C5             2.4028     0.0203    -0.0212 C.ar    
   6 C6             1.2196    -0.6849    -0.0133 C.ar    
   7 C7             3.6576     2.1738    -0.0212 C.ar    
   8 C8             3.6383     3.5718    -0.0135 C.ar    
   9 C9             4.8031     4.2842    -0.0208 C.ar    
  10 C10            6.0284     3.6236    -0.0365 C.ar    
  11 C11            6.0583     2.2185    -0.0443 C.ar    
  12 C12            4.8706     1.4951    -0.0307 C.ar    
  13 C13           -1.2710    -0.7625     0.0106 C.ar    
  14 C14           -1.6243    -1.5551    -1.0855 C.ar    
  15 C15           -2.8165    -2.2610    -1.0694 C.ar    
  16 C16           -3.6559    -2.1828     0.0264 C.ar    
  17 C17           -3.3142    -1.4009     1.1143 C.ar    
  18 C18           -2.1225    -0.6939     1.1172 C.ar    
  19 O19           -1.7884     0.0734     2.1872 O.3     
  20 O20           -0.8013    -1.6326    -2.1635 O.3     
  21 N21            7.3353     4.0642    -0.0471 N.pl3   
  22 C22            8.1902     3.0101    -0.0613 C.2     
  23 C23            7.4845     1.8441    -0.0605 C.2     
  24 C24            8.0221     0.5169    -0.0730 C.1     
  25 N25            8.4486    -0.5359    -0.0828 N.1     
  26 H26           -0.9594     1.9181     0.0170 H       
  27 H27            1.1519     3.1754     0.0078 H       
  28 H28            3.3454    -0.5067    -0.0338 H       
  29 H29            1.2345    -1.7647    -0.0199 H       
  30 H30            2.6926     4.0933    -0.0020 H       
  31 H31            4.7737     5.3638    -0.0147 H       
  32 H32            4.8905     0.4153    -0.0363 H       
  33 H33           -3.0909    -2.8738    -1.9153 H       
  34 H34           -4.5839    -2.7352     0.0325 H       
  35 H35           -3.9757    -1.3449     1.9662 H       
  36 H36           -1.2825    -0.3955     2.8648 H       
  37 H37           -0.1494    -2.3448    -2.1102 H       
  38 H38            7.6054     4.9959    -0.0453 H       
  39 H39            9.2677     3.0841    -0.0723 H       
@<TRIPOS>BOND
   1    1    2 ar
   2    1    3 ar
   3    1   26 1
   4    2   13 1
   5    2    6 ar
   6    3    4 ar
   7    3   27 1
   8    4    5 ar
   9    4    7 1
  10    5    6 ar
  11    5   28 1
  12    6   29 1
  13    7    8 ar
  14    7   12 ar
  15    8    9 ar
  16    8   30 1
  17    9   10 ar
  18    9   31 1
  19   10   11 ar
  20   10   21 1
  21   11   12 ar
  22   11   23 1
  23   12   32 1
  24   13   14 ar
  25   13   18 ar
  26   14   15 ar
  27   14   20 1
  28   15   16 ar
  29   15   33 1
  30   16   17 ar
  31   16   34 1
  32   17   18 ar
  33   17   35 1
  34   18   19 1
  35   19   36 1
  36   20   37 1
  37   21   22 1
  38   21   38 1
  39   22   23 2
  40   22   39 1
  41   23   24 1
  42   24   25 3

#	End of record

