#	Name: ASD01120185
#	Creating user name:	WinNT
#	Creation time:	15. 06. 2019 18:59

#	Modifying user name:	WinNT
#	Modification time:	15. 06. 2019 18:59

#	Program:	/corina/corina34_cracker 3.40 0067  02.08.2006

@<TRIPOS>MOLECULE
ASD01120185
  35   38    0    0    0
SMALL
NO_CHARGES


@<TRIPOS>ATOM
   1 C1            -0.0167     1.3828     0.0096 C.ar    
   2 C2             0.0021    -0.0041     0.0020 C.ar    
   3 C3            -1.1785    -0.7198     0.0090 C.ar    
   4 C4            -2.3914    -0.0514     0.0242 C.ar    
   5 C5            -2.4156     1.3515     0.0324 C.ar    
   6 C6            -1.2159     2.0636     0.0305 C.ar    
   7 O7            -3.6828    -0.4556     0.0344 O.3     
   8 C8            -4.4648     0.6381     0.0482 C.2     
   9 N9            -3.7266     1.7186     0.0472 N.2     
  10 Cl10           1.4775     2.2664     0.0001 Cl      
  11 N11           -5.8411     0.6234     0.0614 N.am    
  12 S12           -6.6843     2.0485     0.0777 S.o2    
  13 O13           -8.0618     1.7001     0.0544 O.2     
  14 O14           -6.1020     2.8477     1.0983 O.2     
  15 C15           -6.3526     2.8683    -1.4462 C.ar    
  16 C16           -7.1741     2.6308    -2.5462 C.ar    
  17 C17           -6.9453     3.2474    -3.7381 C.ar    
  18 C18           -5.8655     4.1375    -3.8642 C.ar    
  19 C19           -5.0300     4.3795    -2.7450 C.ar    
  20 C20           -5.3007     3.7284    -1.5298 C.ar    
  21 C21           -5.5973     4.7924    -5.0786 C.ar    
  22 C22           -4.5422     5.6476    -5.1636 C.ar    
  23 C23           -3.7207     5.8856    -4.0630 C.ar    
  24 C24           -3.9497     5.2696    -2.8714 C.ar    
  25 H25            0.9466    -0.5276    -0.0098 H       
  26 H26           -1.1563    -1.7995     0.0023 H       
  27 H27           -1.2263     3.1436     0.0371 H       
  28 H28           -6.3171    -0.2218     0.0612 H       
  29 H29           -8.0048     1.9471    -2.4520 H       
  30 H30           -7.5901     3.0531    -4.5824 H       
  31 H31           -4.6727     3.9031    -0.6687 H       
  32 H32           -6.2251     4.6175    -5.9398 H       
  33 H33           -4.3381     6.1493    -6.0980 H       
  34 H34           -2.8899     6.5692    -4.1574 H       
  35 H35           -3.3049     5.4641    -2.0270 H       
@<TRIPOS>BOND
   1    1    2 ar
   2    1   10 1
   3    1    6 ar
   4    2    3 ar
   5    2   25 1
   6    3    4 ar
   7    3   26 1
   8    4    5 ar
   9    4    7 1
  10    5    6 ar
  11    5    9 1
  12    6   27 1
  13    7    8 1
  14    8    9 2
  15    8   11 1
  16   11   12 am
  17   11   28 1
  18   12   13 2
  19   12   14 2
  20   12   15 1
  21   15   16 ar
  22   15   20 ar
  23   16   17 ar
  24   16   29 1
  25   17   18 ar
  26   17   30 1
  27   18   19 ar
  28   18   21 ar
  29   19   20 ar
  30   19   24 ar
  31   20   31 1
  32   21   22 ar
  33   21   32 1
  34   22   23 ar
  35   22   33 1
  36   23   24 ar
  37   23   34 1
  38   24   35 1

#	End of record

