#	Name: ASD01410432
#	Creating user name:	WinNT
#	Creation time:	15. 06. 2019 19:17

#	Modifying user name:	WinNT
#	Modification time:	15. 06. 2019 19:17

#	Program:	/corina/corina34_cracker 3.40 0067  02.08.2006

@<TRIPOS>MOLECULE
ASD01410432
  55   60    0    0    0
SMALL
NO_CHARGES


@<TRIPOS>ATOM
   1 C1            -0.2306     3.3767    -3.1144 C.ar    
   2 C2            -0.6998     2.7601    -4.2760 C.ar    
   3 C3            -1.9385     2.1527    -4.2817 C.ar    
   4 C4            -2.7186     2.1526    -3.1400 C.ar    
   5 C5            -2.2606     2.7631    -1.9801 C.ar    
   6 C6            -1.0160     3.3708    -1.9617 C.ar    
   7 C7            -0.5169     4.0337    -0.7037 C.3     
   8 O8            -3.0314     2.7600    -0.8610 O.3     
   9 C9            -4.2683     2.2014    -0.9396 C.ar    
  10 C10           -4.4081     0.8176    -0.8790 C.ar    
  11 C11           -5.6543     0.2332    -0.9575 C.ar    
  12 C12           -6.7817     1.0307    -1.0979 C.ar    
  13 C13           -6.6437     2.4297    -1.1589 C.ar    
  14 C14           -5.3815     3.0113    -1.0736 C.ar    
  15 F15           -1.4585     3.8652     0.3172 F       
  16 F16            0.6962     3.4521    -0.3199 F       
  17 F17           -0.3252     5.3991    -0.9406 F       
  18 N18           -8.0516     0.4922    -1.1813 N.pl3   
  19 C19           -9.1237     1.2912    -1.3173 C.2     
  20 N20           -9.0476     2.5919    -1.3786 N.2     
  21 C21           -7.8678     3.2369    -1.3086 C.2     
  22 O22           -7.8137     4.4533    -1.3670 O.2     
  23 C23           -8.2306    -0.9606    -1.1216 C.3     
  24 C24           -8.5627    -1.3682     0.2907 C.ar    
  25 C25           -9.8702    -1.3028     0.7407 C.ar    
  26 C26          -10.1753    -1.6772     2.0381 C.ar    
  27 C27           -9.1729    -2.1173     2.8853 C.ar    
  28 C28           -7.8655    -2.1836     2.4350 C.ar    
  29 C29           -7.5611    -1.8133     1.1363 C.ar    
  30 F30           -6.2852    -1.8780     0.6969 F       
  31 F31           -9.4704    -2.4819     4.1517 F       
  32 F32          -10.8485    -0.8732    -0.0861 F       
  33 C33            1.0963     4.0279    -3.1045 C.2     
  34 O34            1.9746     4.0053    -4.1242 O.3     
  35 C35            3.0677     4.7038    -3.7496 C.ar    
  36 C36            2.8232     5.1619    -2.4437 C.ar    
  37 N37            1.5875     4.7163    -2.1044 N.2     
  38 C38            4.2706     5.0179    -4.3655 C.ar    
  39 C39            5.1898     5.7776    -3.6606 C.ar    
  40 C40            4.8857     6.1975    -2.3757 C.ar    
  41 N41            3.7390     5.8890    -1.8088 N.ar    
  42 H42           -0.0934     2.7589    -5.1697 H       
  43 H43           -2.3003     1.6761    -5.1808 H       
  44 H44           -3.6878     1.6762    -3.1505 H       
  45 H45           -3.5319     0.1958    -0.7699 H       
  46 H46           -5.7530    -0.8412    -0.9104 H       
  47 H47           -5.2720     4.0847    -1.1201 H       
  48 H48          -10.0994     0.8323    -1.3794 H       
  49 H49           -9.0440    -1.2540    -1.7852 H       
  50 H50           -7.3102    -1.4532    -1.4350 H       
  51 H51          -11.1952    -1.6255     2.3894 H       
  52 H52           -7.0834    -2.5266     3.0961 H       
  53 H53            4.4849     4.6786    -5.3682 H       
  54 H54            6.1365     6.0404    -4.1092 H       
  55 H55            5.6044     6.7894    -1.8284 H       
@<TRIPOS>BOND
   1    1    2 ar
   2    1   33 1
   3    1    6 ar
   4    2    3 ar
   5    2   42 1
   6    3    4 ar
   7    3   43 1
   8    4    5 ar
   9    4   44 1
  10    5    6 ar
  11    5    8 1
  12    6    7 1
  13    7   15 1
  14    7   16 1
  15    7   17 1
  16    8    9 1
  17    9   10 ar
  18    9   14 ar
  19   10   11 ar
  20   10   45 1
  21   11   12 ar
  22   11   46 1
  23   12   13 ar
  24   12   18 1
  25   13   14 ar
  26   13   21 1
  27   14   47 1
  28   18   19 1
  29   18   23 1
  30   19   20 2
  31   19   48 1
  32   20   21 1
  33   21   22 2
  34   23   24 1
  35   23   49 1
  36   23   50 1
  37   24   25 ar
  38   24   29 ar
  39   25   26 ar
  40   25   32 1
  41   26   27 ar
  42   26   51 1
  43   27   28 ar
  44   27   31 1
  45   28   29 ar
  46   28   52 1
  47   29   30 1
  48   33   34 1
  49   33   37 2
  50   34   35 1
  51   35   36 ar
  52   35   38 ar
  53   36   37 1
  54   36   41 ar
  55   38   39 ar
  56   38   53 1
  57   39   40 ar
  58   39   54 1
  59   40   41 ar
  60   40   55 1

#	End of record

