#	Name: ASD04590730
#	Creating user name:	WinNT
#	Creation time:	15. 06. 2019 20:51

#	Modifying user name:	WinNT
#	Modification time:	15. 06. 2019 20:51

#	Program:	/corina/corina34_cracker 3.40 0067  02.08.2006

@<TRIPOS>MOLECULE
ASD04590730
  80   86    0    0    0
SMALL
NO_CHARGES


@<TRIPOS>ATOM
   1 O1            -0.2399     1.5701     0.3182 O.3     
   2 N2             0.0049    -3.7422     4.6918 N.ar    
   3 C3             0.1207    -2.6502     5.4366 C.ar    
   4 N4             0.1130    -1.4343     4.9150 N.ar    
   5 C5            -0.0133    -1.2616     3.6024 C.ar    
   6 C6            -0.1383    -2.4022     2.7837 C.ar    
   7 C7            -0.1248    -3.6601     3.3780 C.ar    
   8 N8            -0.0529    -0.1478     2.8019 N.pl3   
   9 C9            -0.2007    -0.5127     1.4736 C.ar    
  10 C10           -0.2596    -1.9131     1.4043 C.ar    
  11 C11           -0.2934     0.2142     0.2861 C.ar    
  12 N12           -0.4334    -0.4110    -0.8693 N.ar    
  13 C13           -0.4917    -1.7293    -0.9582 C.ar    
  14 C14           -0.4084    -2.5188     0.1545 C.ar    
  15 C15            0.0465     1.2321     3.2837 C.3     
  16 N16            0.2538    -2.7879     6.8085 N.pl3   
  17 C17            0.1644    -4.0504     7.3945 C.ar    
  18 N18           -0.1603    -5.0953     6.6505 N.ar    
  19 C19           -0.2566    -6.3079     7.1622 C.ar    
  20 C20           -0.0188    -6.5295     8.5103 C.ar    
  21 C21            0.3258    -5.4525     9.3257 C.ar    
  22 C22            0.4230    -4.1975     8.7529 C.ar    
  23 N23           -0.1239    -7.8187     9.0458 N.3     
  24 C24           -0.4964    -8.7903     8.0097 C.3     
  25 C25           -0.7437   -10.1560     8.6543 C.3     
  26 C26            0.5278   -10.6126     9.3750 C.3     
  27 C27            0.9213    -9.5602    10.4153 C.3     
  28 C28            1.1203    -8.2117     9.7195 C.3     
  29 C29           -1.1013     1.5172     4.2544 C.3     
  30 C30           -0.9975     2.9584     4.7576 C.3     
  31 C31            0.3389     3.1524     5.4769 C.3     
  32 C32            1.4866     2.8672     4.5063 C.3     
  33 C33            1.3828     1.4261     4.0030 C.3     
  34 C34            0.4427     4.5935     5.9802 C.3     
  35 C35            0.4237     2.1904     6.6637 C.3     
  36 N36            0.2785   -11.8959    10.0450 N.3     
  37 C37           -0.0655   -12.9444     9.0671 C.3     
  38 C38            0.9463   -14.0943     9.2548 C.3     
  39 C39            1.4531   -13.8806    10.7054 C.3     
  40 C40            1.4664   -12.3350    10.8077 C.3     
  41 H41            0.6539     1.9305     0.2390 H       
  42 H42           -0.2190    -4.5530     2.7777 H       
  43 H43           -0.6068    -2.1906    -1.9280 H       
  44 H44           -0.4570    -3.5943     0.0687 H       
  45 H45           -0.0139     1.9174     2.4383 H       
  46 H46            0.4092    -2.0064     7.3616 H       
  47 H47           -0.5241    -7.1370     6.5239 H       
  48 H48            0.5162    -5.5956    10.3791 H       
  49 H49            0.6878    -3.3409     9.3550 H       
  50 H50           -1.4044    -8.4558     7.5078 H       
  51 H51            0.3111    -8.8729     7.2822 H       
  52 H52           -1.5604   -10.0772     9.3720 H       
  53 H53           -1.0050   -10.8806     7.8831 H       
  54 H54            1.3347   -10.7290     8.6515 H       
  55 H55            0.1308    -9.4719    11.1606 H       
  56 H56            1.8496    -9.8590    10.9021 H       
  57 H57            1.9202    -8.2971     8.9841 H       
  58 H58            1.3866    -7.4570    10.4596 H       
  59 H59           -2.0533     1.3790     3.7420 H       
  60 H60           -1.0409     0.8319     5.0999 H       
  61 H61           -1.0579     3.6437     3.9122 H       
  62 H62           -1.8152     3.1615     5.4492 H       
  63 H63            1.4262     3.5526     3.6608 H       
  64 H64            2.4387     3.0055     5.0187 H       
  65 H65            1.4433     0.7408     4.8485 H       
  66 H66            2.2005     1.2229     3.3115 H       
  67 H67           -0.3750     4.7967     6.6717 H       
  68 H68            1.3947     4.7318     6.4926 H       
  69 H69            0.3823     5.2789     5.1347 H       
  70 H70            0.3497     1.1638     6.3052 H       
  71 H71            1.3757     2.3287     7.1761 H       
  72 H72           -0.3940     2.3936     7.3552 H       
  73 H73           -1.0769   -13.3065     9.2520 H       
  74 H74            0.0089   -12.5464     8.0551 H       
  75 H75            0.4531   -15.0614     9.1574 H       
  76 H76            1.7669   -14.0056     8.5429 H       
  77 H77            0.7619   -14.3138    11.4283 H       
  78 H78            2.4556   -14.2890    10.8329 H       
  79 H79            2.3750   -11.9328    10.3596 H       
  80 H80            1.3856   -12.0229    11.8489 H       
@<TRIPOS>BOND
   1    1   11 1
   2    1   41 1
   3    2    3 ar
   4    2    7 ar
   5    3    4 ar
   6    3   16 1
   7    4    5 ar
   8    5    6 ar
   9    5    8 1
  10    6    7 ar
  11    6   10 1
  12    7   42 1
  13    8    9 1
  14    8   15 1
  15    9   10 ar
  16    9   11 ar
  17   10   14 ar
  18   11   12 ar
  19   12   13 ar
  20   13   14 ar
  21   13   43 1
  22   14   44 1
  23   15   29 1
  24   15   33 1
  25   15   45 1
  26   16   17 1
  27   16   46 1
  28   17   18 ar
  29   17   22 ar
  30   18   19 ar
  31   19   20 ar
  32   19   47 1
  33   20   21 ar
  34   20   23 1
  35   21   22 ar
  36   21   48 1
  37   22   49 1
  38   23   24 1
  39   23   28 1
  40   24   25 1
  41   24   50 1
  42   24   51 1
  43   25   26 1
  44   25   52 1
  45   25   53 1
  46   26   27 1
  47   26   36 1
  48   26   54 1
  49   27   28 1
  50   27   55 1
  51   27   56 1
  52   28   57 1
  53   28   58 1
  54   29   30 1
  55   29   59 1
  56   29   60 1
  57   30   31 1
  58   30   61 1
  59   30   62 1
  60   31   32 1
  61   31   34 1
  62   31   35 1
  63   32   33 1
  64   32   63 1
  65   32   64 1
  66   33   65 1
  67   33   66 1
  68   34   67 1
  69   34   68 1
  70   34   69 1
  71   35   70 1
  72   35   71 1
  73   35   72 1
  74   36   37 1
  75   36   40 1
  76   37   38 1
  77   37   73 1
  78   37   74 1
  79   38   39 1
  80   38   75 1
  81   38   76 1
  82   39   40 1
  83   39   77 1
  84   39   78 1
  85   40   79 1
  86   40   80 1

#	End of record

