#	Name: ASD05430225
#	Creating user name:	WinNT
#	Creation time:	15. 06. 2019 21:00

#	Modifying user name:	WinNT
#	Modification time:	15. 06. 2019 21:00

#	Program:	/corina/corina34_cracker 3.40 0067  02.08.2006

@<TRIPOS>MOLECULE
ASD05430225
  62   68    0    0    0
SMALL
NO_CHARGES


@<TRIPOS>ATOM
   1 C1            -1.0614    -0.5610    -0.4044 C.ar    
   2 C2            -0.0100    -0.0079     0.3258 C.ar    
   3 C3            -0.1705     1.2162     0.9622 C.ar    
   4 C4            -1.3693     1.8899     0.8750 C.ar    
   5 C5            -2.4282     1.3412     0.1443 C.ar    
   6 C6            -2.2650     0.1115    -0.5006 C.ar    
   7 C7            -4.9009    -0.1296     0.1108 C.3     
   8 C8            -4.8620     1.3704    -0.0439 C.2     
   9 C9            -3.7098     2.0594     0.0500 C.2     
  10 C10           -6.1592    -0.5860     0.8299 C.3     
  11 C11           -7.4790     0.0002     0.3565 C.3     
  12 N12           -7.3563     1.3889    -0.0550 N.pl3   
  13 C13           -6.1482     2.0458    -0.3035 C.2     
  14 N14            1.2113    -0.6890     0.4183 N.pl3   
  15 C15            1.3853    -1.9918     0.7609 C.2     
  16 C16            2.4555    -0.1678     0.1741 C.2     
  17 C17            3.3416    -1.1608     0.3801 C.2     
  18 N18            2.6624    -2.2610     0.7365 N.2     
  19 C19            4.8376    -1.0551     0.2317 C.3     
  20 C20           -8.4001     2.3875    -0.2605 C.3     
  21 O21           -7.7490     3.4470    -0.9715 O.3     
  22 N22           -6.3553     3.2243    -0.7913 N.2     
  23 C23           -9.5717     1.8471    -1.0113 C.ar    
  24 C24          -10.7119     2.0059    -0.2163 C.ar    
  25 N25          -10.4121     2.6019     0.9972 N.pl3   
  26 C26           -8.9702     2.8872     1.0717 C.3     
  27 C27           -9.6321     1.2733    -2.2684 C.ar    
  28 C28          -10.8783     0.8562    -2.7182 C.ar    
  29 C29          -12.0114     1.0080    -1.9420 C.ar    
  30 C30          -11.9607     1.5818    -0.6796 C.ar    
  31 F31          -13.2004     0.5859    -2.4249 F       
  32 O32           -0.9007    -1.7592    -1.0264 O.3     
  33 C33           -2.0193    -2.2663    -1.7568 C.3     
  34 C34           -6.2205    -2.1193     0.9987 C.3     
  35 O35           -6.6354    -1.8430     2.3509 O.3     
  36 C36           -6.0103    -0.5445     2.3658 C.3     
  37 H37            0.6462     1.6409     1.5271 H       
  38 H38           -1.4914     2.8414     1.3711 H       
  39 H39           -3.0801    -0.3157    -1.0658 H       
  40 H40           -4.8687    -0.5900    -0.8767 H       
  41 H41           -4.0290    -0.4512     0.6804 H       
  42 H42           -3.7253     3.1393     0.0561 H       
  43 H43           -7.8429    -0.5865    -0.4869 H       
  44 H44           -8.2044    -0.0644     1.1675 H       
  45 H45            0.5989    -2.6883     1.0116 H       
  46 H46            2.6817     0.8447    -0.1261 H       
  47 H47            5.2768    -0.7549     1.1830 H       
  48 H48            5.2424    -2.0223    -0.0662 H       
  49 H49            5.0756    -0.3117    -0.5292 H       
  50 H50          -11.0565     2.8022     1.6940 H       
  51 H51           -8.5193     2.3464     1.9037 H       
  52 H52           -8.8008     3.9587     1.1785 H       
  53 H53           -8.7467     1.1547    -2.8754 H       
  54 H54          -10.9635     0.4041    -3.6953 H       
  55 H55          -12.8510     1.6969    -0.0792 H       
  56 H56           -1.7575    -3.2259    -2.2026 H       
  57 H57           -2.8647    -2.3979    -1.0815 H       
  58 H58           -2.2891    -1.5617    -2.5435 H       
  59 H59           -6.9881    -2.5992     0.3916 H       
  60 H60           -5.2497    -2.6097     0.9271 H       
  61 H61           -4.9757    -0.5574     2.7088 H       
  62 H62           -6.6107     0.2281     2.8461 H       
@<TRIPOS>BOND
   1    1    2 ar
   2    1   32 1
   3    1    6 ar
   4    2    3 ar
   5    2   14 1
   6    3    4 ar
   7    3   37 1
   8    4    5 ar
   9    4   38 1
  10    5    6 ar
  11    5    9 1
  12    6   39 1
  13    7    8 1
  14    7   10 1
  15    7   40 1
  16    7   41 1
  17    8    9 2
  18    8   13 1
  19    9   42 1
  20   10   11 1
  21   10   34 1
  22   10   36 1
  23   11   12 1
  24   11   43 1
  25   11   44 1
  26   12   13 1
  27   12   20 1
  28   13   22 2
  29   14   15 1
  30   14   16 1
  31   15   18 2
  32   15   45 1
  33   16   17 2
  34   16   46 1
  35   17   18 1
  36   17   19 1
  37   19   47 1
  38   19   48 1
  39   19   49 1
  40   20   21 1
  41   20   23 1
  42   20   26 1
  43   21   22 1
  44   23   24 ar
  45   23   27 ar
  46   24   25 1
  47   24   30 ar
  48   25   26 1
  49   25   50 1
  50   26   51 1
  51   26   52 1
  52   27   28 ar
  53   27   53 1
  54   28   29 ar
  55   28   54 1
  56   29   30 ar
  57   29   31 1
  58   30   55 1
  59   32   33 1
  60   33   56 1
  61   33   57 1
  62   33   58 1
  63   34   35 1
  64   34   59 1
  65   34   60 1
  66   35   36 1
  67   36   61 1
  68   36   62 1

#	End of record

