#	Name: ASD02198254
#	Creating user name:	WinNT
#	Creation time:	15. 06. 2019 20:19

#	Modifying user name:	WinNT
#	Modification time:	15. 06. 2019 20:19

#	Program:	/corina/corina34_cracker 3.40 0067  02.08.2006

@<TRIPOS>MOLECULE
ASD02198254
  47   50    0    0    0
SMALL
NO_CHARGES


@<TRIPOS>ATOM
   1 C1            -0.0166     1.3753     0.0096 C.2     
   2 C2             0.0021    -0.0041     0.0020 C.2     
   3 C3            -1.1878    -0.8008     0.0087 C.1     
   4 S4             1.5675     2.0054    -0.0021 S.3     
   5 C5             2.2772     0.3990    -0.0175 C.2     
   6 C6             1.2824    -0.5520    -0.0131 C.2     
   7 C7             3.6579     0.1249    -0.0329 C.2     
   8 C8             4.6308     1.2351    -0.0365 C.2     
   9 O9             4.0505    -1.0301    -0.0433 O.2     
  10 N10            1.5294    -1.9154    -0.0224 N.pl3   
  11 N11           -1.1593     2.1393     0.0193 N.pl3   
  12 C12           -1.0630     3.6011     0.0268 C.3     
  13 C13           -2.3387     4.2164    -0.5746 C.3     
  14 O14            4.3521     2.5521    -0.0260 O.3     
  15 N15           -2.1317    -1.4328     0.0139 N.1     
  16 N16            5.3576     3.2228    -0.0321 N.2     
  17 C17            6.4373     2.4804    -0.0472 C.2     
  18 C18            5.9933     1.1302    -0.0452 C.2     
  19 C19            7.8430     2.9547    -0.0589 C.ar    
  20 C20            8.1186     4.3213    -0.0535 C.ar    
  21 C21            8.8901     2.0343    -0.0694 C.ar    
  22 C22           10.1953     2.4769    -0.0797 C.ar    
  23 C23           10.4681     3.8404    -0.0792 C.ar    
  24 C24            9.4251     4.7599    -0.0639 C.ar    
  25 N25           11.7895     4.2862    -0.0888 N.pl3   
  26 C26           -2.9730     5.0847     0.5316 C.3     
  27 C27           -1.7895     5.4291     1.4695 C.3     
  28 C28           -0.9666     4.1169     1.4775 C.3     
  29 H29            2.4424    -2.2428    -0.0326 H       
  30 H30            0.7893    -2.5424    -0.0187 H       
  31 H31           -2.0294     1.7105     0.0212 H       
  32 H32           -0.1902     3.9204    -0.5426 H       
  33 H33           -2.0849     4.8351    -1.4354 H       
  34 H34           -3.0294     3.4274    -0.8720 H       
  35 H35            6.5924     0.2316    -0.0549 H       
  36 H36            7.3088     5.0358    -0.0416 H       
  37 H37            8.6786     0.9752    -0.0691 H       
  38 H38           11.0067     1.7642    -0.0879 H       
  39 H39            9.6390     5.8185    -0.0635 H       
  40 H40           12.5175     3.6453    -0.0958 H       
  41 H41           11.9805     5.2372    -0.0884 H       
  42 H42           -3.3994     5.9931     0.1061 H       
  43 H43           -3.7346     4.5204     1.0698 H       
  44 H44           -1.2010     6.2516     1.0629 H       
  45 H45           -2.1471     5.6669     2.4714 H       
  46 H46           -1.4041     3.3964     2.1684 H       
  47 H47            0.0713     4.3191     1.7422 H       
@<TRIPOS>BOND
   1    1    2 2
   2    1    4 1
   3    1   11 1
   4    2    3 1
   5    2    6 1
   6    3   15 3
   7    4    5 1
   8    5    6 2
   9    5    7 1
  10    6   10 1
  11    7    8 1
  12    7    9 2
  13    8   14 1
  14    8   18 2
  15   10   29 1
  16   10   30 1
  17   11   12 1
  18   11   31 1
  19   12   13 1
  20   12   28 1
  21   12   32 1
  22   13   26 1
  23   13   33 1
  24   13   34 1
  25   14   16 1
  26   16   17 2
  27   17   18 1
  28   17   19 1
  29   18   35 1
  30   19   20 ar
  31   19   21 ar
  32   20   24 ar
  33   20   36 1
  34   21   22 ar
  35   21   37 1
  36   22   23 ar
  37   22   38 1
  38   23   24 ar
  39   23   25 1
  40   24   39 1
  41   25   40 1
  42   25   41 1
  43   26   27 1
  44   26   42 1
  45   26   43 1
  46   27   28 1
  47   27   44 1
  48   27   45 1
  49   28   46 1
  50   28   47 1

#	End of record

