#	Name: ASD01140004
#	Creating user name:	WinNT
#	Creation time:	15. 06. 2019 18:59

#	Modifying user name:	WinNT
#	Modification time:	15. 06. 2019 18:59

#	Program:	/corina/corina34_cracker 3.40 0067  02.08.2006

@<TRIPOS>MOLECULE
ASD01140004
  18   18    0    0    0
SMALL
NO_CHARGES


@<TRIPOS>ATOM
   1 C1            -0.0187     1.5258     0.0104 C.3     
   2 C2             0.0021    -0.0041     0.0020 C.3     
   3 C3             0.7421    -0.5109     1.2415 C.3     
   4 C4             0.0259    -0.0175     2.5003 C.3     
   5 C5             0.0052     1.5124     2.5088 C.3     
   6 C6            -0.7348     2.0192     1.2692 C.3     
   7 Cl7           -0.8387     2.0938     3.9922 Cl      
   8 Cl8           -1.6656    -0.6416     2.5131 Cl      
   9 Cl9           -0.7593     3.8220     1.2791 Cl      
  10 Cl10           1.6728     2.1498    -0.0024 Cl      
  11 Cl11          -1.6894    -0.6281     0.0148 Cl      
  12 Cl12           0.7665    -2.3137     1.2316 Cl      
  13 H13           -0.5459     1.8868    -0.8726 H       
  14 H14            0.5123    -0.3556    -0.8948 H       
  15 H15            1.7647    -0.1336     1.2338 H       
  16 H16            0.5531    -0.3786     3.3834 H       
  17 H17            1.0278     1.8896     2.5010 H       
  18 H18           -1.7574     1.6419     1.2770 H       
@<TRIPOS>BOND
   1    1    2 1
   2    1   10 1
   3    1    6 1
   4    1   13 1
   5    2    3 1
   6    2   11 1
   7    2   14 1
   8    3    4 1
   9    3   12 1
  10    3   15 1
  11    4    5 1
  12    4    8 1
  13    4   16 1
  14    5    6 1
  15    5    7 1
  16    5   17 1
  17    6    9 1
  18    6   18 1

#	End of record

