#	Name: ASD09900030
#	Creating user name:	WinNT
#	Creation time:	15. 06. 2019 21:24

#	Modifying user name:	WinNT
#	Modification time:	15. 06. 2019 21:24

#	Program:	/corina/corina34_cracker 3.40 0067  02.08.2006

@<TRIPOS>MOLECULE
ASD09900030
  29   30    0    0    0
SMALL
NO_CHARGES


@<TRIPOS>ATOM
   1 C1            -0.0179     1.4723     0.0101 C.ar    
   2 C2             0.0021    -0.0041     0.0020 C.2     
   3 O3             1.0631    -0.5976    -0.0113 O.2     
   4 N4            -1.1558    -0.6938     0.0094 N.am    
   5 C5            -1.1360    -2.1586     0.0013 C.3     
   6 C6            -2.4304    -2.6896     0.6205 C.3     
   7 C7            -1.0171    -2.6591    -1.4396 C.3     
   8 C8             1.1779     2.1838     0.0025 C.ar    
   9 C9             1.1449     3.5761     0.0103 C.ar    
  10 C10           -0.0913     4.2515     0.0257 C.ar    
  11 C11           -1.2769     3.5189     0.0334 C.ar    
  12 C12           -1.2419     2.1562     0.0197 C.ar    
  13 C13            2.1755     4.6183     0.0053 C.2     
  14 C14            1.5372     5.7987     0.0173 C.2     
  15 N15            0.1835     5.5977     0.0296 N.pl3   
  16 H16           -2.0023    -0.2203     0.0200 H       
  17 H17           -0.2837    -2.5136     0.5807 H       
  18 H18           -3.2826    -2.3346     0.0410 H       
  19 H19           -2.4156    -3.7795     0.6145 H       
  20 H20           -2.5151    -2.3330     1.6470 H       
  21 H21           -1.8693    -2.3041    -2.0190 H       
  22 H22           -0.0949    -2.2808    -1.8807 H       
  23 H23           -1.0023    -3.7490    -1.4456 H       
  24 H24            2.1229     1.6612    -0.0089 H       
  25 H25           -2.2268     4.0326     0.0453 H       
  26 H26           -2.1663     1.5977     0.0210 H       
  27 H27            3.2446     4.4655    -0.0054 H       
  28 H28            2.0204     6.7646     0.0178 H       
  29 H29           -0.4836     6.3018     0.0391 H       
@<TRIPOS>BOND
   1    1    2 1
   2    1    8 ar
   3    1   12 ar
   4    2    3 2
   5    2    4 am
   6    4    5 1
   7    4   16 1
   8    5    6 1
   9    5    7 1
  10    5   17 1
  11    6   18 1
  12    6   19 1
  13    6   20 1
  14    7   21 1
  15    7   22 1
  16    7   23 1
  17    8    9 ar
  18    8   24 1
  19    9   13 1
  20    9   10 ar
  21   10   11 ar
  22   10   15 1
  23   11   12 ar
  24   11   25 1
  25   12   26 1
  26   13   14 2
  27   13   27 1
  28   14   15 1
  29   14   28 1
  30   15   29 1

#	End of record

