#	Name: ASD00060044
#	Creating user name:	WinNT
#	Creation time:	15. 06. 2019 18:29

#	Modifying user name:	WinNT
#	Modification time:	15. 06. 2019 18:29

#	Program:	/corina/corina34_cracker 3.40 0067  02.08.2006

@<TRIPOS>MOLECULE
ASD00060044
  39   41    0    0    0
SMALL
NO_CHARGES


@<TRIPOS>ATOM
   1 C1            -0.0169     1.3930     0.0097 C.ar    
   2 C2             0.0021    -0.0041     0.0020 C.ar    
   3 C3             2.4181     0.0425    -0.0211 C.ar    
   4 C4             2.3824     1.4217    -0.0135 C.ar    
   5 C5             1.1688     2.0930     0.0021 C.ar    
   6 N6            -0.9728    -0.9505     0.0058 N.2     
   7 C7            -0.4287    -2.1427    -0.0060 C.2     
   8 N8             0.9330    -2.0310    -0.0182 N.pl3   
   9 C9             1.2340    -0.6787    -0.0134 C.ar    
  10 S10           -1.3201    -3.6627    -0.0058 S.3     
  11 C11            1.8954    -3.1354    -0.0335 C.3     
  12 C12            2.2174    -3.5113    -1.4812 C.3     
  13 O13            3.1562    -4.5886    -1.4961 O.3     
  14 C14            3.5506    -5.0465    -2.7134 C.ar    
  15 C15           -3.0166    -3.0321     0.0134 C.3     
  16 C16           -3.9825    -4.1889     0.0164 C.2     
  17 O17           -3.5665    -5.3232     0.0065 O.2     
  18 O18           -5.3048    -3.9590     0.0299 O.3     
  19 C19            4.8596    -6.5537    -4.0403 C.ar    
  20 C20            4.3540    -5.9780    -5.1913 C.ar    
  21 C21            3.4515    -4.9340    -5.1058 C.ar    
  22 C22            3.0487    -4.4670    -3.8697 C.ar    
  23 C23            4.4600    -6.0904    -2.8018 C.ar    
  24 H24           -0.9584     1.9221     0.0170 H       
  25 H25            3.3664    -0.4743    -0.0336 H       
  26 H26            3.3055     1.9823    -0.0192 H       
  27 H27            1.1536     3.1729     0.0081 H       
  28 H28            2.8097    -2.8276     0.4739 H       
  29 H29            1.4679    -3.9971     0.4791 H       
  30 H30            1.3031    -3.8191    -1.9886 H       
  31 H31            2.6450    -2.6496    -1.9938 H       
  32 H32           -3.1698    -2.4286     0.9081 H       
  33 H33           -3.1864    -2.4192    -0.8718 H       
  34 H34           -5.8849    -4.7327     0.0313 H       
  35 H35            5.5642    -7.3694    -4.1097 H       
  36 H36            4.6677    -6.3417    -6.1586 H       
  37 H37            3.0580    -4.4859    -6.0063 H       
  38 H38            2.3435    -3.6517    -3.8035 H       
  39 H39            4.8555    -6.5402    -1.9031 H       
@<TRIPOS>BOND
   1    1    2 ar
   2    1    5 ar
   3    1   24 1
   4    2    9 ar
   5    2    6 1
   6    3    4 ar
   7    3    9 ar
   8    3   25 1
   9    4    5 ar
  10    4   26 1
  11    5   27 1
  12    6    7 2
  13    7    8 1
  14    7   10 1
  15    8    9 1
  16    8   11 1
  17   10   15 1
  18   11   12 1
  19   11   28 1
  20   11   29 1
  21   12   13 1
  22   12   30 1
  23   12   31 1
  24   13   14 1
  25   14   23 ar
  26   14   22 ar
  27   15   16 1
  28   15   32 1
  29   15   33 1
  30   16   17 2
  31   16   18 1
  32   18   34 1
  33   19   20 ar
  34   19   23 ar
  35   19   35 1
  36   20   21 ar
  37   20   36 1
  38   21   22 ar
  39   21   37 1
  40   22   38 1
  41   23   39 1

#	End of record

