#	Name: ASD07301082
#	Creating user name:	WinNT
#	Creation time:	15. 06. 2019 21:10

#	Modifying user name:	WinNT
#	Modification time:	15. 06. 2019 21:10

#	Program:	/corina/corina34_cracker 3.40 0067  02.08.2006

@<TRIPOS>MOLECULE
ASD07301082
  27   27    0    0    0
SMALL
NO_CHARGES


@<TRIPOS>ATOM
   1 C1             1.2967     0.3937    -0.6683 C.3     
   2 C2             0.0070    -0.0049     0.0015 C.2     
   3 C3             0.0343    -0.8358     1.2058 C.2     
   4 C4            -0.1093    -2.2879     1.0961 C.2     
   5 C5            -0.0812    -3.1436     2.3363 C.3     
   6 O6            -1.0544     0.3632    -0.4578 O.2     
   7 O7            -0.2510    -2.8031     0.0064 O.2     
   8 N8             0.1889    -0.2736     2.3948 N.2     
   9 N9             0.4116     0.9938     2.4849 N.pl3   
  10 C10            0.6804     1.5683     3.7279 C.ar    
  11 C11            1.2220     2.8482     3.8030 C.ar    
  12 C12            1.4862     3.4135     5.0373 C.ar    
  13 C13            1.2131     2.7092     6.1956 C.ar    
  14 C14            0.6754     1.4371     6.1261 C.ar    
  15 C15            0.4024     0.8655     4.8966 C.ar    
  16 F16           -0.1285    -0.3750     4.8301 F       
  17 F17            1.4896     3.5370     2.6721 F       
  18 H18            1.6127    -0.3975    -1.3481 H       
  19 H19            1.1449     1.3158    -1.2294 H       
  20 H20            2.0655     0.5513     0.0883 H       
  21 H21           -0.8936    -2.8481     3.0001 H       
  22 H22           -0.2019    -4.1906     2.0581 H       
  23 H23            0.8723    -3.0112     2.8476 H       
  24 H24            0.3923     1.5475     1.6887 H       
  25 H25            1.9068     4.4065     5.0966 H       
  26 H26            1.4207     3.1540     7.1576 H       
  27 H27            0.4641     0.8907     7.0335 H       
@<TRIPOS>BOND
   1    1    2 1
   2    1   18 1
   3    1   19 1
   4    1   20 1
   5    2    3 1
   6    2    6 2
   7    3    4 1
   8    3    8 2
   9    4    5 1
  10    4    7 2
  11    5   21 1
  12    5   22 1
  13    5   23 1
  14    8    9 1
  15    9   10 1
  16    9   24 1
  17   10   11 ar
  18   10   15 ar
  19   11   12 ar
  20   11   17 1
  21   12   13 ar
  22   12   25 1
  23   13   14 ar
  24   13   26 1
  25   14   15 ar
  26   14   27 1
  27   15   16 1

#	End of record

