#	Name: ASD01100085
#	Creating user name:	WinNT
#	Creation time:	15. 06. 2019 18:58

#	Modifying user name:	WinNT
#	Modification time:	15. 06. 2019 18:58

#	Program:	/corina/corina34_cracker 3.40 0067  02.08.2006

@<TRIPOS>MOLECULE
ASD01100085
  31   33    0    0    0
SMALL
NO_CHARGES


@<TRIPOS>ATOM
   1 C1            -0.0167     1.3820     0.0096 C.ar    
   2 C2             0.0021    -0.0041     0.0020 C.ar    
   3 C3             1.2181    -0.6611    -0.0131 C.ar    
   4 N4             2.3500     0.0151    -0.0199 N.ar    
   5 C5             2.3701     1.3338    -0.0130 C.ar    
   6 C6             1.1938     2.0586     0.0017 C.ar    
   7 C7             3.6914     2.0586    -0.0207 C.3     
   8 C8             3.5650     3.3249    -0.8277 C.2     
   9 N9             4.6285     4.1398    -0.9740 N.am    
  10 O10            2.5062     3.6108    -1.3457 O.2     
  11 C11            4.5118     5.3087    -1.7189 C.2     
  12 N12            5.4633     6.1662    -1.9274 N.2     
  13 C13            5.1682     7.2219    -2.6626 C.2     
  14 C14            3.9121     7.2840    -3.1100 C.2     
  15 S15            3.0509     5.8574    -2.5362 S.3     
  16 C16            4.0907     2.4063     1.4148 C.3     
  17 C17            4.2706     1.2482     2.3983 C.3     
  18 C18            5.4934     2.0044     1.8750 C.3     
  19 F19            3.3918     8.2685    -3.8751 F       
  20 H20           -0.9519     1.9222     0.0170 H       
  21 H21           -0.9217    -0.5635     0.0082 H       
  22 H22            1.2414    -1.7408    -0.0191 H       
  23 H23            1.2168     3.1383     0.0070 H       
  24 H24            4.4540     1.4191    -0.4651 H       
  25 H25            5.4753     3.9112    -0.5597 H       
  26 H26            5.8965     7.9870    -2.8876 H       
  27 H27            3.6807     3.3382     1.8041 H       
  28 H28            3.9793     1.4183     3.4348 H       
  29 H29            4.1045     0.2386     2.0227 H       
  30 H30            6.1317     1.4922     1.1551 H       
  31 H31            6.0066     2.6719     2.5671 H       
@<TRIPOS>BOND
   1    1    2 ar
   2    1    6 ar
   3    1   20 1
   4    2    3 ar
   5    2   21 1
   6    3    4 ar
   7    3   22 1
   8    4    5 ar
   9    5    6 ar
  10    5    7 1
  11    6   23 1
  12    7    8 1
  13    7   16 1
  14    7   24 1
  15    8    9 am
  16    8   10 2
  17    9   11 1
  18    9   25 1
  19   11   12 2
  20   11   15 1
  21   12   13 1
  22   13   14 2
  23   13   26 1
  24   14   15 1
  25   14   19 1
  26   16   17 1
  27   16   18 1
  28   16   27 1
  29   17   18 1
  30   17   28 1
  31   17   29 1
  32   18   30 1
  33   18   31 1

#	End of record

