#	Name: ASD01410587
#	Creating user name:	WinNT
#	Creation time:	15. 06. 2019 19:18

#	Modifying user name:	WinNT
#	Modification time:	15. 06. 2019 19:18

#	Program:	/corina/corina34_cracker 3.40 0067  02.08.2006

@<TRIPOS>MOLECULE
ASD01410587
  71   74    0    0    0
SMALL
NO_CHARGES


@<TRIPOS>ATOM
   1 C1            -0.0340    -1.8845     3.4696 C.ar    
   2 C2             0.8914    -2.2210     4.4761 C.ar    
   3 C3             2.2110    -2.3019     4.1535 C.ar    
   4 N4             2.6482    -2.0734     2.9222 N.ar    
   5 C5             1.8428    -1.7540     1.9291 C.ar    
   6 C6             0.4555    -1.6445     2.1605 C.ar    
   7 O7             2.3453    -1.5311     0.6908 O.3     
   8 C8             3.6959    -1.5555     0.5362 C.ar    
   9 C9             4.3841    -2.7579     0.6464 C.ar    
  10 C10            5.7550    -2.7939     0.4912 C.ar    
  11 C11            6.4569    -1.6268     0.2235 C.ar    
  12 C12            5.7679    -0.4095     0.1105 C.ar    
  13 C13            4.3797    -0.3845     0.2641 C.ar    
  14 N14            7.8417    -1.6636     0.0678 N.am    
  15 C15            8.3776    -1.8494    -1.1548 C.2     
  16 C16            8.7145    -1.5005     1.2330 C.3     
  17 O17            9.5783    -1.9676    -1.2791 O.2     
  18 C18            7.4850    -1.9102    -2.3675 C.3     
  19 C19            8.0700    -2.8944    -3.3825 C.3     
  20 C20            7.1637    -2.9562    -4.6137 C.3     
  21 C21            7.0685    -1.5668    -5.2471 C.3     
  22 C22            6.4836    -0.5826    -4.2321 C.3     
  23 C23            7.3898    -0.5208    -3.0009 C.3     
  24 C24            6.1623    -1.6285    -6.4783 C.3     
  25 C25            7.8755    -1.0915     2.4453 C.3     
  26 O26           10.3122    -3.1369     0.4520 O.3     
  27 C27            9.4249    -2.8232     1.5273 C.3     
  28 C28           11.0295    -4.3602     0.6283 C.3     
  29 O29            7.3068     0.1995     2.2173 O.3     
  30 C30            6.4998     0.6778     3.2954 C.3     
  31 C31           -0.4448    -1.3084     1.1402 C.ar    
  32 C32           -1.7751    -1.2173     1.4214 C.ar    
  33 C33           -2.2555    -1.4530     2.7075 C.ar    
  34 C34           -1.4095    -1.7871     3.7222 C.ar    
  35 C35            6.5046     0.8352    -0.1731 C.2     
  36 O36            7.6990     0.7976    -0.3933 O.2     
  37 O37            5.8535     2.0150    -0.1881 O.3     
  38 H38            0.5599    -2.4112     5.4862 H       
  39 H39            2.9237    -2.5594     4.9230 H       
  40 H40            3.8432    -3.6691     0.8550 H       
  41 H41            6.2828    -3.7321     0.5787 H       
  42 H42            3.8425     0.5485     0.1786 H       
  43 H43            9.4554    -0.7282     1.0267 H       
  44 H44            6.4905    -2.2430    -2.0703 H       
  45 H45            9.0645    -2.5617    -3.6797 H       
  46 H46            8.1378    -3.8843    -2.9312 H       
  47 H47            7.5805    -3.6574    -5.3367 H       
  48 H48            6.1692    -3.2890    -4.3164 H       
  49 H49            8.0630    -1.2340    -5.5443 H       
  50 H50            6.4157     0.4073    -4.6834 H       
  51 H51            5.4891    -0.9153    -3.9349 H       
  52 H52            6.9731     0.1804    -2.2779 H       
  53 H53            8.3843    -0.1880    -3.2981 H       
  54 H54            5.1678    -1.9613    -6.1810 H       
  55 H55            6.0944    -0.6387    -6.9295 H       
  56 H56            6.5790    -2.3297    -7.2013 H       
  57 H57            7.0775    -1.8184     2.5969 H       
  58 H58            8.5095    -1.0579     3.3313 H       
  59 H59            9.9934    -2.7322     2.4528 H       
  60 H60            8.6856    -3.6173     1.6317 H       
  61 H61           11.6313    -4.3011     1.5352 H       
  62 H62           10.3235    -5.1862     0.7140 H       
  63 H63           11.6807    -4.5264    -0.2298 H       
  64 H64            5.6733    -0.0124     3.4646 H       
  65 H65            7.1053     0.7481     4.1990 H       
  66 H66            6.1054     1.6626     3.0448 H       
  67 H67           -0.0867    -1.1226     0.1384 H       
  68 H68           -2.4679    -0.9579     0.6345 H       
  69 H69           -3.3148    -1.3739     2.9024 H       
  70 H70           -1.7947    -1.9677     4.7148 H       
  71 H71            6.3789     2.8040    -0.3789 H       
@<TRIPOS>BOND
   1    1    2 ar
   2    1    6 ar
   3    1   34 ar
   4    2    3 ar
   5    2   38 1
   6    3    4 ar
   7    3   39 1
   8    4    5 ar
   9    5    6 ar
  10    5    7 1
  11    6   31 ar
  12    7    8 1
  13    8    9 ar
  14    8   13 ar
  15    9   10 ar
  16    9   40 1
  17   10   11 ar
  18   10   41 1
  19   11   12 ar
  20   11   14 1
  21   12   13 ar
  22   12   35 1
  23   13   42 1
  24   14   15 am
  25   14   16 1
  26   15   17 2
  27   15   18 1
  28   16   25 1
  29   16   27 1
  30   16   43 1
  31   18   19 1
  32   18   23 1
  33   18   44 1
  34   19   20 1
  35   19   45 1
  36   19   46 1
  37   20   21 1
  38   20   47 1
  39   20   48 1
  40   21   22 1
  41   21   24 1
  42   21   49 1
  43   22   23 1
  44   22   50 1
  45   22   51 1
  46   23   52 1
  47   23   53 1
  48   24   54 1
  49   24   55 1
  50   24   56 1
  51   25   29 1
  52   25   57 1
  53   25   58 1
  54   26   27 1
  55   26   28 1
  56   27   59 1
  57   27   60 1
  58   28   61 1
  59   28   62 1
  60   28   63 1
  61   29   30 1
  62   30   64 1
  63   30   65 1
  64   30   66 1
  65   31   32 ar
  66   31   67 1
  67   32   33 ar
  68   32   68 1
  69   33   34 ar
  70   33   69 1
  71   34   70 1
  72   35   36 2
  73   35   37 1
  74   37   71 1

#	End of record

