#	Name: ASD01913624
#	Creating user name:	WinNT
#	Creation time:	15. 06. 2019 20:01

#	Modifying user name:	WinNT
#	Modification time:	15. 06. 2019 20:01

#	Program:	/corina/corina34_cracker 3.40 0067  02.08.2006

@<TRIPOS>MOLECULE
ASD01913624
  38   40    0    0    0
SMALL
NO_CHARGES


@<TRIPOS>ATOM
   1 C1            -0.0052     1.3534     0.0125 C.ar    
   2 C2             0.0166    -0.0287    -0.0004 C.ar    
   3 C3             1.2244    -0.7007    -0.0206 C.ar    
   4 C4             2.4104     0.0093    -0.0283 C.ar    
   5 C5             2.3886     1.3915    -0.0164 C.ar    
   6 C6             1.1808     2.0635     0.0052 C.ar    
   7 C7             3.6816     2.1655    -0.0243 C.3     
   8 O8             4.0751     2.4216    -1.3740 O.3     
   9 C9             5.2257     3.1131    -1.5586 C.ar    
  10 N10            5.9220     3.5140    -0.5059 N.ar    
  11 C11            7.0456     4.1885    -0.6363 C.ar    
  12 C12            7.5396     4.5035    -1.9030 C.ar    
  13 C13            6.8215     4.0908    -3.0352 C.ar    
  14 C14            5.6611     3.3868    -2.8515 C.ar    
  15 C15            8.7984     5.2598    -2.0492 C.2     
  16 N16            9.4801     5.6517    -0.9546 N.am    
  17 O17            9.2206     5.5293    -3.1570 O.2     
  18 C18           10.7209     6.2702    -1.0911 C.ar    
  19 N19           11.2689     6.3832    -2.2906 N.ar    
  20 C20           12.4420     6.9617    -2.4639 C.ar    
  21 C21           13.1443     7.4736    -1.3910 C.ar    
  22 C22           12.6042     7.3753    -0.1157 C.ar    
  23 C23           11.3699     6.7684     0.0334 C.ar    
  24 H24           -0.9489     1.8785     0.0237 H       
  25 H25           -0.9101    -0.5834     0.0056 H       
  26 H26            1.2414    -1.7806    -0.0299 H       
  27 H27            3.3540    -0.5157    -0.0434 H       
  28 H28            1.1638     3.1433     0.0142 H       
  29 H29            3.5420     3.1114     0.4991 H       
  30 H30            4.4561     1.5843     0.4760 H       
  31 H31            7.5886     4.5006     0.2435 H       
  32 H32            7.1778     4.3191    -4.0288 H       
  33 H33            5.0850     3.0542    -3.7024 H       
  34 H34            9.1068     5.5031    -0.0717 H       
  35 H35           12.8583     7.0356    -3.4576 H       
  36 H36           14.1041     7.9452    -1.5421 H       
  37 H37           13.1336     7.7677     0.7400 H       
  38 H38           10.9204     6.6750     1.0110 H       
@<TRIPOS>BOND
   1    1    2 ar
   2    1    6 ar
   3    1   24 1
   4    2    3 ar
   5    2   25 1
   6    3    4 ar
   7    3   26 1
   8    4    5 ar
   9    4   27 1
  10    5    6 ar
  11    5    7 1
  12    6   28 1
  13    7    8 1
  14    7   29 1
  15    7   30 1
  16    8    9 1
  17    9   10 ar
  18    9   14 ar
  19   10   11 ar
  20   11   12 ar
  21   11   31 1
  22   12   13 ar
  23   12   15 1
  24   13   14 ar
  25   13   32 1
  26   14   33 1
  27   15   16 am
  28   15   17 2
  29   16   18 1
  30   16   34 1
  31   18   19 ar
  32   18   23 ar
  33   19   20 ar
  34   20   21 ar
  35   20   35 1
  36   21   22 ar
  37   21   36 1
  38   22   23 ar
  39   22   37 1
  40   23   38 1

#	End of record

