#	Name: ASD04590904
#	Creating user name:	WinNT
#	Creation time:	15. 06. 2019 20:51

#	Modifying user name:	WinNT
#	Modification time:	15. 06. 2019 20:51

#	Program:	/corina/corina34_cracker 3.40 0067  02.08.2006

@<TRIPOS>MOLECULE
ASD04590904
  60   65    0    0    0
SMALL
NO_CHARGES


@<TRIPOS>ATOM
   1 N1            -0.0171     1.3232    -0.0119 N.ar    
   2 C2             0.0017    -0.0035    -0.0051 C.ar    
   3 N3             1.1298    -0.6949    -0.0118 N.ar    
   4 C4             2.3050    -0.0728    -0.0262 C.ar    
   5 C5             2.3189     1.3366    -0.0341 C.ar    
   6 C6             1.1072     2.0202    -0.0262 C.ar    
   7 N7             3.6031    -0.5195    -0.0358 N.pl3   
   8 C8             4.4823     0.5495    -0.0499 C.ar    
   9 C9             3.7312     1.7385    -0.0495 C.ar    
  10 C10            5.8680     0.6418    -0.0633 C.ar    
  11 N11            6.4613     1.8181    -0.0753 N.ar    
  12 C12            5.7850     2.9533    -0.0753 C.ar    
  13 C13            4.4063     2.9585    -0.0629 C.ar    
  14 C14            4.0018    -1.9292    -0.0312 C.3     
  15 C15            3.4610    -2.6259     1.2297 C.3     
  16 C16            2.5279    -3.7542     0.7439 C.3     
  17 C17            3.0203    -4.0625    -0.6919 C.3     
  18 C18            3.3785    -2.6585    -1.2393 C.3     
  19 N19           -1.2019    -0.6887     0.0098 N.pl3   
  20 C20           -2.4019     0.0120     0.1303 C.ar    
  21 N21           -2.3783     1.3196     0.3309 N.ar    
  22 C22           -3.4885     2.0229     0.4509 C.ar    
  23 C23           -4.7291     1.4087     0.3703 C.ar    
  24 C24           -4.7935     0.0321     0.1596 C.ar    
  25 C25           -3.6094    -0.6709     0.0326 C.ar    
  26 N26           -5.9023     2.1615     0.4995 N.3     
  27 C27           -5.5953     3.5824     0.7148 C.3     
  28 C28           -6.9000     4.3806     0.7711 C.3     
  29 N29           -7.7449     3.8574     1.8537 N.3     
  30 C30           -8.0519     2.4365     1.6384 C.3     
  31 C31           -6.7473     1.6383     1.5820 C.3     
  32 C32           -8.9760     4.6473     1.9892 C.3     
  33 H33            1.0848     3.1000    -0.0315 H       
  34 H34            6.4645    -0.2585    -0.0635 H       
  35 H35            6.3203     3.8912    -0.0851 H       
  36 H36            3.8596     3.8899    -0.0633 H       
  37 H37            5.0883    -2.0098    -0.0654 H       
  38 H38            4.2849    -3.0453     1.8070 H       
  39 H39            2.9019    -1.9151     1.8382 H       
  40 H40            2.6301    -4.6339     1.3793 H       
  41 H41            1.4929    -3.4127     0.7271 H       
  42 H42            3.9010    -4.7043    -0.6688 H       
  43 H43            2.2255    -4.5166    -1.2837 H       
  44 H44            2.4809    -2.1401    -1.5763 H       
  45 H45            4.1014    -2.7386    -2.0511 H       
  46 H46           -1.2103    -1.6559    -0.0635 H       
  47 H47           -3.4301     3.0889     0.6140 H       
  48 H48           -5.7459    -0.4729     0.0926 H       
  49 H49           -3.6221    -1.7382    -0.1317 H       
  50 H50           -5.0564     3.6996     1.6549 H       
  51 H51           -4.9794     3.9498    -0.1061 H       
  52 H52           -6.6760     5.4305     0.9597 H       
  53 H53           -7.4258     4.2855    -0.1789 H       
  54 H54           -8.6679     2.0691     2.4592 H       
  55 H55           -8.5909     2.3193     0.6982 H       
  56 H56           -6.9712     0.5883     1.3935 H       
  57 H57           -6.2214     1.7334     2.5321 H       
  58 H58           -9.5383     4.6068     1.0563 H       
  59 H59           -9.5828     4.2387     2.7973 H       
  60 H60           -8.7204     5.6827     2.2147 H       
@<TRIPOS>BOND
   1    1    2 ar
   2    1    6 ar
   3    2    3 ar
   4    2   19 1
   5    3    4 ar
   6    4    5 ar
   7    4    7 1
   8    5    6 ar
   9    5    9 1
  10    6   33 1
  11    7    8 1
  12    7   14 1
  13    8    9 ar
  14    8   10 ar
  15    9   13 ar
  16   10   11 ar
  17   10   34 1
  18   11   12 ar
  19   12   13 ar
  20   12   35 1
  21   13   36 1
  22   14   15 1
  23   14   18 1
  24   14   37 1
  25   15   16 1
  26   15   38 1
  27   15   39 1
  28   16   17 1
  29   16   40 1
  30   16   41 1
  31   17   18 1
  32   17   42 1
  33   17   43 1
  34   18   44 1
  35   18   45 1
  36   19   20 1
  37   19   46 1
  38   20   21 ar
  39   20   25 ar
  40   21   22 ar
  41   22   23 ar
  42   22   47 1
  43   23   24 ar
  44   23   26 1
  45   24   25 ar
  46   24   48 1
  47   25   49 1
  48   26   27 1
  49   26   31 1
  50   27   28 1
  51   27   50 1
  52   27   51 1
  53   28   29 1
  54   28   52 1
  55   28   53 1
  56   29   30 1
  57   29   32 1
  58   30   31 1
  59   30   54 1
  60   30   55 1
  61   31   56 1
  62   31   57 1
  63   32   58 1
  64   32   59 1
  65   32   60 1

#	End of record

