#	Name: ASD01881775
#	Creating user name:	WinNT
#	Creation time:	15. 06. 2019 19:43

#	Modifying user name:	WinNT
#	Modification time:	15. 06. 2019 19:43

#	Program:	/corina/corina34_cracker 3.40 0067  02.08.2006

@<TRIPOS>MOLECULE
ASD01881775
  62   66    0    0    0
SMALL
NO_CHARGES


@<TRIPOS>ATOM
   1 C1            -0.0161     1.3337     0.0094 C.2     
   2 N2             0.0021    -0.0041     0.0020 N.am    
   3 C3             1.2613    -0.4841    -0.0126 C.2     
   4 C4             2.1640     0.7337    -0.0147 C.3     
   5 N5             1.2200     1.8645     0.0004 N.am    
   6 O6            -1.0354     1.9955     0.0180 O.2     
   7 O7             1.6013    -1.6477    -0.0215 O.2     
   8 C8             3.0460     0.7520     1.2354 C.3     
   9 C9             3.0220     0.7655    -1.2811 C.3     
  10 C10           -1.1986    -0.8435     0.0097 C.3     
  11 C11           -1.6309    -1.1284    -1.4300 C.3     
  12 O12           -0.6279    -1.9094    -2.0828 O.3     
  13 C13           -0.9351    -2.2327    -3.4404 C.3     
  14 C14            1.5609     3.2893     0.0041 C.3     
  15 C15            1.6916     3.7708     1.4261 C.ar    
  16 C16            2.9179     3.7119     2.0635 C.ar    
  17 C17            3.0436     4.1515     3.3656 C.ar    
  18 C18            1.9317     4.6556     4.0386 C.ar    
  19 C19            0.6985     4.7125     3.3911 C.ar    
  20 C20            0.5860     4.2753     2.0870 C.ar    
  21 C21            2.1296     6.5463     9.4228 C.2     
  22 N22            0.8532     6.9185     9.6195 N.am    
  23 C23            0.0906     6.6569     8.3935 C.3     
  24 C24            1.0684     6.0704     7.4058 C.ar    
  25 C25            0.9454     5.6335     6.1100 C.ar    
  26 C26            2.0602     5.1290     5.4378 C.ar    
  27 C27            3.2953     5.0703     6.0844 C.ar    
  28 C28            3.4183     5.5084     7.3833 C.ar    
  29 C29            2.3036     6.0140     8.0586 C.ar    
  30 O30            3.0156     6.6401    10.2499 O.2     
  31 C31            0.3121     7.4904    10.8550 C.3     
  32 C32            0.4099     6.6453    12.1266 C.3     
  33 C33            1.3079     7.8717    11.9522 C.3     
  34 H34            3.6824    -0.1329     1.2441 H       
  35 H35            3.6682     1.6470     1.2280 H       
  36 H36            2.4158     0.7550     2.1247 H       
  37 H37            2.3749     0.7780    -2.1581 H       
  38 H38            3.6443     1.6604    -1.2759 H       
  39 H39            3.6580    -0.1191    -1.3114 H       
  40 H40           -0.9814    -1.7836     0.5167 H       
  41 H41           -2.0011    -0.3248     0.5342 H       
  42 H42           -2.5725    -1.6775    -1.4247 H       
  43 H43           -1.7623    -0.1868    -1.9630 H       
  44 H44           -1.0521    -1.3139    -4.0152 H       
  45 H45           -0.1252    -2.8261    -3.8648 H       
  46 H46           -1.8623    -2.8046    -3.4768 H       
  47 H47            2.5060     3.4381    -0.5182 H       
  48 H48            0.7749     3.8522    -0.4994 H       
  49 H49            3.7786     3.3209     1.5412 H       
  50 H50            4.0014     4.1047     3.8624 H       
  51 H51           -0.1663     5.1021     3.9076 H       
  52 H52           -0.3679     4.3233     1.5828 H       
  53 H53           -0.7104     5.9457     8.5952 H       
  54 H54           -0.3229     7.5872     8.0040 H       
  55 H55           -0.0116     5.6802     5.6117 H       
  56 H56            4.1573     4.6796     5.5640 H       
  57 H57            4.3757     5.4612     7.8808 H       
  58 H58           -0.5703     8.1189    10.7350 H       
  59 H59           -0.4079     6.7182    12.8435 H       
  60 H60            0.8769     5.6638    12.0440 H       
  61 H61            2.3656     7.6971    11.7548 H       
  62 H62            1.0808     8.7515    12.5543 H       
@<TRIPOS>BOND
   1    1    2 am
   2    1    5 am
   3    1    6 2
   4    2    3 am
   5    2   10 1
   6    3    4 1
   7    3    7 2
   8    4    5 1
   9    4    8 1
  10    4    9 1
  11    5   14 1
  12    8   34 1
  13    8   35 1
  14    8   36 1
  15    9   37 1
  16    9   38 1
  17    9   39 1
  18   10   11 1
  19   10   40 1
  20   10   41 1
  21   11   12 1
  22   11   42 1
  23   11   43 1
  24   12   13 1
  25   13   44 1
  26   13   45 1
  27   13   46 1
  28   14   15 1
  29   14   47 1
  30   14   48 1
  31   15   16 ar
  32   15   20 ar
  33   16   17 ar
  34   16   49 1
  35   17   18 ar
  36   17   50 1
  37   18   19 ar
  38   18   26 1
  39   19   20 ar
  40   19   51 1
  41   20   52 1
  42   21   22 am
  43   21   29 1
  44   21   30 2
  45   22   23 1
  46   22   31 1
  47   23   24 1
  48   23   53 1
  49   23   54 1
  50   24   25 ar
  51   24   29 ar
  52   25   26 ar
  53   25   55 1
  54   26   27 ar
  55   27   28 ar
  56   27   56 1
  57   28   29 ar
  58   28   57 1
  59   31   32 1
  60   31   33 1
  61   31   58 1
  62   32   33 1
  63   32   59 1
  64   32   60 1
  65   33   61 1
  66   33   62 1

#	End of record

