#	Name: ASD03330291
#	Creating user name:	WinNT
#	Creation time:	15. 06. 2019 20:37

#	Modifying user name:	WinNT
#	Modification time:	15. 06. 2019 20:37

#	Program:	/corina/corina34_cracker 3.40 0067  02.08.2006

@<TRIPOS>MOLECULE
ASD03330291
  60   62    0    0    0
SMALL
NO_CHARGES


@<TRIPOS>ATOM
   1 C1            -0.3489     0.4058     0.5759 C.3     
   2 N2            -0.3826    -1.0144     0.1994 N.3     
   3 C3             0.1709    -1.2204    -1.1511 C.3     
   4 C4             1.5012    -0.5157    -1.2217 C.2     
   5 N5             1.9105     0.4143    -0.3195 N.pl3   
   6 C6             1.1005     0.8431     0.8243 C.3     
   7 C7             2.4941    -0.6542    -2.1354 C.2     
   8 N8             3.4953     0.1847    -1.7837 N.2     
   9 C9             3.1498     0.8292    -0.6917 C.2     
  10 C10            3.9719     1.8369     0.0138 C.ar    
  11 C11            5.0771     2.4066    -0.6188 C.ar    
  12 C12            2.4839    -1.5559    -3.3009 C.2     
  13 O13            1.5194    -2.2660    -3.5121 O.2     
  14 C14            3.5335    -2.4902    -5.2916 C.3     
  15 N15            3.5436    -1.5937    -4.1329 N.am    
  16 C16            2.8254    -1.8037    -6.4614 C.3     
  17 C17           -1.7459    -1.5528     0.2973 C.3     
  18 C18            4.9507    -2.8185    -5.6851 C.2     
  19 O19            5.8260    -1.9907    -5.5455 O.2     
  20 N20            5.2454    -4.0319    -6.1921 N.am    
  21 C21            6.6382    -4.3909    -6.4707 C.3     
  22 C22            5.8395     3.3462     0.0443 C.ar    
  23 C23            5.5100     3.7236     1.3338 C.ar    
  24 C24            4.4152     3.1624     1.9667 C.ar    
  25 C25            3.6417     2.2257     1.3124 C.ar    
  26 C26            3.4770    -0.4448    -6.7253 C.3     
  27 C27            2.9428    -2.6771    -7.7121 C.3     
  28 C28            1.3484    -1.6028    -6.1164 C.3     
  29 C29            4.1730    -4.9920    -6.4648 C.3     
  30 H30           -0.7750     1.0043    -0.2293 H       
  31 H31           -0.9328     0.5539     1.4842 H       
  32 H32            0.3084    -2.2860    -1.3344 H       
  33 H33           -0.5073    -0.8024    -1.8950 H       
  34 H34            1.1459     1.9278     0.9211 H       
  35 H35            1.4744     0.3760     1.7354 H       
  36 H36            5.3356     2.1126    -1.6254 H       
  37 H37            3.0054    -3.4087    -5.0358 H       
  38 H38            4.3129    -1.0274    -3.9645 H       
  39 H39           -2.4180    -0.9541    -0.3176 H       
  40 H40           -1.7551    -2.5847    -0.0534 H       
  41 H41           -2.0763    -1.5189     1.3355 H       
  42 H42            7.0773    -4.8550    -5.5876 H       
  43 H43            6.6729    -5.0917    -7.3047 H       
  44 H44            7.2005    -3.4930    -6.7269 H       
  45 H45            6.6956     3.7877    -0.4443 H       
  46 H46            6.1100     4.4592     1.8488 H       
  47 H47            4.1630     3.4611     2.9734 H       
  48 H48            2.7873     1.7882     1.8075 H       
  49 H49            4.5292    -0.5879    -6.9710 H       
  50 H50            2.9725     0.0443    -7.5587 H       
  51 H51            3.3933     0.1775    -5.8343 H       
  52 H52            2.5174    -3.6601    -7.5100 H       
  53 H53            2.4016    -2.2090    -8.5343 H       
  54 H54            3.9932    -2.7845    -7.9829 H       
  55 H55            1.2648    -0.9805    -5.2254 H       
  56 H56            0.8440    -1.1137    -6.9498 H       
  57 H57            0.8843    -2.5709    -5.9284 H       
  58 H58            3.2089    -4.5296    -6.2531 H       
  59 H59            4.2104    -5.2908    -7.5123 H       
  60 H60            4.3017    -5.8700    -5.8317 H       
@<TRIPOS>BOND
   1    1    2 1
   2    1    6 1
   3    1   30 1
   4    1   31 1
   5    2    3 1
   6    2   17 1
   7    3    4 1
   8    3   32 1
   9    3   33 1
  10    4    5 1
  11    4    7 2
  12    5    6 1
  13    5    9 1
  14    6   34 1
  15    6   35 1
  16    7    8 1
  17    7   12 1
  18    8    9 2
  19    9   10 1
  20   10   11 ar
  21   10   25 ar
  22   11   22 ar
  23   11   36 1
  24   12   13 2
  25   12   15 am
  26   14   15 1
  27   14   18 1
  28   14   16 1
  29   14   37 1
  30   15   38 1
  31   16   26 1
  32   16   27 1
  33   16   28 1
  34   17   39 1
  35   17   40 1
  36   17   41 1
  37   18   19 2
  38   18   20 am
  39   20   21 1
  40   20   29 1
  41   21   42 1
  42   21   43 1
  43   21   44 1
  44   22   23 ar
  45   22   45 1
  46   23   24 ar
  47   23   46 1
  48   24   25 ar
  49   24   47 1
  50   25   48 1
  51   26   49 1
  52   26   50 1
  53   26   51 1
  54   27   52 1
  55   27   53 1
  56   27   54 1
  57   28   55 1
  58   28   56 1
  59   28   57 1
  60   29   58 1
  61   29   59 1
  62   29   60 1

#	End of record

