#	Name: ASD01270001
#	Creating user name:	WinNT
#	Creation time:	15. 06. 2019 19:15

#	Modifying user name:	WinNT
#	Modification time:	15. 06. 2019 19:15

#	Program:	/corina/corina34_cracker 3.40 0067  02.08.2006

@<TRIPOS>MOLECULE
ASD01270001
   7    6    0    0    0
SMALL
NO_CHARGES


@<TRIPOS>ATOM
   1 P1            -0.0198     1.6058     0.0109 P.3     
   2 O2             0.0021    -0.0041     0.0020 O.3     
   3 O3             1.5503     1.9619    -0.0022 O.3     
   4 O4            -0.4521     1.9430    -1.5029 O.3     
   5 H5            -0.8759    -0.4094     0.0082 H       
   6 H6             1.9933     1.8182     0.8453 H       
   7 H7            -1.3880     1.7863    -1.6888 H       
@<TRIPOS>BOND
   1    1    2 1
   2    1    3 1
   3    1    4 1
   4    2    5 1
   5    3    6 1
   6    4    7 1

#	End of record

