#	Name: ASD01910559
#	Creating user name:	WinNT
#	Creation time:	15. 06. 2019 19:56

#	Modifying user name:	WinNT
#	Modification time:	15. 06. 2019 19:56

#	Program:	/corina/corina34_cracker 3.40 0067  02.08.2006

@<TRIPOS>MOLECULE
ASD01910559
  44   47    0    0    0
SMALL
NO_CHARGES


@<TRIPOS>ATOM
   1 O1            -0.0214     3.1621     0.8110 O.3     
   2 C2            -0.3527     1.8691     0.6556 C.2     
   3 N3             0.7781     1.2127     0.4405 N.2     
   4 C4             1.7445     2.1419     0.4759 C.2     
   5 N5             1.1797     3.2913     0.7041 N.2     
   6 C6            -1.7035     1.2957     0.7133 C.2     
   7 C7            -2.8632     1.9853     0.9362 C.2     
   8 C8            -3.9109     1.0566     0.9095 C.2     
   9 C9            -3.3755    -0.1638     0.6739 C.2     
  10 N10           -2.0293    -0.0296     0.5469 N.pl3   
  11 C11            3.9767     2.3398     1.5423 C.3     
  12 C12            3.2195     1.8982     0.2859 C.3     
  13 C13            3.7197     2.7034    -0.9157 C.3     
  14 C14            5.2104     2.4311    -1.1295 C.3     
  15 C15            5.9901     2.8787     0.1109 C.3     
  16 N16            5.4194     2.2176     1.2923 N.am    
  17 C17            6.2042     1.5121     2.1307 C.2     
  18 C18            5.6397     0.9557     3.3806 C.ar    
  19 O19            7.3754     1.3329     1.8603 O.2     
  20 C20            5.8871    -0.3711     3.7543 C.ar    
  21 C21            5.3383    -0.8486     4.9333 C.ar    
  22 N22            4.5949    -0.0727     5.6951 N.ar    
  23 C23            4.3384     1.1815     5.3788 C.ar    
  24 C24            4.8487     1.7420     4.2251 C.ar    
  25 C25           -5.3733     1.3617     1.1076 C.3     
  26 F26            6.6483    -1.1725     2.9774 F       
  27 H27           -2.9541     3.0485     1.1024 H       
  28 H28           -3.9267    -1.0893     0.5956 H       
  29 H29           -1.4024    -0.7494     0.3742 H       
  30 H30            3.7320     3.3771     1.7707 H       
  31 H31            3.6959     1.7027     2.3809 H       
  32 H32            3.3937     0.8366     0.1104 H       
  33 H33            3.1652     2.4085    -1.8066 H       
  34 H34            3.5678     3.7665    -0.7290 H       
  35 H35            5.3658     1.3645    -1.2916 H       
  36 H36            5.5606     2.9867    -1.9994 H       
  37 H37            7.0378     2.5972     0.0051 H       
  38 H38            5.9096     3.9600     0.2226 H       
  39 H39            5.5220    -1.8702     5.2314 H       
  40 H40            3.7234     1.7804     6.0342 H       
  41 H41            4.6338     2.7702     3.9740 H       
  42 H42           -5.8319     1.5839     0.1441 H       
  43 H43           -5.8672     0.4989     1.5546 H       
  44 H44           -5.4787     2.2229     1.7674 H       
@<TRIPOS>BOND
   1    1    2 1
   2    1    5 1
   3    2    3 2
   4    2    6 1
   5    3    4 1
   6    4    5 2
   7    4   12 1
   8    6    7 2
   9    6   10 1
  10    7    8 1
  11    7   27 1
  12    8    9 2
  13    8   25 1
  14    9   10 1
  15    9   28 1
  16   10   29 1
  17   11   12 1
  18   11   16 1
  19   11   30 1
  20   11   31 1
  21   12   13 1
  22   12   32 1
  23   13   14 1
  24   13   33 1
  25   13   34 1
  26   14   15 1
  27   14   35 1
  28   14   36 1
  29   15   16 1
  30   15   37 1
  31   15   38 1
  32   16   17 am
  33   17   18 1
  34   17   19 2
  35   18   20 ar
  36   18   24 ar
  37   20   21 ar
  38   20   26 1
  39   21   22 ar
  40   21   39 1
  41   22   23 ar
  42   23   24 ar
  43   23   40 1
  44   24   41 1
  45   25   42 1
  46   25   43 1
  47   25   44 1

#	End of record

