#	Name: ASD01320035
#	Creating user name:	WinNT
#	Creation time:	15. 06. 2019 19:15

#	Modifying user name:	WinNT
#	Modification time:	15. 06. 2019 19:15

#	Program:	/corina/corina34_cracker 3.40 0067  02.08.2006

@<TRIPOS>MOLECULE
ASD01320035
  45   48    0    0    0
SMALL
NO_CHARGES


@<TRIPOS>ATOM
   1 C1            -0.0164     1.3548     0.0095 C.2     
   2 C2             0.0021    -0.0041     0.0020 C.2     
   3 C3             1.2439    -0.6849    -0.0135 C.2     
   4 C4             2.4666     0.1363    -0.0208 C.ar    
   5 C5             2.3337     1.5334    -0.0120 C.ar    
   6 O6             1.1060     2.0910     0.0027 O.3     
   7 C7             3.7380    -0.4533    -0.0356 C.ar    
   8 C8             4.8673     0.3466    -0.0417 C.ar    
   9 C9             4.7469     1.7290    -0.0327 C.ar    
  10 C10            3.4832     2.3315    -0.0187 C.ar    
  11 O11            1.2987    -1.9039    -0.0202 O.2     
  12 C12            2.7692     5.9488    -1.1042 C.3     
  13 C13            3.2936     4.5278    -1.3257 C.3     
  14 C14            3.3639     3.8027    -0.0107 C.2     
  15 C15            3.3230     4.4266     1.1476 C.2     
  16 C16            3.1961     5.9179     1.2702 C.3     
  17 N17            3.5321     6.5631    -0.0052 N.3     
  18 C18            3.2915     8.0109     0.0577 C.3     
  19 O19            5.8618     2.5022    -0.0383 O.3     
  20 O20            3.8614    -1.8044    -0.0436 O.3     
  21 C21           -1.3206     2.0477     0.0194 C.ar    
  22 C22           -1.3734     3.4432     0.0272 C.ar    
  23 C23           -2.5950     4.0838     0.0359 C.ar    
  24 C24           -3.7662     3.3470     0.0374 C.ar    
  25 C25           -3.7212     1.9640     0.0301 C.ar    
  26 C26           -2.5066     1.3104     0.0151 C.ar    
  27 H27           -0.9234    -0.5607     0.0082 H       
  28 H28            5.8472    -0.1072    -0.0531 H       
  29 H29            2.9018     6.5340    -2.0141 H       
  30 H30            1.7123     5.9120    -0.8399 H       
  31 H31            2.6224     3.9944    -1.9988 H       
  32 H32            4.2887     4.5734    -1.7680 H       
  33 H33            3.3838     3.8388     2.0516 H       
  34 H34            2.1721     6.1717     1.5444 H       
  35 H35            3.8740     6.2754     2.0453 H       
  36 H36            2.2301     8.1960     0.2230 H       
  37 H37            3.8671     8.4396     0.8781 H       
  38 H38            3.5987     8.4715    -0.8812 H       
  39 H39            6.1770     2.7314    -0.9233 H       
  40 H40            3.8889    -2.1916    -0.9292 H       
  41 H41           -0.4600     4.0195     0.0268 H       
  42 H42           -2.6374     5.1629     0.0420 H       
  43 H43           -4.7200     3.8537     0.0446 H       
  44 H44           -4.6392     1.3950     0.0320 H       
  45 H45           -2.4728     0.2310     0.0049 H       
@<TRIPOS>BOND
   1    1    2 2
   2    1    6 1
   3    1   21 1
   4    2    3 1
   5    2   27 1
   6    3    4 1
   7    3   11 2
   8    4    5 ar
   9    4    7 ar
  10    5    6 1
  11    5   10 ar
  12    7    8 ar
  13    7   20 1
  14    8    9 ar
  15    8   28 1
  16    9   10 ar
  17    9   19 1
  18   10   14 1
  19   12   13 1
  20   12   17 1
  21   12   29 1
  22   12   30 1
  23   13   14 1
  24   13   31 1
  25   13   32 1
  26   14   15 2
  27   15   16 1
  28   15   33 1
  29   16   17 1
  30   16   34 1
  31   16   35 1
  32   17   18 1
  33   18   36 1
  34   18   37 1
  35   18   38 1
  36   19   39 1
  37   20   40 1
  38   21   22 ar
  39   21   26 ar
  40   22   23 ar
  41   22   41 1
  42   23   24 ar
  43   23   42 1
  44   24   25 ar
  45   24   43 1
  46   25   26 ar
  47   25   44 1
  48   26   45 1

#	End of record

