#	Name: ASD02508490
#	Creating user name:	WinNT
#	Creation time:	15. 06. 2019 20:24

#	Modifying user name:	WinNT
#	Modification time:	15. 06. 2019 20:24

#	Program:	/corina/corina34_cracker 3.40 0067  02.08.2006

@<TRIPOS>MOLECULE
ASD02508490
  34   36    0    0    0
SMALL
NO_CHARGES


@<TRIPOS>ATOM
   1 C1             1.2858     1.8024    -0.0498 C.2     
   2 C2             2.0683     0.6469     0.0444 C.2     
   3 C3             1.2352    -0.4200     0.0679 C.2     
   4 N4            -0.0319     0.0457    -0.0088 N.pl3   
   5 N5             0.0270     1.4435    -0.0818 N.2     
   6 C6            -1.1952    -0.7306    -0.0149 C.2     
   7 S7             1.7158    -2.1116     0.1778 S.o2    
   8 N8             1.7513    -2.7123    -1.3650 N.am    
   9 C9             2.6772    -2.2156    -2.2875 C.ar    
  10 C10            2.2726    -1.9019    -3.5787 C.ar    
  11 O11            3.0589    -2.1178     0.6418 O.2     
  12 O12            0.6592    -2.7863     0.8469 O.2     
  13 C13            4.0011    -2.0298    -1.9125 C.ar    
  14 C14            4.9142    -1.5390    -2.8256 C.ar    
  15 C15            4.5100    -1.2324    -4.1137 C.ar    
  16 C16            3.1888    -1.4115    -4.4882 C.ar    
  17 C17            2.7520    -1.0773    -5.8913 C.3     
  18 C18           -2.3109    -0.4580     0.6773 C.2     
  19 C19           -3.3343    -1.3744     0.5118 C.2     
  20 C20           -3.0559    -2.3878    -0.3096 C.2     
  21 S21           -1.4227    -2.2107    -0.9374 S.3     
  22 F22            5.4045    -0.7521    -5.0050 F       
  23 H23            1.6560     2.8163    -0.0852 H       
  24 H24            3.1468     0.6119     0.0900 H       
  25 H25            1.1298    -3.4088    -1.6286 H       
  26 H26            1.2425    -2.0418    -3.8713 H       
  27 H27            4.3168    -2.2686    -0.9076 H       
  28 H28            5.9440    -1.3940    -2.5343 H       
  29 H29            2.8606    -1.9575    -6.5250 H       
  30 H30            1.7083    -0.7631    -5.8817 H       
  31 H31            3.3710    -0.2697    -6.2819 H       
  32 H32           -2.4033     0.4091     1.3145 H       
  33 H33           -4.2872    -1.2767     1.0107 H       
  34 H34           -3.7325    -3.1930    -0.5551 H       
@<TRIPOS>BOND
   1    1    2 1
   2    1    5 2
   3    1   23 1
   4    2    3 2
   5    2   24 1
   6    3    4 1
   7    3    7 1
   8    4    5 1
   9    4    6 1
  10    6   18 2
  11    6   21 1
  12    7    8 am
  13    7   11 2
  14    7   12 2
  15    8    9 1
  16    8   25 1
  17    9   13 ar
  18    9   10 ar
  19   10   16 ar
  20   10   26 1
  21   13   14 ar
  22   13   27 1
  23   14   15 ar
  24   14   28 1
  25   15   16 ar
  26   15   22 1
  27   16   17 1
  28   17   29 1
  29   17   30 1
  30   17   31 1
  31   18   19 1
  32   18   32 1
  33   19   20 2
  34   19   33 1
  35   20   21 1
  36   20   34 1

#	End of record

