#	Name: ASD01912997
#	Creating user name:	WinNT
#	Creation time:	15. 06. 2019 20:00

#	Modifying user name:	WinNT
#	Modification time:	15. 06. 2019 20:00

#	Program:	/corina/corina34_cracker 3.40 0067  02.08.2006

@<TRIPOS>MOLECULE
ASD01912997
  38   40    0    0    0
SMALL
NO_CHARGES


@<TRIPOS>ATOM
   1 C1            -0.0173     1.4278     0.0099 C.2     
   2 C2             0.0021    -0.0041     0.0020 C.1     
   3 C3             0.0180    -1.1779    -0.0044 C.1     
   4 C4             0.0374    -2.6098    -0.0123 C.ar    
   5 C5            -1.1616    -3.3287    -0.0047 C.ar    
   6 C6             1.2554    -3.2957    -0.0335 C.ar    
   7 C7             1.2660    -4.6747    -0.0414 C.ar    
   8 C8             0.0750    -5.3794    -0.0290 C.ar    
   9 C9            -1.1348    -4.7074    -0.0129 C.ar    
  10 N10            1.0300     2.1958     0.0040 N.2     
  11 C11            0.8339     3.5118     0.0125 C.2     
  12 C12           -0.4550     3.8790     0.0264 C.2     
  13 S13           -1.4640     2.4293     0.0214 S.3     
  14 C14            1.6961     4.7665     0.0108 C.3     
  15 N15            0.7996     5.9236     0.0250 N.am    
  16 C16           -0.5637     5.3869     0.0350 C.3     
  17 S17            1.2387     7.5204     0.0290 S.o2    
  18 O18            0.1445     8.1831     0.6478 O.2     
  19 O19            2.5299     7.5273     0.6223 O.2     
  20 C20            1.3423     7.9657    -1.7264 C.3     
  21 C21            1.8649     9.3975    -1.8593 C.3     
  22 C22            2.2964     7.0062    -2.4405 C.3     
  23 H23           -2.1064    -2.8056     0.0078 H       
  24 H24            2.1856    -2.7471    -0.0439 H       
  25 H25            2.2061    -5.2060    -0.0578 H       
  26 H26            0.0896    -6.4593    -0.0360 H       
  27 H27           -2.0601    -5.2642    -0.0032 H       
  28 H28            2.3305     4.7799     0.8971 H       
  29 H29            2.3139     4.7889    -0.8869 H       
  30 H30           -1.1012     5.7246    -0.8510 H       
  31 H31           -1.0846     5.7156     0.9343 H       
  32 H32            0.3525     7.8968    -2.1778 H       
  33 H33            2.8546     9.4664    -1.4080 H       
  34 H34            1.9272     9.6651    -2.9142 H       
  35 H35            1.1852    10.0811    -1.3506 H       
  36 H36            1.9241     5.9862    -2.3458 H       
  37 H37            2.3586     7.2738    -3.4953 H       
  38 H38            3.2861     7.0751    -1.9892 H       
@<TRIPOS>BOND
   1    1    2 1
   2    1   10 2
   3    1   13 1
   4    2    3 3
   5    3    4 1
   6    4    5 ar
   7    4    6 ar
   8    5    9 ar
   9    5   23 1
  10    6    7 ar
  11    6   24 1
  12    7    8 ar
  13    7   25 1
  14    8    9 ar
  15    8   26 1
  16    9   27 1
  17   10   11 1
  18   11   12 2
  19   11   14 1
  20   12   13 1
  21   12   16 1
  22   14   15 1
  23   14   28 1
  24   14   29 1
  25   15   16 1
  26   15   17 am
  27   16   30 1
  28   16   31 1
  29   17   18 2
  30   17   19 2
  31   17   20 1
  32   20   21 1
  33   20   22 1
  34   20   32 1
  35   21   33 1
  36   21   34 1
  37   21   35 1
  38   22   36 1
  39   22   37 1
  40   22   38 1

#	End of record

