#	Name: ASD01140296
#	Creating user name:	WinNT
#	Creation time:	15. 06. 2019 19:00

#	Modifying user name:	WinNT
#	Modification time:	15. 06. 2019 19:00

#	Program:	/corina/corina34_cracker 3.40 0067  02.08.2006

@<TRIPOS>MOLECULE
ASD01140296
  62   65    0    0    0
SMALL
NO_CHARGES


@<TRIPOS>ATOM
   1 C1             0.1548     1.0797    -2.2008 C.ar    
   2 C2             0.2752    -0.3027    -2.3677 C.ar    
   3 C3             1.4651    -0.9447    -2.0246 C.ar    
   4 C4             2.5191    -0.1999    -1.5207 C.ar    
   5 C5             2.4071     1.1974    -1.3905 C.ar    
   6 C6             1.2112     1.8212    -1.7159 C.ar    
   7 C7             3.7809    -0.8567    -1.0720 C.2     
   8 N8             4.8911    -0.4490    -1.5809 N.2     
   9 C9             5.0129     0.7049    -2.4654 C.3     
  10 C10            4.8269     1.9860    -1.6623 C.3     
  11 N11            3.5125     1.9109    -0.9779 N.pl3   
  12 C12            3.6872     2.5221     0.2363 C.2     
  13 C13            5.8006     2.1679    -0.5019 C.3     
  14 N14            4.9208     2.6609     0.5759 N.2     
  15 S15            3.7433     0.6122    -3.7577 S.3     
  16 C16            3.7574    -1.9459    -0.0695 C.ar    
  17 C17            4.9315    -2.6349     0.2460 C.ar    
  18 C18            2.5644    -2.2854     0.5683 C.ar    
  19 C19            2.5486    -3.3013     1.5015 C.ar    
  20 C20            3.7129    -3.9841     1.8068 C.ar    
  21 C21            4.9012    -3.6509     1.1832 C.ar    
  22 C22           -0.8225    -1.0596    -2.8900 C.1     
  23 C23           -1.7224    -1.6801    -3.3183 C.1     
  24 F24            6.0926    -2.3094    -0.3631 F       
  25 C25            4.6875     0.1073    -5.2220 C.3     
  26 Si26          -3.1788    -2.6844    -4.0114 Si      
  27 C27           -2.7021    -4.4827    -4.1099 C.3     
  28 C28           -4.6542    -2.4936    -2.8900 C.3     
  29 C29           -3.6081    -2.0616    -5.7139 C.3     
  30 C30            6.4303     0.8531    -0.1201 C.2     
  31 O31            5.8122     0.0587     0.5482 O.2     
  32 O32            7.6780     0.5646    -0.5224 O.3     
  33 C33            8.2696    -0.6584    -0.0099 C.3     
  34 C34            9.7313    -0.7429    -0.4541 C.3     
  35 H35           -0.7716     1.5716    -2.4578 H       
  36 H36            1.5638    -2.0128    -2.1503 H       
  37 H37            1.1077     2.8888    -1.5894 H       
  38 H38            6.0005     0.7059    -2.9268 H       
  39 H39            4.8529     2.8495    -2.3270 H       
  40 H40            2.8652     2.8569     0.8515 H       
  41 H41            6.5631     2.9069    -0.7482 H       
  42 H42            1.6545    -1.7536     0.3324 H       
  43 H43            1.6250    -3.5643     1.9955 H       
  44 H44            3.6941    -4.7783     2.5385 H       
  45 H45            5.8064    -4.1877     1.4259 H       
  46 H46            5.4509     0.8548    -5.4376 H       
  47 H47            5.1640    -0.8546    -5.0331 H       
  48 H48            4.0149     0.0183    -6.0751 H       
  49 H49           -2.4509    -4.8470    -3.1138 H       
  50 H50           -3.5376    -5.0588    -4.5075 H       
  51 H51           -1.8388    -4.5943    -4.7660 H       
  52 H52           -4.9331    -1.4415    -2.8324 H       
  53 H53           -5.4897    -3.0697    -3.2876 H       
  54 H54           -4.4030    -2.8580    -1.8939 H       
  55 H55           -2.7449    -2.1732    -6.3700 H       
  56 H56           -4.4437    -2.6377    -6.1116 H       
  57 H57           -3.8871    -1.0095    -5.6563 H       
  58 H58            8.2203    -0.6573     1.0789 H       
  59 H59            7.7218    -1.5172    -0.3977 H       
  60 H60            9.7807    -0.7439    -1.5430 H       
  61 H61           10.2791     0.1160    -0.0664 H       
  62 H62           10.1755    -1.6610    -0.0694 H       
@<TRIPOS>BOND
   1    1    2 ar
   2    1    6 ar
   3    1   35 1
   4    2    3 ar
   5    2   22 1
   6    3    4 ar
   7    3   36 1
   8    4    5 ar
   9    4    7 1
  10    5    6 ar
  11    5   11 1
  12    6   37 1
  13    7    8 2
  14    7   16 1
  15    8    9 1
  16    9   10 1
  17    9   15 1
  18    9   38 1
  19   10   11 1
  20   10   13 1
  21   10   39 1
  22   11   12 1
  23   12   14 2
  24   12   40 1
  25   13   14 1
  26   13   30 1
  27   13   41 1
  28   15   25 1
  29   16   17 ar
  30   16   18 ar
  31   17   24 1
  32   17   21 ar
  33   18   19 ar
  34   18   42 1
  35   19   20 ar
  36   19   43 1
  37   20   21 ar
  38   20   44 1
  39   21   45 1
  40   22   23 3
  41   23   26 1
  42   25   46 1
  43   25   47 1
  44   25   48 1
  45   26   27 1
  46   26   28 1
  47   26   29 1
  48   27   49 1
  49   27   50 1
  50   27   51 1
  51   28   52 1
  52   28   53 1
  53   28   54 1
  54   29   55 1
  55   29   56 1
  56   29   57 1
  57   30   31 2
  58   30   32 1
  59   32   33 1
  60   33   34 1
  61   33   58 1
  62   33   59 1
  63   34   60 1
  64   34   61 1
  65   34   62 1

#	End of record

