#	Name: ASD01913857
#	Creating user name:	WinNT
#	Creation time:	15. 06. 2019 20:02

#	Modifying user name:	WinNT
#	Modification time:	15. 06. 2019 20:02

#	Program:	/corina/corina34_cracker 3.40 0067  02.08.2006

@<TRIPOS>MOLECULE
ASD01913857
  43   46    0    0    0
SMALL
NO_CHARGES


@<TRIPOS>ATOM
   1 C1            -0.0235     1.4277    -0.0311 C.ar    
   2 C2            -0.0023    -0.0041    -0.0268 C.1     
   3 C3             0.0150    -1.1780    -0.0232 C.1     
   4 C4             0.0362    -2.6098    -0.0189 C.ar    
   5 C5            -1.1340    -3.3385     0.2417 C.ar    
   6 C6             0.1560    -5.3344    -0.0290 C.ar    
   7 N7             1.2426    -4.6187    -0.2772 N.ar    
   8 C8             1.2208    -3.3021    -0.2797 C.ar    
   9 C9            -1.0632    -4.7171     0.2343 C.ar    
  10 C10            1.1463     2.1464    -0.2915 C.ar    
  11 C11            1.1183     3.5253    -0.2939 C.ar    
  12 C12           -1.2280     3.4922     0.2136 C.ar    
  13 C13           -1.2153     2.1131     0.2194 C.ar    
  14 C14           -0.0643     4.1972    -0.0389 C.ar    
  15 N15            0.2331    -6.7250    -0.0390 N.am    
  16 C16           -0.8140    -7.5604    -0.0348 C.2     
  17 N17           -0.4748    -8.8561    -0.0465 N.am    
  18 C18            0.9911    -8.9717    -0.0609 C.3     
  19 C19            1.4768    -7.5092    -0.0621 C.3     
  20 O20           -1.9677    -7.1772    -0.0211 O.2     
  21 C21            1.4842    -9.7058     1.1877 C.3     
  22 C22            1.0121   -11.1467     1.3926 C.3     
  23 C23            2.4601   -10.8667     0.9854 C.3     
  24 C24           -1.4150    -9.9797    -0.0452 C.3     
  25 H25           -2.0671    -2.8334     0.4434 H       
  26 H26            2.1273    -2.7524    -0.4858 H       
  27 H27           -1.9441    -5.3101     0.4311 H       
  28 H28            2.0701     1.6234    -0.4900 H       
  29 H29            2.0216     4.0821    -0.4950 H       
  30 H30           -2.1483     4.0232     0.4070 H       
  31 H31           -2.1243     1.5641     0.4166 H       
  32 H32           -0.0802     5.2770    -0.0418 H       
  33 H33            1.3257    -9.4829    -0.9636 H       
  34 H34            2.0523    -7.2980    -0.9634 H       
  35 H35            2.0696    -7.3022     0.8289 H       
  36 H36            1.6141    -9.0876     2.0759 H       
  37 H37            0.8319   -11.4765     2.4158 H       
  38 H38            0.3503   -11.5716     0.6380 H       
  39 H39            2.7509   -11.1074    -0.0371 H       
  40 H40            3.2325   -11.0123     1.7406 H       
  41 H41           -2.4362    -9.5989    -0.0336 H       
  42 H42           -1.2620   -10.5824    -0.9404 H       
  43 H43           -1.2461   -10.5937     0.8394 H       
@<TRIPOS>BOND
   1    1    2 1
   2    1   10 ar
   3    1   13 ar
   4    2    3 3
   5    3    4 1
   6    4    5 ar
   7    4    8 ar
   8    5    9 ar
   9    5   25 1
  10    6    7 ar
  11    6   15 1
  12    6    9 ar
  13    7    8 ar
  14    8   26 1
  15    9   27 1
  16   10   11 ar
  17   10   28 1
  18   11   14 ar
  19   11   29 1
  20   12   13 ar
  21   12   14 ar
  22   12   30 1
  23   13   31 1
  24   14   32 1
  25   15   16 am
  26   15   19 1
  27   16   17 am
  28   16   20 2
  29   17   18 1
  30   17   24 1
  31   18   19 1
  32   18   21 1
  33   18   33 1
  34   19   34 1
  35   19   35 1
  36   21   22 1
  37   21   23 1
  38   21   36 1
  39   22   23 1
  40   22   37 1
  41   22   38 1
  42   23   39 1
  43   23   40 1
  44   24   41 1
  45   24   42 1
  46   24   43 1

#	End of record

