#	Name: ASD01883471
#	Creating user name:	WinNT
#	Creation time:	15. 06. 2019 19:46

#	Modifying user name:	WinNT
#	Modification time:	15. 06. 2019 19:46

#	Program:	/corina/corina34_cracker 3.40 0067  02.08.2006

@<TRIPOS>MOLECULE
ASD01883471
  55   58    0    0    0
SMALL
NO_CHARGES


@<TRIPOS>ATOM
   1 N1            -0.0161     1.3416     0.0135 N.am    
   2 C2            -0.0057     0.0081    -0.1691 C.2     
   3 C3            -1.2228    -0.7136    -0.1679 C.2     
   4 C4            -2.4239    -0.0108     0.0261 C.2     
   5 C5            -2.3696     1.3830     0.2116 C.2     
   6 C6            -1.1777     2.0190     0.2060 C.2     
   7 O7             1.0510    -0.5772    -0.3357 O.2     
   8 C8            -1.2302    -2.1325    -0.3612 C.1     
   9 N9            -1.2361    -3.2581    -0.5144 N.1     
  10 N10           -3.6309    -0.6732     0.0341 N.pl3   
  11 C11           -4.6460    -0.3917    -0.9901 C.3     
  12 C12           -5.9650    -0.0419    -0.2940 C.3     
  13 C13           -6.3418    -1.1678     0.6717 C.3     
  14 C14           -5.2551    -1.3111     1.7398 C.3     
  15 C15           -3.9258    -1.6793     1.0633 C.3     
  16 C16            1.2513     2.0764     0.0105 C.3     
  17 C17            1.5766     2.5263    -1.4152 C.3     
  18 C18           -7.6562    -0.8429     1.3333 C.ar    
  19 C19           -8.7356    -1.6929     1.1805 C.ar    
  20 C20           -9.9414    -1.3949     1.7874 C.ar    
  21 C21          -10.0676    -0.2471     2.5473 C.ar    
  22 C22           -8.9879     0.6024     2.7009 C.ar    
  23 C23           -7.7810     0.3021     2.0976 C.ar    
  24 C24            2.9010     3.2942    -1.4186 C.3     
  25 C25            3.2497     3.6889    -2.8570 C.3     
  26 C26            3.3079     2.4258    -3.7216 C.3     
  27 C27            1.9677     1.6915    -3.6292 C.3     
  28 O28            1.6894     1.3810    -2.2624 O.3     
  29 H29           -3.2803     1.9438     0.3621 H       
  30 H30           -1.1485     3.0890     0.3494 H       
  31 H31           -4.3226     0.4490    -1.6038 H       
  32 H32           -4.7861    -1.2721    -1.6174 H       
  33 H33           -5.8479     0.8891     0.2607 H       
  34 H34           -6.7505     0.0752    -1.0405 H       
  35 H35           -6.4345    -2.1034     0.1202 H       
  36 H36           -5.1447    -0.3681     2.2752 H       
  37 H37           -5.5353    -2.0974     2.4407 H       
  38 H38           -4.0096    -2.6648     0.6052 H       
  39 H39           -3.1276    -1.6858     1.8056 H       
  40 H40            1.1663     2.9500     0.6567 H       
  41 H41            2.0476     1.4289     0.3777 H       
  42 H42            0.7802     3.1735    -1.7828 H       
  43 H43           -8.6370    -2.5896     0.5868 H       
  44 H44          -10.7849    -2.0586     1.6674 H       
  45 H45          -11.0098    -0.0139     3.0209 H       
  46 H46           -9.0867     1.4993     3.2944 H       
  47 H47           -6.9374     0.9658     2.2176 H       
  48 H48            2.8031     4.1919    -0.8081 H       
  49 H49            3.6902     2.6611    -1.0132 H       
  50 H50            2.4856     4.3621    -3.2458 H       
  51 H51            4.2190     4.1871    -2.8736 H       
  52 H52            3.5010     2.7024    -4.7581 H       
  53 H53            4.1053     1.7751    -3.3626 H       
  54 H54            1.1765     2.3277    -4.0259 H       
  55 H55            2.0178     0.7695    -4.2085 H       
@<TRIPOS>BOND
   1    1    2 am
   2    1   16 1
   3    1    6 1
   4    2    3 1
   5    2    7 2
   6    3    4 2
   7    3    8 1
   8    4    5 1
   9    4   10 1
  10    5    6 2
  11    5   29 1
  12    6   30 1
  13    8    9 3
  14   10   11 1
  15   10   15 1
  16   11   12 1
  17   11   31 1
  18   11   32 1
  19   12   13 1
  20   12   33 1
  21   12   34 1
  22   13   14 1
  23   13   18 1
  24   13   35 1
  25   14   15 1
  26   14   36 1
  27   14   37 1
  28   15   38 1
  29   15   39 1
  30   16   17 1
  31   16   40 1
  32   16   41 1
  33   17   24 1
  34   17   28 1
  35   17   42 1
  36   18   19 ar
  37   18   23 ar
  38   19   20 ar
  39   19   43 1
  40   20   21 ar
  41   20   44 1
  42   21   22 ar
  43   21   45 1
  44   22   23 ar
  45   22   46 1
  46   23   47 1
  47   24   25 1
  48   24   48 1
  49   24   49 1
  50   25   26 1
  51   25   50 1
  52   25   51 1
  53   26   27 1
  54   26   52 1
  55   26   53 1
  56   27   28 1
  57   27   54 1
  58   27   55 1

#	End of record

