#	Name: ASD08178417
#	Creating user name:	WinNT
#	Creation time:	15. 06. 2019 21:18

#	Modifying user name:	WinNT
#	Modification time:	15. 06. 2019 21:18

#	Program:	/corina/corina34_cracker 3.40 0067  02.08.2006

@<TRIPOS>MOLECULE
ASD08178417
  64   67    0    0    0
SMALL
NO_CHARGES


@<TRIPOS>ATOM
   1 C1            -4.0274    -3.8142     2.1801 C.ar    
   2 C2            -4.1762    -2.5072     1.7554 C.ar    
   3 C3            -5.2421    -1.7511     2.2058 C.ar    
   4 C4            -6.1596    -2.3022     3.0807 C.ar    
   5 C5            -6.0114    -3.6095     3.5048 C.ar    
   6 C6            -4.9446    -4.3652     3.0554 C.ar    
   7 C7            -3.1759    -1.9064     0.8016 C.3     
   8 C8            -3.6233    -2.1524    -0.6163 C.2     
   9 N9            -2.8792    -1.7015    -1.6456 N.am    
  10 O10           -4.6530    -2.7561    -0.8311 O.2     
  11 C11           -3.2348    -2.0209    -2.9555 C.ar    
  12 C12           -2.5328    -1.4696    -4.0256 C.ar    
  13 N13           -4.2379    -2.8542    -3.1883 N.ar    
  14 N14           -4.5961    -3.1741    -4.3785 N.ar    
  15 C15           -3.9913    -2.6960    -5.4482 C.ar    
  16 C16           -2.9252    -1.8193    -5.3086 C.ar    
  17 C17           -4.4541    -3.1068    -6.8223 C.3     
  18 C18           -4.4430    -4.6330    -6.9292 C.3     
  19 C19           -4.9130    -5.0499    -8.3243 C.3     
  20 C20           -4.9019    -6.5762    -8.4312 C.3     
  21 C21           -5.3648    -6.9869    -9.8052 C.2     
  22 N22           -4.6114    -7.1644   -10.8438 N.2     
  23 N23           -5.1920    -7.5098   -11.9103 N.2     
  24 C24           -6.4821    -7.6560   -11.8745 C.2     
  25 S25           -7.0289    -7.3196   -10.2862 S.3     
  26 N26           -7.2857    -8.0293   -12.9465 N.am    
  27 C27           -6.7321    -8.2737   -14.1507 C.2     
  28 C28           -7.6028    -8.6782   -15.3122 C.3     
  29 O29           -5.5331    -8.1681   -14.2996 O.2     
  30 C30           -6.7452    -8.8904   -16.5331 C.ar    
  31 C31           -6.9588    -8.1312   -17.6683 C.ar    
  32 C32           -6.1721    -8.3258   -18.7882 C.ar    
  33 C33           -5.1714    -9.2794   -18.7726 C.ar    
  34 C34           -4.9571   -10.0379   -17.6370 C.ar    
  35 C35           -5.7410    -9.8403   -16.5157 C.ar    
  36 C36           -8.3359    -9.9773   -14.9720 C.3     
  37 H37           -3.1971    -4.4063     1.8246 H       
  38 H38           -5.3579    -0.7297     1.8746 H       
  39 H39           -6.9920    -1.7113     3.4332 H       
  40 H40           -6.7278    -4.0399     4.1888 H       
  41 H41           -4.8290    -5.3867     3.3864 H       
  42 H42           -3.1040    -0.8333     0.9789 H       
  43 H43           -2.2008    -2.3669     0.9600 H       
  44 H44           -2.0963    -1.1547    -1.4751 H       
  45 H45           -1.7090    -0.7908    -3.8607 H       
  46 H46           -2.4186    -1.4179    -6.1738 H       
  47 H47           -5.4661    -2.7381    -6.9901 H       
  48 H48           -3.7849    -2.6851    -7.5723 H       
  49 H49           -3.4311    -5.0016    -6.7614 H       
  50 H50           -5.1123    -5.0546    -6.1793 H       
  51 H51           -5.9249    -4.6813    -8.4920 H       
  52 H52           -4.2437    -4.6283    -9.0742 H       
  53 H53           -3.8899    -6.9448    -8.2634 H       
  54 H54           -5.5712    -6.9978    -7.6812 H       
  55 H55           -8.2447    -8.1137   -12.8274 H       
  56 H56           -8.3308    -7.8918   -15.5118 H       
  57 H57           -7.7407    -7.3862   -17.6805 H       
  58 H58           -6.3396    -7.7332   -19.6754 H       
  59 H59           -4.5572    -9.4319   -19.6478 H       
  60 H60           -4.1755   -10.7831   -17.6250 H       
  61 H61           -5.5736   -10.4329   -15.6285 H       
  62 H62           -8.9563    -9.8238   -14.0889 H       
  63 H63           -8.9658   -10.2699   -15.8121 H       
  64 H64           -7.6080   -10.7637   -14.7724 H       
@<TRIPOS>BOND
   1    1    2 ar
   2    1    6 ar
   3    1   37 1
   4    2    3 ar
   5    2    7 1
   6    3    4 ar
   7    3   38 1
   8    4    5 ar
   9    4   39 1
  10    5    6 ar
  11    5   40 1
  12    6   41 1
  13    7    8 1
  14    7   42 1
  15    7   43 1
  16    8    9 am
  17    8   10 2
  18    9   11 1
  19    9   44 1
  20   11   12 ar
  21   11   13 ar
  22   12   16 ar
  23   12   45 1
  24   13   14 ar
  25   14   15 ar
  26   15   16 ar
  27   15   17 1
  28   16   46 1
  29   17   18 1
  30   17   47 1
  31   17   48 1
  32   18   19 1
  33   18   49 1
  34   18   50 1
  35   19   20 1
  36   19   51 1
  37   19   52 1
  38   20   21 1
  39   20   53 1
  40   20   54 1
  41   21   22 2
  42   21   25 1
  43   22   23 1
  44   23   24 2
  45   24   25 1
  46   24   26 1
  47   26   27 am
  48   26   55 1
  49   27   28 1
  50   27   29 2
  51   28   30 1
  52   28   36 1
  53   28   56 1
  54   30   31 ar
  55   30   35 ar
  56   31   32 ar
  57   31   57 1
  58   32   33 ar
  59   32   58 1
  60   33   34 ar
  61   33   59 1
  62   34   35 ar
  63   34   60 1
  64   35   61 1
  65   36   62 1
  66   36   63 1
  67   36   64 1

#	End of record

