#	Name: ASD01230115
#	Creating user name:	WinNT
#	Creation time:	15. 06. 2019 19:11

#	Modifying user name:	WinNT
#	Modification time:	15. 06. 2019 19:11

#	Program:	/corina/corina34_cracker 3.40 0067  02.08.2006

@<TRIPOS>MOLECULE
ASD01230115
  53   56    0    0    0
SMALL
NO_CHARGES


@<TRIPOS>ATOM
   1 C1            -0.0183     1.3339     0.1415 C.2     
   2 C2             0.0041     0.0063    -0.1330 C.2     
   3 C3            -1.1802    -0.8649    -0.3247 C.ar    
   4 C4            -1.1561    -1.9175    -1.2451 C.ar    
   5 N5             1.2831     1.7498     0.2171 N.pl3   
   6 C6             2.0696     0.6575     0.0155 C.2     
   7 N7             1.2935    -0.3816    -0.2007 N.2     
   8 C8            -2.3498    -0.6601     0.4139 C.ar    
   9 C9            -3.4281    -1.4938     0.2040 C.ar    
  10 N10           -3.3657    -2.4730    -0.6784 N.ar    
  11 C11           -2.2798    -2.7035    -1.3920 C.ar    
  12 C12            3.5482     0.6419     0.0360 C.ar    
  13 C13            4.2265    -0.4984     0.4579 C.ar    
  14 C14           -4.6946    -1.2841     0.9934 C.3     
  15 C15            4.2646     1.7699    -0.3734 C.ar    
  16 C16            5.6428     1.7609    -0.3573 C.ar    
  17 C17            6.3293     0.6320     0.0661 C.ar    
  18 C18            5.6203    -0.5077     0.4749 C.ar    
  19 C19           -1.2251     2.2091     0.3524 C.3     
  20 C20           -0.8635     3.6518    -0.0144 C.3     
  21 O21           -0.2945     4.3049     1.1197 O.3     
  22 C22            0.9079     3.7161     1.6133 C.3     
  23 C23            1.7137     3.1302     0.4504 C.3     
  24 C24           -2.2694    -3.8370    -2.3850 C.3     
  25 C25            1.7427     4.7836     2.3236 C.3     
  26 F26            1.0575     5.2332     3.4575 F       
  27 O27            7.6858     0.6282     0.0797 O.3     
  28 C28            8.3422     1.8207    -0.3552 C.3     
  29 F29            7.9611     2.8883     0.4646 F       
  30 F30            9.7280     1.6449    -0.2778 F       
  31 F31            7.9803     2.0963    -1.6782 F       
  32 C32            6.3259    -1.6743     0.9129 C.1     
  33 N33            6.8856    -2.5998     1.2603 N.1     
  34 H34           -0.2708    -2.1117    -1.8324 H       
  35 H35           -2.4076     0.1389     1.1383 H       
  36 H36            3.6747    -1.3723     0.7712 H       
  37 H37           -5.3490    -0.5986     0.4549 H       
  38 H38           -5.2013    -2.2398     1.1280 H       
  39 H39           -4.4496    -0.8623     1.9681 H       
  40 H40            3.7362     2.6519    -0.7042 H       
  41 H41            6.1903     2.6356    -0.6757 H       
  42 H42           -2.0412     1.8646    -0.2828 H       
  43 H43           -1.5303     2.1640     1.3979 H       
  44 H44           -0.1421     3.6487    -0.8315 H       
  45 H45           -1.7626     4.1833    -0.3262 H       
  46 H46            0.6600     2.9227     2.3184 H       
  47 H47            2.7750     3.1439     0.6988 H       
  48 H48            1.5408     3.7227    -0.4480 H       
  49 H49           -2.6115    -3.4741    -3.3542 H       
  50 H50           -1.2562    -4.2274    -2.4802 H       
  51 H51           -2.9331    -4.6293    -2.0388 H       
  52 H52            2.6998     4.3566     2.6231 H       
  53 H53            1.9140     5.6207     1.6469 H       
@<TRIPOS>BOND
   1    1    2 2
   2    1    5 1
   3    1   19 1
   4    2    3 1
   5    2    7 1
   6    3    4 ar
   7    3    8 ar
   8    4   11 ar
   9    4   34 1
  10    5    6 1
  11    5   23 1
  12    6    7 2
  13    6   12 1
  14    8    9 ar
  15    8   35 1
  16    9   10 ar
  17    9   14 1
  18   10   11 ar
  19   11   24 1
  20   12   15 ar
  21   12   13 ar
  22   13   18 ar
  23   13   36 1
  24   14   37 1
  25   14   38 1
  26   14   39 1
  27   15   16 ar
  28   15   40 1
  29   16   17 ar
  30   16   41 1
  31   17   27 1
  32   17   18 ar
  33   18   32 1
  34   19   20 1
  35   19   42 1
  36   19   43 1
  37   20   21 1
  38   20   44 1
  39   20   45 1
  40   21   22 1
  41   22   23 1
  42   22   25 1
  43   22   46 1
  44   23   47 1
  45   23   48 1
  46   24   49 1
  47   24   50 1
  48   24   51 1
  49   25   26 1
  50   25   52 1
  51   25   53 1
  52   27   28 1
  53   28   29 1
  54   28   30 1
  55   28   31 1
  56   32   33 3

#	End of record

