#	Name: ASD01840237
#	Creating user name:	WinNT
#	Creation time:	15. 06. 2019 19:37

#	Modifying user name:	WinNT
#	Modification time:	15. 06. 2019 19:37

#	Program:	/corina/corina34_cracker 3.40 0067  02.08.2006

@<TRIPOS>MOLECULE
ASD01840237
  43   46    0    0    0
SMALL
NO_CHARGES


@<TRIPOS>ATOM
   1 C1             0.7271     1.4046    -0.2773 C.3     
   2 N2             0.5604    -0.0497    -0.2179 N.am    
   3 C3             0.3058    -0.7247    -1.3533 C.2     
   4 O4             0.2182    -0.1214    -2.4073 O.2     
   5 C5             0.1336    -2.1786    -1.3326 C.2     
   6 C6            -0.1332    -3.1416    -2.3236 C.2     
   7 C7            -0.1857    -4.3578    -1.7078 C.2     
   8 C8            -0.4408    -5.6418    -2.3714 C.2     
   9 O9            -0.3658    -6.6789    -1.7392 O.2     
  10 N10           -0.7583    -5.6723    -3.6809 N.am    
  11 C11           -0.9052    -6.9572    -4.3692 C.3     
  12 C12           -1.7590    -6.7912    -5.6499 C.3     
  13 C13           -0.6740    -6.6748    -6.7506 C.3     
  14 O14            0.3500    -7.5936    -6.3127 O.3     
  15 C15            0.4597    -7.4511    -4.8866 C.3     
  16 N16            0.0413    -4.1812    -0.3571 N.pl3   
  17 C17            0.0669    -5.2462     0.6486 C.3     
  18 C18            0.2373    -2.8611    -0.1131 C.2     
  19 C19            0.5168    -2.0823     1.0999 C.ar    
  20 C20            0.6307    -2.7123     2.3416 C.ar    
  21 C21            0.8936    -1.9632     3.4670 C.ar    
  22 C22            1.0449    -0.5880     3.3720 C.ar    
  23 C23            0.9349     0.0480     2.1539 C.ar    
  24 C24            0.6749    -0.6892     1.0029 C.ar    
  25 H25            1.7765     1.6432    -0.4505 H       
  26 H26            0.1240     1.8065    -1.0914 H       
  27 H27            0.4050     1.8461     0.6658 H       
  28 H28           -0.2711    -2.9524    -3.3779 H       
  29 H29           -0.8894    -4.8436    -4.1676 H       
  30 H30           -1.3514    -7.6965    -3.7040 H       
  31 H31           -2.3877    -7.6664    -5.8144 H       
  32 H32           -2.3620    -5.8845    -5.6007 H       
  33 H33           -1.0743    -6.9787    -7.7178 H       
  34 H34           -0.2829    -5.6585    -6.7981 H       
  35 H35            1.2334    -6.7222    -4.6453 H       
  36 H36            0.7008    -8.4136    -4.4354 H       
  37 H37            1.0972    -5.5556     0.8241 H       
  38 H38           -0.3653    -4.8777     1.5790 H       
  39 H39           -0.5123    -6.0975     0.2911 H       
  40 H40            0.5127    -3.7831     2.4188 H       
  41 H41            0.9819    -2.4488     4.4276 H       
  42 H42            1.2505    -0.0098     4.2607 H       
  43 H43            1.0540     1.1197     2.0924 H       
@<TRIPOS>BOND
   1    1    2 1
   2    1   25 1
   3    1   26 1
   4    1   27 1
   5    2   24 1
   6    2    3 am
   7    3    4 2
   8    3    5 1
   9    5   18 2
  10    5    6 1
  11    6    7 2
  12    6   28 1
  13    7    8 1
  14    7   16 1
  15    8    9 2
  16    8   10 am
  17   10   11 1
  18   10   29 1
  19   11   15 1
  20   11   12 1
  21   11   30 1
  22   12   13 1
  23   12   31 1
  24   12   32 1
  25   13   14 1
  26   13   33 1
  27   13   34 1
  28   14   15 1
  29   15   35 1
  30   15   36 1
  31   16   17 1
  32   16   18 1
  33   17   37 1
  34   17   38 1
  35   17   39 1
  36   18   19 1
  37   19   24 ar
  38   19   20 ar
  39   20   21 ar
  40   20   40 1
  41   21   22 ar
  42   21   41 1
  43   22   23 ar
  44   22   42 1
  45   23   24 ar
  46   23   43 1

#	End of record

