#	Name: ASD01883280
#	Creating user name:	WinNT
#	Creation time:	15. 06. 2019 19:46

#	Modifying user name:	WinNT
#	Modification time:	15. 06. 2019 19:46

#	Program:	/corina/corina34_cracker 3.40 0067  02.08.2006

@<TRIPOS>MOLECULE
ASD01883280
  61   64    0    0    0
SMALL
NO_CHARGES


@<TRIPOS>ATOM
   1 N1            -0.0162     1.3417     0.0094 N.am    
   2 C2             0.0021    -0.0041     0.0020 C.2     
   3 C3            -1.2159    -0.7274     0.0102 C.2     
   4 C4            -2.4262    -0.0109     0.0261 C.2     
   5 C5            -2.3786     1.3974     0.0332 C.2     
   6 C6            -1.1851     2.0327     0.0299 C.2     
   7 O7             1.0657    -0.6000    -0.0122 O.2     
   8 C8            -1.2149    -2.1593     0.0021 C.1     
   9 N9            -1.2142    -3.2953    -0.0044 N.1     
  10 C10            1.2513     2.0763     0.0013 C.3     
  11 C11            1.6788     2.3398    -1.4440 C.3     
  12 C12            3.0025     3.1070    -1.4525 C.3     
  13 C13            3.4930     3.2617    -2.8935 C.3     
  14 C14            2.7940     4.4905    -0.8334 C.3     
  15 C15           -3.7215    -0.7207     0.0347 C.ar    
  16 C16           -4.5704    -0.6152     1.1398 C.ar    
  17 C17           -5.7770    -1.2779     1.1448 C.ar    
  18 C18           -6.1515    -2.0529     0.0510 C.ar    
  19 C19           -5.3080    -2.1603    -1.0509 C.ar    
  20 C20           -4.1031    -1.4946    -1.0647 C.ar    
  21 N21           -7.3720    -2.7222     0.0593 N.3     
  22 C22           -7.5671    -3.4771    -1.1864 C.3     
  23 C23           -8.8797    -4.2600    -1.1050 C.3     
  24 N24           -9.9913    -3.3257    -0.8792 N.3     
  25 C25           -9.7961    -2.5708     0.3665 C.3     
  26 C26           -8.4836    -1.7878     0.2851 C.3     
  27 C27          -11.2115    -3.9948    -0.8709 C.ar    
  28 C28          -12.4059    -3.3025    -0.6723 C.ar    
  29 C29          -13.5938    -4.0027    -0.6711 C.ar    
  30 N30          -13.6092    -5.3098    -0.8545 N.ar    
  31 C31          -12.5007    -6.0005    -1.0456 C.ar    
  32 C32          -11.2723    -5.3744    -1.0667 C.ar    
  33 H33           -3.2949     1.9689     0.0450 H       
  34 H34           -1.1610     3.1124     0.0354 H       
  35 H35            1.1243     3.0257     0.5214 H       
  36 H36            2.0168     1.4857     0.5046 H       
  37 H37            1.8057     1.3903    -1.9642 H       
  38 H38            0.9133     2.9303    -1.9474 H       
  39 H39            3.7445     2.5577    -0.8731 H       
  40 H40            2.7510     3.8109    -3.4729 H       
  41 H41            4.4361     3.8082    -2.8995 H       
  42 H42            3.6415     2.2760    -3.3345 H       
  43 H43            2.0520     5.0398    -1.4129 H       
  44 H44            2.4446     4.3803     0.1931 H       
  45 H45            3.7371     5.0371    -0.8395 H       
  46 H46           -4.2801    -0.0146     1.9891 H       
  47 H47           -6.4335    -1.1968     1.9985 H       
  48 H48           -5.6012    -2.7627    -1.8980 H       
  49 H49           -3.4492    -1.5781    -1.9201 H       
  50 H50           -7.6077    -2.7856    -2.0280 H       
  51 H51           -6.7379    -4.1708    -1.3249 H       
  52 H52           -9.0408    -4.7979    -2.0393 H       
  53 H53           -8.8287    -4.9707    -0.2801 H       
  54 H54          -10.6254    -1.8771     0.5051 H       
  55 H55           -9.7555    -3.2622     1.2082 H       
  56 H56           -8.3224    -1.2500     1.2194 H       
  57 H57           -8.5346    -1.0772    -0.5398 H       
  58 H58          -12.4004    -2.2332    -0.5212 H       
  59 H59          -14.5235    -3.4750    -0.5177 H       
  60 H60          -12.5570    -7.0692    -1.1916 H       
  61 H61          -10.3692    -5.9455    -1.2239 H       
@<TRIPOS>BOND
   1    1    2 am
   2    1   10 1
   3    1    6 1
   4    2    3 1
   5    2    7 2
   6    3    4 2
   7    3    8 1
   8    4    5 1
   9    4   15 1
  10    5    6 2
  11    5   33 1
  12    6   34 1
  13    8    9 3
  14   10   11 1
  15   10   35 1
  16   10   36 1
  17   11   12 1
  18   11   37 1
  19   11   38 1
  20   12   13 1
  21   12   14 1
  22   12   39 1
  23   13   40 1
  24   13   41 1
  25   13   42 1
  26   14   43 1
  27   14   44 1
  28   14   45 1
  29   15   16 ar
  30   15   20 ar
  31   16   17 ar
  32   16   46 1
  33   17   18 ar
  34   17   47 1
  35   18   19 ar
  36   18   21 1
  37   19   20 ar
  38   19   48 1
  39   20   49 1
  40   21   22 1
  41   21   26 1
  42   22   23 1
  43   22   50 1
  44   22   51 1
  45   23   24 1
  46   23   52 1
  47   23   53 1
  48   24   25 1
  49   24   27 1
  50   25   26 1
  51   25   54 1
  52   25   55 1
  53   26   56 1
  54   26   57 1
  55   27   28 ar
  56   27   32 ar
  57   28   29 ar
  58   28   58 1
  59   29   30 ar
  60   29   59 1
  61   30   31 ar
  62   31   32 ar
  63   31   60 1
  64   32   61 1

#	End of record

