#	Name: ASD03930206
#	Creating user name:	WinNT
#	Creation time:	15. 06. 2019 20:47

#	Modifying user name:	WinNT
#	Modification time:	15. 06. 2019 20:47

#	Program:	/corina/corina34_cracker 3.40 0067  02.08.2006

@<TRIPOS>MOLECULE
ASD03930206
  34   36    0    0    0
SMALL
NO_CHARGES


@<TRIPOS>ATOM
   1 C1             5.5503     2.2451     2.9845 C.1     
   2 C2             5.1478     2.6470     1.6703 C.ar    
   3 C3             3.9064     3.2536     1.4728 C.ar    
   4 C4             3.5245     3.6399     0.1991 C.ar    
   5 C5             4.3750     3.4232    -0.8773 C.ar    
   6 C6             5.6046     2.8220    -0.6833 C.ar    
   7 C7             5.9982     2.4386     0.5827 C.ar    
   8 N8             5.8695     1.9263     4.0271 N.1     
   9 O9             2.3168     4.2309     0.0022 O.3     
  10 S10            4.7347     8.7188     0.6363 S.o2    
  11 N11            4.5220     9.4697     2.1090 N.am    
  12 C12            3.5621    10.5635     2.2218 C.3     
  13 C13            2.1303    10.1293     1.9474 C.3     
  14 O14            1.9725     9.6865     0.5941 O.3     
  15 C15            2.0722     8.3475     0.3965 C.ar    
  16 C16            3.2970     7.6955     0.4345 C.ar    
  17 C17            0.9249     7.5953     0.1692 C.ar    
  18 C18            1.0151     6.2247     0.0297 C.ar    
  19 C19            2.2424     5.5838     0.1143 C.ar    
  20 C20            3.3971     6.3344     0.3151 C.ar    
  21 O21            4.6583     9.7333    -0.3558 O.2     
  22 O22            5.8445     7.8429     0.7794 O.2     
  23 H23            3.2458     3.4209     2.3106 H       
  24 H24            4.0744     3.7251    -1.8697 H       
  25 H25            6.2611     2.6556    -1.5245 H       
  26 H26            6.9614     1.9733     0.7313 H       
  27 H27            5.0307     9.1825     2.8834 H       
  28 H28            3.6167    10.9755     3.2295 H       
  29 H29            3.8344    11.3438     1.5111 H       
  30 H30            1.8685     9.3146     2.6226 H       
  31 H31            1.4612    10.9706     2.1282 H       
  32 H32           -0.0363     8.0831     0.1017 H       
  33 H33            0.1208     5.6454    -0.1463 H       
  34 H34            4.3604     5.8498     0.3757 H       
@<TRIPOS>BOND
   1    1    2 1
   2    1    8 3
   3    2    3 ar
   4    2    7 ar
   5    3    4 ar
   6    3   23 1
   7    4    5 ar
   8    4    9 1
   9    5    6 ar
  10    5   24 1
  11    6    7 ar
  12    6   25 1
  13    7   26 1
  14    9   19 1
  15   10   11 am
  16   10   16 1
  17   10   21 2
  18   10   22 2
  19   11   12 1
  20   11   27 1
  21   12   13 1
  22   12   28 1
  23   12   29 1
  24   13   14 1
  25   13   30 1
  26   13   31 1
  27   14   15 1
  28   15   16 ar
  29   15   17 ar
  30   16   20 ar
  31   17   18 ar
  32   17   32 1
  33   18   19 ar
  34   18   33 1
  35   19   20 ar
  36   20   34 1

#	End of record

