#	Name: ASD05130011
#	Creating user name:	WinNT
#	Creation time:	15. 06. 2019 20:56

#	Modifying user name:	WinNT
#	Modification time:	15. 06. 2019 20:56

#	Program:	/corina/corina34_cracker 3.40 0067  02.08.2006

@<TRIPOS>MOLECULE
ASD05130011
  64   67    0    0    0
SMALL
NO_CHARGES


@<TRIPOS>ATOM
   1 N1            -0.6657     0.8989     0.4072 N.am    
   2 C2            -0.8166    -0.4365     0.3053 C.2     
   3 O3            -1.9153    -0.9093     0.0873 O.2     
   4 N4             0.2504    -1.2479     0.4452 N.am    
   5 C5            -1.8256     1.7808     0.2552 C.3     
   6 C6             0.6571     1.4682     0.6760 C.3     
   7 N7             2.0852    -5.6894     0.5247 N.am    
   8 C8             1.8955    -7.0235     0.5278 C.2     
   9 C9             0.5393    -7.5762     0.4931 C.2     
  10 C10           -0.5341    -6.7288     0.4573 C.2     
  11 C11           -0.3085    -5.3315     0.4547 C.ar    
  12 C12           -1.3774    -4.4274     0.4183 C.ar    
  13 N13           -1.1501    -3.1321     0.4177 N.ar    
  14 C14            0.0787    -2.6288     0.4492 C.ar    
  15 C15            1.1937    -3.4522     0.4856 C.ar    
  16 C16            1.0110    -4.8308     0.4888 C.ar    
  17 O17            2.8555    -7.7727     0.5593 O.2     
  18 C18            3.4462    -5.1489     0.5658 C.3     
  19 C19            4.1072    -5.5317     1.8915 C.3     
  20 C20            4.2594    -5.7259    -0.5948 C.3     
  21 C21            0.3315    -9.0432     0.4961 C.ar    
  22 C22            0.5101    -9.7727     1.6727 C.ar    
  23 C23            0.3159   -11.1402     1.6735 C.ar    
  24 C24           -0.0556   -11.7906     0.5096 C.ar    
  25 C25           -0.2354   -11.0703    -0.6670 C.ar    
  26 C26           -0.0482    -9.6974    -0.6744 C.ar    
  27 N27           -0.6112   -11.7325    -1.8434 N.am    
  28 C28           -1.2753   -11.0666    -2.8088 C.2     
  29 O29           -1.4854    -9.8748    -2.6910 O.2     
  30 N30           -1.7065   -11.7218    -3.9048 N.am    
  31 C31           -2.5039   -11.0614    -4.8463 C.ar    
  32 C32           -2.5080   -11.4797    -6.1705 C.ar    
  33 C33           -3.2960   -10.8257    -7.0973 C.ar    
  34 C34           -4.0803    -9.7555    -6.7078 C.ar    
  35 C35           -4.0784    -9.3365    -5.3900 C.ar    
  36 C36           -3.2970    -9.9899    -4.4572 C.ar    
  37 F37           -0.2437   -13.1285     0.5161 F       
  38 Cl38           0.9766    -8.9613     3.1348 Cl      
  39 H39            1.1381    -0.8692     0.5430 H       
  40 H40           -2.2893     1.9423     1.2283 H       
  41 H41           -1.5034     2.7371    -0.1569 H       
  42 H42           -2.5472     1.3192    -0.4189 H       
  43 H43            1.1660     1.6660    -0.2674 H       
  44 H44            0.5458     2.3996     1.2310 H       
  45 H45            1.2437     0.7625     1.2642 H       
  46 H46           -1.5401    -7.1208     0.4311 H       
  47 H47           -2.3924    -4.7954     0.3919 H       
  48 H48            2.1875    -3.0300     0.5106 H       
  49 H49            3.4088    -4.0631     0.4786 H       
  50 H50            4.1446    -6.6176     1.9786 H       
  51 H51            5.1198    -5.1296     1.9221 H       
  52 H52            3.5279    -5.1207     2.7183 H       
  53 H53            3.7885    -5.4533    -1.5392 H       
  54 H54            5.2720    -5.3238    -0.5642 H       
  55 H55            4.2968    -6.8118    -0.5076 H       
  56 H56            0.4548   -11.7034     2.5845 H       
  57 H57           -0.1917    -9.1364    -1.5860 H       
  58 H58           -0.3933   -12.6701    -1.9629 H       
  59 H59           -1.4642   -12.6511    -4.0411 H       
  60 H60           -1.8954   -12.3153    -6.4753 H       
  61 H61           -3.2994   -11.1504    -8.1273 H       
  62 H62           -4.6954    -9.2456    -7.4345 H       
  63 H63           -4.6918    -8.5001    -5.0890 H       
  64 H64           -3.2996    -9.6652    -3.4272 H       
@<TRIPOS>BOND
   1    1    2 am
   2    1    5 1
   3    1    6 1
   4    2    3 2
   5    2    4 am
   6    4   14 1
   7    4   39 1
   8    5   40 1
   9    5   41 1
  10    5   42 1
  11    6   43 1
  12    6   44 1
  13    6   45 1
  14    7    8 am
  15    7   16 1
  16    7   18 1
  17    8    9 1
  18    8   17 2
  19    9   10 2
  20    9   21 1
  21   10   11 1
  22   10   46 1
  23   11   12 ar
  24   11   16 ar
  25   12   13 ar
  26   12   47 1
  27   13   14 ar
  28   14   15 ar
  29   15   16 ar
  30   15   48 1
  31   18   19 1
  32   18   20 1
  33   18   49 1
  34   19   50 1
  35   19   51 1
  36   19   52 1
  37   20   53 1
  38   20   54 1
  39   20   55 1
  40   21   22 ar
  41   21   26 ar
  42   22   23 ar
  43   22   38 1
  44   23   24 ar
  45   23   56 1
  46   24   25 ar
  47   24   37 1
  48   25   26 ar
  49   25   27 1
  50   26   57 1
  51   27   28 am
  52   27   58 1
  53   28   29 2
  54   28   30 am
  55   30   31 1
  56   30   59 1
  57   31   32 ar
  58   31   36 ar
  59   32   33 ar
  60   32   60 1
  61   33   34 ar
  62   33   61 1
  63   34   35 ar
  64   34   62 1
  65   35   36 ar
  66   35   63 1
  67   36   64 1

#	End of record

