#	Name: ASD01840047
#	Creating user name:	WinNT
#	Creation time:	15. 06. 2019 19:37

#	Modifying user name:	WinNT
#	Modification time:	15. 06. 2019 19:37

#	Program:	/corina/corina34_cracker 3.40 0067  02.08.2006

@<TRIPOS>MOLECULE
ASD01840047
  47   51    0    0    0
SMALL
NO_CHARGES


@<TRIPOS>ATOM
   1 C1             1.1136     1.2954    -0.1411 C.ar    
   2 C2             1.2768    -0.0769    -0.1272 C.ar    
   3 N3             2.4585    -0.6133     0.1073 N.ar    
   4 C4             3.5240     0.1293     0.3362 C.ar    
   5 C5             3.4372     1.5086     0.3385 C.ar    
   6 C6             2.2112     2.1088     0.0954 C.ar    
   7 C7             2.0750     3.6096     0.0884 C.3     
   8 O8             1.7612     4.0656     1.4058 O.3     
   9 C9             1.6040     5.4016     1.5735 C.ar    
  10 C10            1.1449     7.2473     3.0045 C.ar    
  11 C11            1.3021     5.9041     2.8411 C.ar    
  12 N12            1.7437     6.2051     0.5397 N.ar    
  13 C13            1.6004     7.5294     0.6456 C.ar    
  14 C14            1.2918     8.1011     1.8850 C.ar    
  15 S15            1.7395     8.7815    -0.5825 S.3     
  16 C16            1.3850    10.0566     0.5660 C.2     
  17 C17            1.1730     9.5460     1.8117 C.2     
  18 C18            1.1008     5.1959     4.1633 C.3     
  19 C19            1.2274     6.3009     5.2347 C.3     
  20 C20            0.8245     7.5665     4.4462 C.3     
  21 C21            1.3258    11.4294     0.2438 C.2     
  22 C22            1.4307    11.8641    -1.1691 C.ar    
  23 O23            1.1883    12.2572     1.1271 O.2     
  24 N24            1.6236    12.6674    -3.7789 N.ar    
  25 C25            1.1154    11.4805    -3.5119 C.ar    
  26 C26            0.9995    11.0354    -2.2098 C.ar    
  27 C27            1.9583    13.1167    -1.4983 C.ar    
  28 C28            2.0372    13.4815    -2.8278 C.ar    
  29 N29            0.8774    10.3352     2.9101 N.pl3   
  30 H30            0.1442     1.7288    -0.3382 H       
  31 H31            0.4267    -0.7174    -0.3102 H       
  32 H32            4.4753    -0.3460     0.5244 H       
  33 H33            4.3132     2.1113     0.5274 H       
  34 H34            3.0135     4.0581    -0.2374 H       
  35 H35            1.2773     3.8988    -0.5958 H       
  36 H36            0.1105     4.7422     4.2027 H       
  37 H37            1.8710     4.4384     4.3080 H       
  38 H38            0.5384     6.1220     6.0602 H       
  39 H39            2.2537     6.3776     5.5939 H       
  40 H40            1.4070     8.4241     4.7828 H       
  41 H41           -0.2414     7.7622     4.5630 H       
  42 H42            0.7888    10.8462    -4.3227 H       
  43 H43            0.5825    10.0619    -1.9984 H       
  44 H44            2.2985    13.7888    -0.7244 H       
  45 H45            2.4474    14.4449    -3.0924 H       
  46 H46            0.7394     9.9256     3.7785 H       
  47 H47            0.8084    11.2977     2.8113 H       
@<TRIPOS>BOND
   1    1    2 ar
   2    1    6 ar
   3    1   30 1
   4    2    3 ar
   5    2   31 1
   6    3    4 ar
   7    4    5 ar
   8    4   32 1
   9    5    6 ar
  10    5   33 1
  11    6    7 1
  12    7    8 1
  13    7   34 1
  14    7   35 1
  15    8    9 1
  16    9   12 ar
  17    9   11 ar
  18   10   14 ar
  19   10   20 1
  20   10   11 ar
  21   11   18 1
  22   12   13 ar
  23   13   15 1
  24   13   14 ar
  25   14   17 1
  26   15   16 1
  27   16   17 2
  28   16   21 1
  29   17   29 1
  30   18   19 1
  31   18   36 1
  32   18   37 1
  33   19   20 1
  34   19   38 1
  35   19   39 1
  36   20   40 1
  37   20   41 1
  38   21   22 1
  39   21   23 2
  40   22   27 ar
  41   22   26 ar
  42   24   25 ar
  43   24   28 ar
  44   25   26 ar
  45   25   42 1
  46   26   43 1
  47   27   28 ar
  48   27   44 1
  49   28   45 1
  50   29   46 1
  51   29   47 1

#	End of record

