#	Name: ASD05513045
#	Creating user name:	WinNT
#	Creation time:	15. 06. 2019 21:01

#	Modifying user name:	WinNT
#	Modification time:	15. 06. 2019 21:01

#	Program:	/corina/corina34_cracker 3.40 0067  02.08.2006

@<TRIPOS>MOLECULE
ASD05513045
  31   33    0    0    0
SMALL
NO_CHARGES


@<TRIPOS>ATOM
   1 C1            -0.0108     1.4058     0.4150 C.2     
   2 C2             0.0021    -0.0041     0.0020 C.2     
   3 C3             1.1832    -0.6673    -0.1155 C.2     
   4 C4             2.5227    -0.0874    -0.3457 C.ar    
   5 C5             3.4203    -1.1643    -0.3927 C.ar    
   6 N6             2.7250    -2.3552    -0.2081 N.am    
   7 C7             1.4106    -2.1346    -0.0339 C.2     
   8 C8             2.9809     1.2184    -0.5048 C.ar    
   9 C9             4.3257     1.4512    -0.7097 C.ar    
  10 C10            5.2147     0.3901    -0.7567 C.ar    
  11 C11            4.7704    -0.9083    -0.6003 C.ar    
  12 O12            0.5598    -2.9825     0.1490 O.2     
  13 O13            1.0190     1.9434     0.7753 O.2     
  14 C14           -1.2738     2.1725     0.3867 C.ar    
  15 C15           -2.4622     1.5687    -0.0304 C.ar    
  16 N16           -3.5873     2.2523    -0.0554 N.ar    
  17 C17           -3.6410     3.5198     0.3073 C.ar    
  18 C18           -2.5075     4.1904     0.7326 C.ar    
  19 C19           -1.3009     3.5164     0.7836 C.ar    
  20 N20            4.8186     2.8366    -0.8799 N.pl3   
  21 O21            4.0374     3.7702    -0.8392 O.2     
  22 O22            6.0053     3.0429    -1.0608 O.2     
  23 H23           -0.9266    -0.5137    -0.2082 H       
  24 H24            3.1372    -3.2333    -0.2020 H       
  25 H25            2.2868     2.0450    -0.4684 H       
  26 H26            6.2656     0.5798    -0.9177 H       
  27 H27            5.4742    -1.7267    -0.6385 H       
  28 H28           -2.4582     0.5327    -0.3353 H       
  29 H29           -4.5852     4.0428     0.2713 H       
  30 H30           -2.5655     5.2281     1.0264 H       
  31 H31           -0.4010     4.0153     1.1116 H       
@<TRIPOS>BOND
   1    1    2 1
   2    1   13 2
   3    1   14 1
   4    2    3 2
   5    2   23 1
   6    3    4 1
   7    3    7 1
   8    4    5 ar
   9    4    8 ar
  10    5    6 1
  11    5   11 ar
  12    6    7 am
  13    6   24 1
  14    7   12 2
  15    8    9 ar
  16    8   25 1
  17    9   10 ar
  18    9   20 1
  19   10   11 ar
  20   10   26 1
  21   11   27 1
  22   14   15 ar
  23   14   19 ar
  24   15   16 ar
  25   15   28 1
  26   16   17 ar
  27   17   18 ar
  28   17   29 1
  29   18   19 ar
  30   18   30 1
  31   19   31 1
  32   20   21 2
  33   20   22 2

#	End of record

