#	Name: ASD05430170
#	Creating user name:	WinNT
#	Creation time:	15. 06. 2019 20:59

#	Modifying user name:	WinNT
#	Modification time:	15. 06. 2019 20:59

#	Program:	/corina/corina34_cracker 3.40 0067  02.08.2006

@<TRIPOS>MOLECULE
ASD05430170
  65   71    0    0    0
SMALL
NO_CHARGES


@<TRIPOS>ATOM
   1 C1            -0.0168     1.3883     0.0097 C.ar    
   2 C2             0.0021    -0.0041     0.0020 C.ar    
   3 C3            -1.1916    -0.7102     0.0101 C.ar    
   4 C4            -2.3954    -0.0319     0.0257 C.ar    
   5 C5            -2.4137     1.3509     0.0329 C.ar    
   6 C6            -1.2281     2.0614     0.0307 C.ar    
   7 C7            -4.2401     0.8778    -2.2169 C.3     
   8 C8            -4.6879     1.8427    -1.1169 C.3     
   9 C9            -3.7297     2.0850     0.0494 C.3     
  10 C10           -4.2428     1.5680    -3.5756 C.3     
  11 C11           -4.0285     3.0797    -3.5191 C.3     
  12 N12           -5.1023     3.6735    -2.7215 N.pl3   
  13 C13           -5.5262     3.0067    -1.5861 C.2     
  14 C14           -5.7249     4.9473    -3.0784 C.3     
  15 C15           -7.2219     4.8561    -2.7610 C.3     
  16 O16           -7.4070     4.4248    -1.4165 O.3     
  17 N17           -6.5953     3.3615    -0.9768 N.2     
  18 C18           -5.1020     6.0600    -2.2753 C.ar    
  19 C19           -4.8403     7.2794    -2.8717 C.ar    
  20 C20           -4.7981     5.8624    -0.9412 C.ar    
  21 C21           -4.2277     6.8823    -0.2035 C.ar    
  22 C22           -3.9603     8.1023    -0.8012 C.ar    
  23 C23           -4.2696     8.3006    -2.1362 C.ar    
  24 O24            1.1502     2.0857     0.0023 O.3     
  25 N25            1.2260    -0.6911    -0.0143 N.pl3   
  26 C26            1.0540     3.5114     0.0109 C.3     
  27 F27           -3.4027     9.1001    -0.0810 F       
  28 C28           -4.9987     1.2560     0.2602 C.3     
  29 C29           -3.3530     0.8692    -4.6168 C.3     
  30 O30           -4.4522     1.0776    -5.5269 O.3     
  31 C31           -5.4266     1.1575    -4.4667 C.3     
  32 C32            2.2649    -0.4693    -0.8601 C.2     
  33 C33            1.6004    -1.7085     0.8244 C.2     
  34 C34            2.8445    -2.0752     0.4618 C.2     
  35 N35            3.2251    -1.3036    -0.5671 N.2     
  36 C36            3.6681    -3.1618     1.1036 C.3     
  37 H37           -1.1803    -1.7902     0.0038 H       
  38 H38           -3.3242    -0.5829     0.0320 H       
  39 H39           -1.2458     3.1412     0.0362 H       
  40 H40           -3.2329     0.5246    -1.9960 H       
  41 H41           -4.9199     0.0263    -2.2457 H       
  42 H42           -3.7044     3.0858     0.4805 H       
  43 H43           -3.0659     3.2958    -3.0556 H       
  44 H44           -4.0522     3.4906    -4.5284 H       
  45 H45           -5.5859     5.1389    -4.1424 H       
  46 H46           -7.6803     5.8362    -2.8931 H       
  47 H47           -7.6928     4.1433    -3.4379 H       
  48 H48           -5.0816     7.4338    -3.9130 H       
  49 H49           -5.0068     4.9107    -0.4753 H       
  50 H50           -3.9910     6.7280     0.8388 H       
  51 H51           -4.0611     9.2517    -2.6035 H       
  52 H52            0.5084     3.8441    -0.8722 H       
  53 H53            0.5254     3.8346     0.9077 H       
  54 H54            2.0548     3.9432     0.0036 H       
  55 H55           -5.8085     1.7114     0.8302 H       
  56 H56           -4.8815     0.1798     0.3869 H       
  57 H57           -2.4539     1.4286    -4.8754 H       
  58 H58           -3.1559    -0.1798    -4.3959 H       
  59 H59           -5.8677     0.1971    -4.1996 H       
  60 H60           -6.1673     1.9448    -4.6066 H       
  61 H61            2.2919     0.2727    -1.6444 H       
  62 H62            1.0110    -2.1341     1.6231 H       
  63 H63            3.4732    -4.1097     0.6019 H       
  64 H64            4.7263    -2.9153     1.0163 H       
  65 H65            3.4004    -3.2464     2.1569 H       
@<TRIPOS>BOND
   1    1    2 ar
   2    1   24 1
   3    1    6 ar
   4    2    3 ar
   5    2   25 1
   6    3    4 ar
   7    3   37 1
   8    4    5 ar
   9    4   38 1
  10    5    6 ar
  11    5    9 1
  12    6   39 1
  13    7    8 1
  14    7   10 1
  15    7   40 1
  16    7   41 1
  17    8    9 1
  18    8   28 1
  19    8   13 1
  20    9   28 1
  21    9   42 1
  22   10   11 1
  23   10   29 1
  24   10   31 1
  25   11   12 1
  26   11   43 1
  27   11   44 1
  28   12   13 1
  29   12   14 1
  30   13   17 2
  31   14   15 1
  32   14   18 1
  33   14   45 1
  34   15   16 1
  35   15   46 1
  36   15   47 1
  37   16   17 1
  38   18   19 ar
  39   18   20 ar
  40   19   23 ar
  41   19   48 1
  42   20   21 ar
  43   20   49 1
  44   21   22 ar
  45   21   50 1
  46   22   23 ar
  47   22   27 1
  48   23   51 1
  49   24   26 1
  50   25   32 1
  51   25   33 1
  52   26   52 1
  53   26   53 1
  54   26   54 1
  55   28   55 1
  56   28   56 1
  57   29   30 1
  58   29   57 1
  59   29   58 1
  60   30   31 1
  61   31   59 1
  62   31   60 1
  63   32   35 2
  64   32   61 1
  65   33   34 2
  66   33   62 1
  67   34   35 1
  68   34   36 1
  69   36   63 1
  70   36   64 1
  71   36   65 1

#	End of record

