#	Name: ASD01140662
#	Creating user name:	WinNT
#	Creation time:	15. 06. 2019 19:01

#	Modifying user name:	WinNT
#	Modification time:	15. 06. 2019 19:01

#	Program:	/corina/corina34_cracker 3.40 0067  02.08.2006

@<TRIPOS>MOLECULE
ASD01140662
  69   74    0    0    0
SMALL
NO_CHARGES


@<TRIPOS>ATOM
   1 C1            -0.2605     2.0901     0.0840 C.3     
   2 C2            -0.1182     0.5761     0.2523 C.3     
   3 C3             0.7162     0.0105    -0.8985 C.3     
   4 C4             2.1026     0.6585    -0.8916 C.3     
   5 C5             1.9555     2.1723    -1.0650 C.3     
   6 C6             1.1262     2.7370     0.0909 C.3     
   7 C7             2.9335     0.0927    -2.0453 C.3     
   8 C8             2.2307     0.3874    -3.3722 C.3     
   9 C9             2.0843     1.8995    -3.5466 C.3     
  10 C10            1.2465     2.4628    -2.3884 C.3     
  11 C11            1.3409     2.2131    -4.8315 C.3     
  12 C12            1.3127     3.7590    -4.9739 C.3     
  13 C13            0.3857     4.2973    -3.9019 C.3     
  14 C14            1.0173     3.9625    -2.5401 C.3     
  15 C15            2.0409     1.7948    -6.1289 C.3     
  16 C16            1.3944     2.7281    -7.1888 C.3     
  17 C17            0.8770     3.9695    -6.4202 C.3     
  18 C18            1.4995     5.2245    -6.9758 C.2     
  19 C19            0.7848     6.5442    -6.8395 C.3     
  20 O20            2.5711     5.1725    -7.5301 O.2     
  21 N21            1.5903     7.6016    -7.4554 N.pl3   
  22 C22            1.1606     8.4388    -8.4111 C.2     
  23 C23            2.2001     9.2857    -8.7314 C.ar    
  24 C24            3.3361     8.8960    -7.8762 C.ar    
  25 N25            2.9208     7.8916    -7.1291 N.2     
  26 C26            2.3948    10.3590    -9.6298 C.ar    
  27 C27            3.6058    10.9705    -9.6591 C.ar    
  28 N28            4.6137    10.5999    -8.8775 N.ar    
  29 C29            4.5382     9.6200    -8.0126 C.ar    
  30 H30           -0.2097     4.0266    -6.4827 H       
  31 C31            2.7205     4.3229    -4.7710 C.3     
  32 H32            0.3318     1.8026    -4.7953 H       
  33 H33            3.0690     2.3668    -3.5501 H       
  34 H34            0.2753     1.9680    -2.3832 H       
  35 H35            2.9417     2.6365    -1.0667 H       
  36 H36            2.5987     0.4470     0.0557 H       
  37 C37            0.5760     0.2739     1.5819 C.3     
  38 O38           -1.4132    -0.0279     0.2433 O.3     
  39 H39           -0.7571     2.3053    -0.8621 H       
  40 H40           -0.8533     2.4928     0.9053 H       
  41 H41            0.8187    -1.0678    -0.7770 H       
  42 H42            0.2204     0.2237    -1.8455 H       
  43 H43            1.0248     3.8158    -0.0274 H       
  44 H44            1.6242     2.5196     1.0358 H       
  45 H45            3.9194     0.5575    -2.0452 H       
  46 H46            3.0399    -0.9851    -1.9221 H       
  47 H47            2.8213    -0.0176    -4.1939 H       
  48 H48            1.2439    -0.0755    -3.3713 H       
  49 H49            0.2839     5.3774    -4.0079 H       
  50 H50           -0.5917     3.8221    -3.9842 H       
  51 H51            0.3540     4.3042    -1.7455 H       
  52 H52            1.9727     4.4800    -2.4530 H       
  53 H53            3.1144     1.9720    -6.0624 H       
  54 H54            1.8350     0.7494    -6.3585 H       
  55 H55            2.1384     3.0281    -7.9267 H       
  56 H56            0.5646     2.2190    -7.6792 H       
  57 H57           -0.1824     6.4868    -7.3388 H       
  58 H58            0.6358     6.7694    -5.7835 H       
  59 H59            0.1747     8.4476    -8.8520 H       
  60 H60            1.5965    10.6856   -10.2797 H       
  61 H61            3.7562    11.7907   -10.3454 H       
  62 H62            5.3944     9.3672    -7.4048 H       
  63 H63            3.3946     3.8923    -5.5115 H       
  64 H64            2.6981     5.4065    -4.8866 H       
  65 H65            3.0718     4.0714    -3.7702 H       
  66 H66           -0.0187     0.6764     2.4020 H       
  67 H67            0.6774    -0.8047     1.7019 H       
  68 H68            1.5638     0.7348     1.5891 H       
  69 H69           -1.9975     0.2839     0.9479 H       
@<TRIPOS>BOND
   1    1    2 1
   2    1    6 1
   3    1   39 1
   4    1   40 1
   5    2    3 1
   6    2   37 1
   7    2   38 1
   8    3    4 1
   9    3   41 1
  10    3   42 1
  11    4    5 1
  12    4    7 1
  13    4   36 1
  14    5    6 1
  15    5   10 1
  16    5   35 1
  17    6   43 1
  18    6   44 1
  19    7    8 1
  20    7   45 1
  21    7   46 1
  22    8    9 1
  23    8   47 1
  24    8   48 1
  25    9   10 1
  26    9   33 1
  27    9   11 1
  28   10   34 1
  29   10   14 1
  30   11   15 1
  31   11   32 1
  32   11   12 1
  33   12   13 1
  34   12   31 1
  35   12   17 1
  36   13   14 1
  37   13   49 1
  38   13   50 1
  39   14   51 1
  40   14   52 1
  41   15   16 1
  42   15   53 1
  43   15   54 1
  44   16   17 1
  45   16   55 1
  46   16   56 1
  47   17   18 1
  48   17   30 1
  49   18   19 1
  50   18   20 2
  51   19   21 1
  52   19   57 1
  53   19   58 1
  54   21   22 1
  55   21   25 1
  56   22   23 2
  57   22   59 1
  58   23   24 ar
  59   23   26 ar
  60   24   25 2
  61   24   29 ar
  62   26   27 ar
  63   26   60 1
  64   27   28 ar
  65   27   61 1
  66   28   29 ar
  67   29   62 1
  68   31   63 1
  69   31   64 1
  70   31   65 1
  71   37   66 1
  72   37   67 1
  73   37   68 1
  74   38   69 1

#	End of record

