#	Name: ASD01001259
#	Creating user name:	WinNT
#	Creation time:	15. 06. 2019 18:55

#	Modifying user name:	WinNT
#	Modification time:	15. 06. 2019 18:55

#	Program:	/corina/corina34_cracker 3.40 0067  02.08.2006

@<TRIPOS>MOLECULE
ASD01001259
  45   48    0    0    0
SMALL
NO_CHARGES


@<TRIPOS>ATOM
   1 C1            -0.0491     1.4207     0.5037 C.ar    
   2 C2            -0.0471     0.0619     0.7527 C.ar    
   3 C3             1.1412    -0.5915     1.0392 C.ar    
   4 C4             2.3314     0.1108     1.0780 C.ar    
   5 C5             2.3432     1.4709     0.8311 C.ar    
   6 C6             1.1488     2.1356     0.5412 C.ar    
   7 C7             1.1541     3.5900     0.2757 C.2     
   8 S8            -0.2517     4.6092    -0.1090 S.3     
   9 C9             0.6951     6.1655    -0.2604 C.3     
  10 N10            2.0671     5.7257     0.0137 N.am    
  11 N11            2.1825     4.3771     0.2823 N.2     
  12 F12           -1.2060    -0.6315     0.7172 F       
  13 F13            3.5070     2.1560     0.8702 F       
  14 C14            3.1212     6.5655     0.0089 C.2     
  15 O15            2.9423     7.7657    -0.0746 O.2     
  16 N16            4.3736     6.0753     0.0968 N.am    
  17 O17            4.5819     4.6781     0.1940 O.3     
  18 C18            5.5195     6.9882     0.0916 C.3     
  19 C19            4.7267     4.0229    -1.0676 C.3     
  20 C20            0.5645     6.7226    -1.6711 C.3     
  21 C21            1.1136     8.1564    -1.6786 C.3     
  22 O22            0.3055     8.9553    -0.8135 O.3     
  23 C23            0.0592     8.4931     0.4396 C.ar    
  24 C24            0.2259     7.1557     0.7640 C.ar    
  25 C25           -0.3707     9.3903     1.4110 C.ar    
  26 C26           -0.6322     8.9531     2.6934 C.ar    
  27 C27           -0.4671     7.6182     3.0145 C.ar    
  28 C28           -0.0401     6.7241     2.0527 C.ar    
  29 H29           -0.9750     1.9278     0.2761 H       
  30 H30            1.1372    -1.6539     1.2335 H       
  31 H31            3.2539    -0.4042     1.3019 H       
  32 H32            5.7570     7.2789     1.1149 H       
  33 H33            6.3801     6.4885    -0.3532 H       
  34 H34            5.2739     7.8762    -0.4907 H       
  35 H35            5.5833     4.4396    -1.5973 H       
  36 H36            4.8826     2.9561    -0.9072 H       
  37 H37            3.8246     4.1730    -1.6607 H       
  38 H38            1.1379     6.1063    -2.3636 H       
  39 H39           -0.4845     6.7296    -1.9674 H       
  40 H40            2.1433     8.1561    -1.3212 H       
  41 H41            1.0743     8.5583    -2.6911 H       
  42 H42           -0.5001    10.4330     1.1610 H       
  43 H43           -0.9651     9.6528     3.4456 H       
  44 H44           -0.6720     7.2749     4.0178 H       
  45 H45            0.0875     5.6823     2.3071 H       
@<TRIPOS>BOND
   1    1    2 ar
   2    1    6 ar
   3    1   29 1
   4    2    3 ar
   5    2   12 1
   6    3    4 ar
   7    3   30 1
   8    4    5 ar
   9    4   31 1
  10    5    6 ar
  11    5   13 1
  12    6    7 1
  13    7    8 1
  14    7   11 2
  15    8    9 1
  16    9   10 1
  17    9   20 1
  18    9   24 1
  19   10   11 1
  20   10   14 am
  21   14   15 2
  22   14   16 am
  23   16   17 1
  24   16   18 1
  25   17   19 1
  26   18   32 1
  27   18   33 1
  28   18   34 1
  29   19   35 1
  30   19   36 1
  31   19   37 1
  32   20   21 1
  33   20   38 1
  34   20   39 1
  35   21   22 1
  36   21   40 1
  37   21   41 1
  38   22   23 1
  39   23   24 ar
  40   23   25 ar
  41   24   28 ar
  42   25   26 ar
  43   25   42 1
  44   26   27 ar
  45   26   43 1
  46   27   28 ar
  47   27   44 1
  48   28   45 1

#	End of record

