#	Name: ASD04590224
#	Creating user name:	WinNT
#	Creation time:	15. 06. 2019 20:50

#	Modifying user name:	WinNT
#	Modification time:	15. 06. 2019 20:50

#	Program:	/corina/corina34_cracker 3.40 0067  02.08.2006

@<TRIPOS>MOLECULE
ASD04590224
  60   63    0    0    0
SMALL
NO_CHARGES


@<TRIPOS>ATOM
   1 N1            -0.0153     1.2802     0.0091 N.pl3   
   2 N2             0.0021    -0.0041     0.0020 N.2     
   3 C3             1.2455    -0.4440    -0.0122 C.2     
   4 C4             2.0903     0.6961    -0.0142 C.2     
   5 C5             1.2523     1.7667    -0.0004 C.2     
   6 C6             1.6765    -1.8547    -0.0235 C.2     
   7 N7             0.7571    -2.8402    -0.0200 N.am    
   8 N8             3.4930     0.7146    -0.0275 N.am    
   9 O9             2.8611    -2.1284    -0.0359 O.2     
  10 C10            4.1514     1.8906    -0.0274 C.2     
  11 C11            5.6264     1.9101    -0.0414 C.ar    
  12 O12            3.5296     2.9356    -0.0159 O.2     
  13 C13            1.1851    -4.2412    -0.0312 C.3     
  14 C14            1.9146    -6.1628     1.3892 C.3     
  15 C15            1.4676    -4.6996     1.4009 C.3     
  16 C16            6.3414     1.9129     1.1612 C.ar    
  17 C17            7.7233     1.9313     1.1389 C.ar    
  18 C18            8.3992     1.9473    -0.0677 C.ar    
  19 C19            7.7004     1.9452    -1.2612 C.ar    
  20 C20            6.3184     1.9201    -1.2574 C.ar    
  21 F21            5.6831     1.8982     2.3408 F       
  22 F22            5.6376     1.9176    -2.4243 F       
  23 C23            0.0782    -5.1078    -0.6351 C.3     
  24 C24            0.5252    -6.5710    -0.6468 C.3     
  25 C25            0.8077    -7.0294     0.7853 C.3     
  26 N26            1.2368    -8.4343     0.7741 N.3     
  27 C27            1.5177    -8.9101     2.1359 C.3     
  28 C28            1.8836   -10.3954     2.0891 C.3     
  29 C29            2.4053    -8.6211    -0.0974 C.3     
  30 N30            3.0520   -10.5822     1.2176 N.3     
  31 C31            2.7712   -10.1065    -0.1441 C.3     
  32 C32            3.4812   -11.9871     1.2064 C.3     
  33 H33           -0.8184     1.8242     0.0160 H       
  34 H34            1.5405     2.8076     0.0024 H       
  35 H35           -0.1879    -2.6218    -0.0102 H       
  36 H36            3.9890    -0.1189    -0.0367 H       
  37 H37            2.0908    -4.3397    -0.6296 H       
  38 H38            2.8203    -6.2613     0.7908 H       
  39 H39            2.1159    -6.4894     2.4095 H       
  40 H40            2.2562    -4.0822     1.8311 H       
  41 H41            0.5619    -4.6012     1.9993 H       
  42 H42            8.2768     1.9335     2.0662 H       
  43 H43            9.4791     1.9620    -0.0779 H       
  44 H44            8.2361     1.9585    -2.1989 H       
  45 H45           -0.8276    -5.0094    -0.0367 H       
  46 H46           -0.1231    -4.7812    -1.6554 H       
  47 H47           -0.2634    -7.1884    -1.0770 H       
  48 H48            1.4309    -6.6695    -1.2451 H       
  49 H49           -0.0981    -6.9310     1.3837 H       
  50 H50            2.3495    -8.3436     2.5547 H       
  51 H51            0.6337    -8.7727     2.7586 H       
  52 H52            2.1205   -10.7434     3.0946 H       
  53 H53            1.0417   -10.9651     1.6957 H       
  54 H54            2.1684    -8.2731    -1.1028 H       
  55 H55            3.2472    -8.0514     0.2960 H       
  56 H56            1.9394   -10.6729    -0.5629 H       
  57 H57            3.6552   -10.2438    -0.7669 H       
  58 H58            2.6676   -12.6126     0.8391 H       
  59 H59            4.3473   -12.0972     0.5539 H       
  60 H60            3.7471   -12.2939     2.2180 H       
@<TRIPOS>BOND
   1    1    2 1
   2    1    5 1
   3    1   33 1
   4    2    3 2
   5    3    4 1
   6    3    6 1
   7    4    5 2
   8    4    8 1
   9    5   34 1
  10    6    7 am
  11    6    9 2
  12    7   13 1
  13    7   35 1
  14    8   10 am
  15    8   36 1
  16   10   11 1
  17   10   12 2
  18   11   16 ar
  19   11   20 ar
  20   13   23 1
  21   13   15 1
  22   13   37 1
  23   14   15 1
  24   14   25 1
  25   14   38 1
  26   14   39 1
  27   15   40 1
  28   15   41 1
  29   16   17 ar
  30   16   21 1
  31   17   18 ar
  32   17   42 1
  33   18   19 ar
  34   18   43 1
  35   19   20 ar
  36   19   44 1
  37   20   22 1
  38   23   24 1
  39   23   45 1
  40   23   46 1
  41   24   25 1
  42   24   47 1
  43   24   48 1
  44   25   26 1
  45   25   49 1
  46   26   27 1
  47   26   29 1
  48   27   28 1
  49   27   50 1
  50   27   51 1
  51   28   30 1
  52   28   52 1
  53   28   53 1
  54   29   31 1
  55   29   54 1
  56   29   55 1
  57   30   31 1
  58   30   32 1
  59   31   56 1
  60   31   57 1
  61   32   58 1
  62   32   59 1
  63   32   60 1

#	End of record

