#	Name: ASD02198874
#	Creating user name:	WinNT
#	Creation time:	15. 06. 2019 20:20

#	Modifying user name:	WinNT
#	Modification time:	15. 06. 2019 20:20

#	Program:	/corina/corina34_cracker 3.40 0067  02.08.2006

@<TRIPOS>MOLECULE
ASD02198874
  49   53    0    0    0
SMALL
NO_CHARGES


@<TRIPOS>ATOM
   1 F1             3.3650     0.2895     3.1546 F       
   2 C2             0.4097     2.7445     0.4106 C.2     
   3 C3             0.5768     1.4652     0.8304 C.2     
   4 N4             1.8133     0.9324     0.9546 N.pl3   
   5 N5             2.8883     1.5793     0.6919 N.2     
   6 C6             2.8690     2.8275     0.2760 C.2     
   7 C7             1.5695     3.4979     0.1087 C.2     
   8 C8             1.9250    -0.3917     1.3922 C.ar    
   9 C9             2.7098    -0.6946     2.5008 C.ar    
  10 C10            2.8187    -2.0032     2.9321 C.ar    
  11 C11            2.1454    -3.0139     2.2592 C.ar    
  12 C12            1.3621    -2.7107     1.1525 C.ar    
  13 C13            1.2480    -1.4042     0.7237 C.ar    
  14 C14            4.1277     3.5426    -0.0168 C.2     
  15 N15            4.4584     4.1562    -1.1923 N.pl3   
  16 N16            5.7363     4.7086    -1.0404 N.2     
  17 C17            6.1673     4.4467     0.1678 C.2     
  18 C18            5.1871     3.7218     0.8455 C.2     
  19 C19            3.6622     4.2206    -2.3429 C.ar    
  20 C20            3.5552     5.4115    -3.0489 C.ar    
  21 C21            2.7697     5.4724    -4.1836 C.ar    
  22 C22            2.0901     4.3493    -4.6171 C.ar    
  23 C23            2.1944     3.1604    -3.9159 C.ar    
  24 C24            2.9830     3.0922    -2.7829 C.ar    
  25 O25            1.4949     4.6557    -0.2749 O.2     
  26 N26            2.2563    -4.3410     2.6963 N.pl3   
  27 N27            2.3363    -5.4755     1.8785 N.2     
  28 C28            2.4297    -6.5315     2.6457 C.2     
  29 C29            2.4129    -6.1122     3.9796 C.2     
  30 C30            2.3112    -4.7565     3.9899 C.2     
  31 O31            2.2638    -3.9633     5.0905 O.3     
  32 C32            2.4112    -4.6045     6.3591 C.3     
  33 F33            1.4141    -5.5741     6.5102 F       
  34 F34            3.6686    -5.2135     6.4305 F       
  35 Cl35           1.3393     1.7524    -4.4637 Cl      
  36 H36           -0.5763     3.1727     0.3059 H       
  37 H37           -0.2888     0.8649     1.0688 H       
  38 H38            3.4278    -2.2395     3.7921 H       
  39 H39            0.8388    -3.4977     0.6299 H       
  40 H40            0.6389    -1.1697    -0.1367 H       
  41 H41            7.1221     4.7461     0.5739 H       
  42 H42            5.2499     3.3605     1.8614 H       
  43 H43            4.0854     6.2896    -2.7110 H       
  44 H44            2.6861     6.3987    -4.7326 H       
  45 H45            1.4764     4.3997    -5.5044 H       
  46 H46            3.0646     2.1645    -2.2360 H       
  47 H47            2.5064    -7.5539     2.3061 H       
  48 H48            2.4739    -6.7517     4.8477 H       
  49 H49            2.3208    -3.8635     7.1534 H       
@<TRIPOS>BOND
   1    1    9 1
   2    2    3 2
   3    2    7 1
   4    2   36 1
   5    3    4 1
   6    3   37 1
   7    4    5 1
   8    4    8 1
   9    5    6 2
  10    6    7 1
  11    6   14 1
  12    7   25 2
  13    8    9 ar
  14    8   13 ar
  15    9   10 ar
  16   10   11 ar
  17   10   38 1
  18   11   12 ar
  19   11   26 1
  20   12   13 ar
  21   12   39 1
  22   13   40 1
  23   14   15 1
  24   14   18 2
  25   15   16 1
  26   15   19 1
  27   16   17 2
  28   17   18 1
  29   17   41 1
  30   18   42 1
  31   19   20 ar
  32   19   24 ar
  33   20   21 ar
  34   20   43 1
  35   21   22 ar
  36   21   44 1
  37   22   23 ar
  38   22   45 1
  39   23   24 ar
  40   23   35 1
  41   24   46 1
  42   26   27 1
  43   26   30 1
  44   27   28 2
  45   28   29 1
  46   28   47 1
  47   29   30 2
  48   29   48 1
  49   30   31 1
  50   31   32 1
  51   32   33 1
  52   32   34 1
  53   32   49 1

#	End of record

