#	Name: ASD01810604
#	Creating user name:	WinNT
#	Creation time:	15. 06. 2019 19:24

#	Modifying user name:	WinNT
#	Modification time:	15. 06. 2019 19:24

#	Program:	/corina/corina34_cracker 3.40 0067  02.08.2006

@<TRIPOS>MOLECULE
ASD01810604
  63   66    0    0    0
SMALL
NO_CHARGES


@<TRIPOS>ATOM
   1 N1             0.1968     1.1636     0.0704 N.am    
   2 C2             0.1633    -0.1104    -0.3678 C.2     
   3 O3             1.1280    -0.5829    -0.9375 O.2     
   4 N4            -0.9395    -0.8608    -0.1746 N.am    
   5 O5            -1.1962    -4.3817     0.4262 O.3     
   6 C6            -0.3802    -3.2047     0.4020 C.3     
   7 C7            -0.9759    -2.2457    -0.6510 C.3     
   8 C8            -2.4395    -2.7519    -0.7673 C.3     
   9 C9            -2.2423    -4.2736    -0.5522 C.3     
  10 C10            1.3793     1.9064    -0.0268 C.ar    
  11 C11            1.3231     3.2733    -0.2720 C.ar    
  12 C12            2.4878     4.0111    -0.3694 C.ar    
  13 C13            3.7144     3.3954    -0.2238 C.ar    
  14 C14            3.7815     2.0233     0.0231 C.ar    
  15 C15            2.6058     1.2797     0.1270 C.ar    
  16 C16            4.9813     4.2044    -0.3319 C.3     
  17 C17           -0.0122     3.9531    -0.4328 C.3     
  18 C18            5.0943     1.3609     0.1791 C.2     
  19 O19            5.9320     1.4583    -0.6963 O.2     
  20 N20            5.3620     0.6493     1.2919 N.am    
  21 C21            6.6910     0.0588     1.5011 C.3     
  22 C22            7.2232     0.5128     2.8640 C.3     
  23 C23            6.2019     0.1623     3.9485 C.3     
  24 C24            4.8893     0.8992     3.6727 C.3     
  25 C25            4.3323     0.4543     2.3216 C.3     
  26 F26            5.9717    -1.2177     3.9434 F       
  27 C27            6.7370     0.5768     5.2949 C.ar    
  28 C28            6.1473     0.0926     6.4491 C.ar    
  29 C29            6.6320     0.4679     7.6849 C.ar    
  30 C30            7.7208     1.3381     7.7692 C.ar    
  31 C31            8.3114     1.8225     6.6004 C.ar    
  32 C32            7.8195     1.4352     5.3712 C.ar    
  33 C33            8.2290     1.7324     9.0487 C.1     
  34 N34            8.6322     2.0451    10.0636 N.1     
  35 H35           -0.5996     1.5672     0.4496 H       
  36 H36           -1.7091    -0.4838     0.2798 H       
  37 H37           -0.3886    -2.7287     1.3825 H       
  38 H38            0.6409    -3.4683     0.1263 H       
  39 H39           -0.4548    -2.3433    -1.6034 H       
  40 H40           -3.0668    -2.3227     0.0140 H       
  41 H41           -2.8495    -2.5448    -1.7558 H       
  42 H42           -1.9397    -4.7514    -1.4840 H       
  43 H43           -3.1605    -4.7246    -0.1756 H       
  44 H44            2.4379     5.0729    -0.5604 H       
  45 H45            2.6513     0.2185     0.3223 H       
  46 H46            5.2104     4.6516     0.6354 H       
  47 H47            5.8023     3.5550    -0.6356 H       
  48 H48            4.8473     4.9918    -1.0736 H       
  49 H49           -0.3641     4.2972     0.5398 H       
  50 H50            0.0927     4.8058    -1.1037 H       
  51 H51           -0.7309     3.2482    -0.8506 H       
  52 H52            6.6150    -1.0284     1.4822 H       
  53 H53            7.3675     0.3935     0.7147 H       
  54 H54            8.1652     0.0060     3.0739 H       
  55 H55            7.3845     1.5907     2.8509 H       
  56 H56            4.1700     0.6674     4.4582 H       
  57 H57            5.0725     1.9734     3.6520 H       
  58 H58            3.4530     1.0499     2.0764 H       
  59 H59            4.0599    -0.6000     2.3710 H       
  60 H60            5.3052    -0.5804     6.3824 H       
  61 H61            6.1703     0.0898     8.5850 H       
  62 H62            9.1538     2.4959     6.6585 H       
  63 H63            8.2779     1.8059     4.4663 H       
@<TRIPOS>BOND
   1    1    2 am
   2    1   10 1
   3    1   35 1
   4    2    3 2
   5    2    4 am
   6    4    7 1
   7    4   36 1
   8    5    6 1
   9    5    9 1
  10    6    7 1
  11    6   37 1
  12    6   38 1
  13    7    8 1
  14    7   39 1
  15    8    9 1
  16    8   40 1
  17    8   41 1
  18    9   42 1
  19    9   43 1
  20   10   11 ar
  21   10   15 ar
  22   11   12 ar
  23   11   17 1
  24   12   13 ar
  25   12   44 1
  26   13   14 ar
  27   13   16 1
  28   14   15 ar
  29   14   18 1
  30   15   45 1
  31   16   46 1
  32   16   47 1
  33   16   48 1
  34   17   49 1
  35   17   50 1
  36   17   51 1
  37   18   19 2
  38   18   20 am
  39   20   21 1
  40   20   25 1
  41   21   22 1
  42   21   52 1
  43   21   53 1
  44   22   23 1
  45   22   54 1
  46   22   55 1
  47   23   24 1
  48   23   26 1
  49   23   27 1
  50   24   25 1
  51   24   56 1
  52   24   57 1
  53   25   58 1
  54   25   59 1
  55   27   28 ar
  56   27   32 ar
  57   28   29 ar
  58   28   60 1
  59   29   30 ar
  60   29   61 1
  61   30   31 ar
  62   30   33 1
  63   31   32 ar
  64   31   62 1
  65   32   63 1
  66   33   34 3

#	End of record

