#	Name: ASD03330453
#	Creating user name:	WinNT
#	Creation time:	15. 06. 2019 20:37

#	Modifying user name:	WinNT
#	Modification time:	15. 06. 2019 20:37

#	Program:	/corina/corina34_cracker 3.40 0067  02.08.2006

@<TRIPOS>MOLECULE
ASD03330453
  57   59    0    0    0
SMALL
NO_CHARGES


@<TRIPOS>ATOM
   1 C1             0.1578    -0.4297     1.0245 C.3     
   2 N2             0.1707    -1.8148     0.5336 N.3     
   3 C3             0.6092    -1.8780    -0.8724 C.3     
   4 C4             1.8859    -1.0874    -0.9974 C.2     
   5 N5             2.3237    -0.2047    -0.0536 N.pl3   
   6 C6             1.5964     0.0783     1.1868 C.3     
   7 C7             2.7994    -1.0881    -1.9995 C.2     
   8 N8             3.7791    -0.2180    -1.6631 N.2     
   9 C9             3.4991     0.3149    -0.4947 C.2     
  10 C10            4.3249     1.3128     0.2200 C.ar    
  11 C11            2.7365    -1.8922    -3.2328 C.2     
  12 O12            1.7989    -2.6434    -3.4218 O.2     
  13 C13            3.6556    -2.5946    -5.3773 C.3     
  14 N14            3.7181    -1.7952    -4.1513 N.am    
  15 C15           -1.1448    -2.4459     0.7037 C.3     
  16 C16            5.3345     1.9985    -0.4553 C.ar    
  17 C17            2.8080    -1.8634    -6.4203 C.3     
  18 C18            3.3629    -0.4532    -6.6307 C.3     
  19 C19            2.8522    -2.6314    -7.7428 C.3     
  20 C20            1.3613    -1.7744    -5.9304 C.3     
  21 C21            5.0483    -2.7988    -5.9154 C.2     
  22 O22            5.9234    -2.0017    -5.6513 O.2     
  23 N23            5.3215    -3.8673    -6.6902 N.am    
  24 C24            6.6977    -4.1281    -7.1195 C.3     
  25 C25            6.1022     2.9298     0.2175 C.ar    
  26 C26            5.8698     3.1818     1.5611 C.ar    
  27 C27            4.8685     2.5031     2.2345 C.ar    
  28 C28            4.0927     1.5756     1.5707 C.ar    
  29 Cl29           6.8380     4.3520     2.4018 Cl      
  30 F30            7.0807     3.5952    -0.4343 F       
  31 H31           -0.3713     0.2025     0.3114 H       
  32 H32           -0.3507    -0.3915     1.9878 H       
  33 H33            0.7886    -2.9150    -1.1563 H       
  34 H34           -0.1564    -1.4460    -1.5169 H       
  35 H35            1.5885     1.1524     1.3718 H       
  36 H36            2.0761    -0.4355     2.0199 H       
  37 H37            3.2055    -3.5627    -5.1573 H       
  38 H38            4.4659    -1.1961    -4.0005 H       
  39 H39           -1.9036    -1.8450     0.2025 H       
  40 H40           -1.1273    -3.4453     0.2690 H       
  41 H41           -1.3797    -2.5157     1.7658 H       
  42 H42            5.5161     1.8017    -1.5016 H       
  43 H43            4.3935    -0.5166    -6.9797 H       
  44 H44            2.7590     0.0678    -7.3737 H       
  45 H45            3.3314     0.0940    -5.6885 H       
  46 H46            2.4230    -3.6233    -7.6015 H       
  47 H47            2.2786    -2.0912    -8.4960 H       
  48 H48            3.8865    -2.7268    -8.0732 H       
  49 H49            1.3298    -1.2272    -4.9882 H       
  50 H50            0.7574    -1.2534    -6.6734 H       
  51 H51            0.9660    -2.7791    -5.7805 H       
  52 H52            4.6069    -4.4635    -6.9636 H       
  53 H53            7.0639    -3.2813    -7.7000 H       
  54 H54            7.3310    -4.2692    -6.2436 H       
  55 H55            6.7222    -5.0279    -7.7343 H       
  56 H56            4.6917     2.7032     3.2810 H       
  57 H57            3.3118     1.0475     2.0977 H       
@<TRIPOS>BOND
   1    1    2 1
   2    1    6 1
   3    1   31 1
   4    1   32 1
   5    2    3 1
   6    2   15 1
   7    3    4 1
   8    3   33 1
   9    3   34 1
  10    4    5 1
  11    4    7 2
  12    5    6 1
  13    5    9 1
  14    6   35 1
  15    6   36 1
  16    7    8 1
  17    7   11 1
  18    8    9 2
  19    9   10 1
  20   10   16 ar
  21   10   28 ar
  22   11   12 2
  23   11   14 am
  24   13   14 1
  25   13   17 1
  26   13   21 1
  27   13   37 1
  28   14   38 1
  29   15   39 1
  30   15   40 1
  31   15   41 1
  32   16   25 ar
  33   16   42 1
  34   17   18 1
  35   17   19 1
  36   17   20 1
  37   18   43 1
  38   18   44 1
  39   18   45 1
  40   19   46 1
  41   19   47 1
  42   19   48 1
  43   20   49 1
  44   20   50 1
  45   20   51 1
  46   21   22 2
  47   21   23 am
  48   23   24 1
  49   23   52 1
  50   24   53 1
  51   24   54 1
  52   24   55 1
  53   25   26 ar
  54   25   30 1
  55   26   27 ar
  56   26   29 1
  57   27   28 ar
  58   27   56 1
  59   28   57 1

#	End of record

