#	Name: ASD09200017
#	Creating user name:	WinNT
#	Creation time:	15. 06. 2019 21:21

#	Modifying user name:	WinNT
#	Modification time:	15. 06. 2019 21:21

#	Program:	/corina/corina34_cracker 3.40 0067  02.08.2006

@<TRIPOS>MOLECULE
ASD09200017
  45   47    0    0    0
SMALL
NO_CHARGES


@<TRIPOS>ATOM
   1 C1            -0.0981     1.2282    -0.0157 C.ar    
   2 C2             0.1095    -0.1591    -0.0021 C.ar    
   3 N3             1.3470    -0.6428     0.0069 N.ar    
   4 C4             2.3784     0.1799     0.0032 C.ar    
   5 C5             2.1759     1.5574    -0.0102 C.ar    
   6 N6             0.9425     2.0500    -0.0194 N.ar    
   7 C7            -1.0489    -1.0832     0.0026 C.ar    
   8 C8            -2.0791    -0.9095     0.9262 C.ar    
   9 C9            -3.1558    -1.7724     0.9261 C.ar    
  10 C10           -3.2158    -2.8093     0.0121 C.ar    
  11 C11           -2.1972    -2.9882    -0.9076 C.ar    
  12 C12           -1.1158    -2.1268    -0.9207 C.ar    
  13 N13            3.2663     2.4184    -0.0137 N.3     
  14 C14            4.5288     1.6686    -0.0016 C.3     
  15 C15            5.7007     2.6425     0.1410 C.3     
  16 C16            5.6828     3.6298    -1.0293 C.3     
  17 C17            4.3386     4.3628    -1.0479 C.3     
  18 C18            3.2063     3.3390    -1.1561 C.3     
  19 Cl19          -2.2804    -4.2923    -2.0504 Cl      
  20 Cl20           0.1586    -2.3474    -2.0787 Cl      
  21 C21            6.8159     4.6439    -0.8600 C.3     
  22 N22            5.8609     2.8988    -2.2910 N.3     
  23 N23           -1.3882     1.7388    -0.0309 N.pl3   
  24 C24           -1.6055     3.1837     0.0747 C.3     
  25 H25            3.3831    -0.2163     0.0109 H       
  26 H26           -2.0342    -0.1010     1.6407 H       
  27 H27           -3.9536    -1.6382     1.6416 H       
  28 H28           -4.0606    -3.4821     0.0167 H       
  29 H29            4.5303     0.9732     0.8378 H       
  30 H30            4.6300     1.1127    -0.9337 H       
  31 H31            5.6075     3.1890     1.0796 H       
  32 H32            6.6384     2.0870     0.1342 H       
  33 H33            4.2240     4.9363    -0.1281 H       
  34 H34            4.3033     5.0363    -1.9042 H       
  35 H35            3.3136     2.7753    -2.0828 H       
  36 H36            2.2471     3.8569    -1.1553 H       
  37 H37            7.7719     4.1207    -0.8412 H       
  38 H38            6.8024     5.3462    -1.6935 H       
  39 H39            6.6806     5.1872     0.0752 H       
  40 H40            5.8526     3.5294    -3.0785 H       
  41 H41            6.7083     2.3512    -2.2751 H       
  42 H42           -2.1463     1.1390    -0.1115 H       
  43 H43           -1.1901     3.5458     1.0151 H       
  44 H44           -1.1133     3.6869    -0.7576 H       
  45 H45           -2.6747     3.3935     0.0450 H       
@<TRIPOS>BOND
   1    1    2 ar
   2    1    6 ar
   3    1   23 1
   4    2    3 ar
   5    2    7 1
   6    3    4 ar
   7    4    5 ar
   8    4   25 1
   9    5    6 ar
  10    5   13 1
  11    7    8 ar
  12    7   12 ar
  13    8    9 ar
  14    8   26 1
  15    9   10 ar
  16    9   27 1
  17   10   11 ar
  18   10   28 1
  19   11   12 ar
  20   11   19 1
  21   12   20 1
  22   13   14 1
  23   13   18 1
  24   14   15 1
  25   14   29 1
  26   14   30 1
  27   15   16 1
  28   15   31 1
  29   15   32 1
  30   16   17 1
  31   16   21 1
  32   16   22 1
  33   17   18 1
  34   17   33 1
  35   17   34 1
  36   18   35 1
  37   18   36 1
  38   21   37 1
  39   21   38 1
  40   21   39 1
  41   22   40 1
  42   22   41 1
  43   23   24 1
  44   23   42 1
  45   24   43 1
  46   24   44 1
  47   24   45 1

#	End of record

