#	Name: ASD01816080
#	Creating user name:	WinNT
#	Creation time:	15. 06. 2019 19:34

#	Modifying user name:	WinNT
#	Modification time:	15. 06. 2019 19:34

#	Program:	/corina/corina34_cracker 3.40 0067  02.08.2006

@<TRIPOS>MOLECULE
ASD01816080
  61   66    0    0    0
SMALL
NO_CHARGES


@<TRIPOS>ATOM
   1 C1            -0.5922     0.6315     0.2881 C.ar    
   2 C2            -0.3263    -0.7280     0.2609 C.ar    
   3 C3             0.9704    -1.1890     0.1656 C.ar    
   4 C4             2.0266    -0.2877     0.0956 C.ar    
   5 C5             1.7537     1.0902     0.1228 C.ar    
   6 C6             0.4419     1.5426     0.2193 C.ar    
   7 N7             3.3301    -0.7437     0.0007 N.pl3   
   8 C8             4.3892     0.0787    -0.0695 C.2     
   9 C9             4.2458     1.4438    -0.0515 C.2     
  10 C10            2.8892     2.0291     0.0473 C.2     
  11 C11            5.1506     2.5877    -0.1085 C.2     
  12 N12            4.3702     3.6882    -0.0471 N.am    
  13 N13            3.0245     3.3241     0.0454 N.2     
  14 O14            6.3675     2.5560    -0.1937 O.2     
  15 C15            3.5649    -2.1896    -0.0237 C.3     
  16 C16            3.5449    -2.6777    -1.4493 C.ar    
  17 C17            4.6638    -2.5164    -2.2499 C.ar    
  18 C18            4.6496    -2.9628    -3.5584 C.ar    
  19 C19            3.5076    -3.5752    -4.0698 C.ar    
  20 C20            2.3853    -3.7342    -3.2587 C.ar    
  21 C21            2.4114    -3.2903    -1.9523 C.ar    
  22 F22            5.7700    -1.9218    -1.7518 F       
  23 C23            4.8426     5.0066    -0.0726 C.ar    
  24 C24            4.4988     5.8900     0.9451 C.ar    
  25 C25            5.6599     5.4331    -1.1108 C.ar    
  26 C26            6.1242     6.7337    -1.1332 C.ar    
  27 C27            5.7765     7.6122    -0.1233 C.ar    
  28 C28            4.9675     7.1909     0.9159 C.ar    
  29 F29            3.7080     5.4782     1.9601 F       
  30 C30            3.4859    -4.0559    -5.4730 C.ar    
  31 C31            2.3425    -4.6685    -5.9834 C.ar    
  32 C32            2.3246    -5.1145    -7.2878 C.ar    
  33 C33            3.4455    -4.9542    -8.0936 C.ar    
  34 C34            4.5866    -4.3438    -7.5869 C.ar    
  35 C35            4.6069    -3.8906    -6.2850 C.ar    
  36 N36            3.4254    -5.4082    -9.4160 N.am    
  37 C37            2.2919    -5.3236   -10.1403 C.2     
  38 O38            1.2680    -4.9327    -9.6208 O.2     
  39 C39            2.2968    -5.7148   -11.5956 C.3     
  40 H40           -1.6122     0.9792     0.3588 H       
  41 H41           -1.1422    -1.4336     0.3153 H       
  42 H42            1.1652    -2.2511     0.1456 H       
  43 H43            0.2336     2.6021     0.2401 H       
  44 H44            5.3800    -0.3450    -0.1417 H       
  45 H45            4.5357    -2.4076     0.4214 H       
  46 H46            2.7832    -2.6942     0.5441 H       
  47 H47            5.5218    -2.8368    -4.1828 H       
  48 H48            1.4977    -4.2084    -3.6508 H       
  49 H49            1.5419    -3.4139    -1.3237 H       
  50 H50            5.9327     4.7482    -1.9000 H       
  51 H51            6.7602     7.0652    -1.9407 H       
  52 H52            6.1416     8.6284    -0.1438 H       
  53 H53            4.6978     7.8794     1.7030 H       
  54 H54            1.4714    -4.7939    -5.3574 H       
  55 H55            1.4389    -5.5891    -7.6837 H       
  56 H56            5.4565    -4.2203    -8.2148 H       
  57 H57            5.4939    -3.4163    -5.8916 H       
  58 H58            4.2271    -5.7839    -9.8120 H       
  59 H59            3.2978    -6.0375   -11.8818 H       
  60 H60            1.5924    -6.5313   -11.7548 H       
  61 H61            2.0036    -4.8585   -12.2030 H       
@<TRIPOS>BOND
   1    1    2 ar
   2    1    6 ar
   3    1   40 1
   4    2    3 ar
   5    2   41 1
   6    3    4 ar
   7    3   42 1
   8    4    5 ar
   9    4    7 1
  10    5    6 ar
  11    5   10 1
  12    6   43 1
  13    7    8 1
  14    7   15 1
  15    8    9 2
  16    8   44 1
  17    9   10 1
  18    9   11 1
  19   10   13 2
  20   11   12 am
  21   11   14 2
  22   12   13 1
  23   12   23 1
  24   15   16 1
  25   15   45 1
  26   15   46 1
  27   16   17 ar
  28   16   21 ar
  29   17   18 ar
  30   17   22 1
  31   18   19 ar
  32   18   47 1
  33   19   20 ar
  34   19   30 1
  35   20   21 ar
  36   20   48 1
  37   21   49 1
  38   23   24 ar
  39   23   25 ar
  40   24   29 1
  41   24   28 ar
  42   25   26 ar
  43   25   50 1
  44   26   27 ar
  45   26   51 1
  46   27   28 ar
  47   27   52 1
  48   28   53 1
  49   30   31 ar
  50   30   35 ar
  51   31   32 ar
  52   31   54 1
  53   32   33 ar
  54   32   55 1
  55   33   34 ar
  56   33   36 1
  57   34   35 ar
  58   34   56 1
  59   35   57 1
  60   36   37 am
  61   36   58 1
  62   37   38 2
  63   37   39 1
  64   39   59 1
  65   39   60 1
  66   39   61 1

#	End of record

