#	Name: ASD01914450
#	Creating user name:	WinNT
#	Creation time:	15. 06. 2019 20:03

#	Modifying user name:	WinNT
#	Modification time:	15. 06. 2019 20:03

#	Program:	/corina/corina34_cracker 3.40 0067  02.08.2006

@<TRIPOS>MOLECULE
ASD01914450
  43   44    0    0    0
SMALL
NO_CHARGES


@<TRIPOS>ATOM
   1 C1             5.6043    -2.0492    -3.5248 C.ar    
   2 C2             5.8184    -0.7619    -3.0665 C.ar    
   3 C3             4.7575    -2.8991    -2.8379 C.ar    
   4 C4             4.1215    -2.4652    -1.6907 C.ar    
   5 C5             4.3337    -1.1738    -1.2271 C.ar    
   6 C6             5.1862    -0.3214    -1.9197 C.ar    
   7 N7             3.6916    -0.7317    -0.0672 N.am    
   8 C8             4.2792    -1.0082     1.2460 C.3     
   9 S9             2.2666     0.1046    -0.1773 S.o2    
  10 C10            4.6944     0.2878     1.8934 C.2     
  11 N11            5.2124     0.2839     3.1376 N.am    
  12 O12            4.5624     1.3343     1.2947 O.2     
  13 C13            5.5070     1.4934     3.7766 C.ar    
  14 C14            0.9842    -1.1774    -0.1259 C.3     
  15 O15            2.2309     0.8932     1.0042 O.2     
  16 O16            2.3144     0.7109    -1.4616 O.2     
  17 Cl17           5.4557     1.2942    -1.3443 Cl      
  18 C18            5.3305     1.6163     5.1485 C.ar    
  19 C19            5.6219     2.8114     5.7770 C.ar    
  20 C20            6.0891     3.8850     5.0421 C.ar    
  21 C21            6.2663     3.7662     3.6744 C.ar    
  22 C22            5.9818     2.5712     3.0410 C.ar    
  23 C23            3.2464    -1.7114     2.1290 C.3     
  24 Cl24           6.8531     5.1169     2.7552 Cl      
  25 C25            2.9368    -3.0934     1.5500 C.3     
  26 H26            6.0962    -2.3897    -4.4240 H       
  27 H27            6.4808    -0.1006    -3.6053 H       
  28 H28            4.5926    -3.9036    -3.1988 H       
  29 H29            3.4597    -3.1298    -1.1553 H       
  30 H30            5.1518    -1.6502     1.1258 H       
  31 H31            5.3810    -0.5574     3.5901 H       
  32 H32            0.9627    -1.6302     0.8654 H       
  33 H33            0.0141    -0.7298    -0.3420 H       
  34 H34            1.2053    -1.9424    -0.8701 H       
  35 H35            4.9652     0.7783     5.7236 H       
  36 H36            5.4843     2.9072     6.8439 H       
  37 H37            6.3158     4.8184     5.5359 H       
  38 H38            6.1200     2.4786     1.9739 H       
  39 H39            3.6450    -1.8210     3.1376 H       
  40 H40            2.3325    -1.1183     2.1620 H       
  41 H41            2.1400    -3.5598     2.1293 H       
  42 H42            2.6189    -2.9898     0.5126 H       
  43 H43            3.8310    -3.7150     1.5957 H       
@<TRIPOS>BOND
   1    1    2 ar
   2    1    3 ar
   3    1   26 1
   4    2    6 ar
   5    2   27 1
   6    3    4 ar
   7    3   28 1
   8    4    5 ar
   9    4   29 1
  10    5    6 ar
  11    5    7 1
  12    6   17 1
  13    7    8 1
  14    7    9 am
  15    8   10 1
  16    8   23 1
  17    8   30 1
  18    9   14 1
  19    9   15 2
  20    9   16 2
  21   10   11 am
  22   10   12 2
  23   11   13 1
  24   11   31 1
  25   13   18 ar
  26   13   22 ar
  27   14   32 1
  28   14   33 1
  29   14   34 1
  30   18   19 ar
  31   18   35 1
  32   19   20 ar
  33   19   36 1
  34   20   21 ar
  35   20   37 1
  36   21   22 ar
  37   21   24 1
  38   22   38 1
  39   23   25 1
  40   23   39 1
  41   23   40 1
  42   25   41 1
  43   25   42 1
  44   25   43 1

#	End of record

