#	Name: ASD00111104
#	Creating user name:	WinNT
#	Creation time:	15. 06. 2019 18:30

#	Modifying user name:	WinNT
#	Modification time:	15. 06. 2019 18:30

#	Program:	/corina/corina34_cracker 3.40 0067  02.08.2006

@<TRIPOS>MOLECULE
ASD00111104
  46   47    0    0    0
SMALL
NO_CHARGES


@<TRIPOS>ATOM
   1 N1             1.2313     1.6508     0.3550 N.am    
   2 C2             0.7107     0.3275     0.0260 C.3     
   3 C3             0.6301    -0.5274     1.2955 C.3     
   4 C4             2.0046    -1.0851     1.5917 C.ar    
   5 C5             3.0071    -0.2572     2.0343 C.ar    
   6 C6             2.7461     1.2198     2.2296 C.3     
   7 C7             2.5851     1.8753     0.8524 C.3     
   8 C8             4.2640    -0.7668     2.3056 C.ar    
   9 C9             4.5100    -2.1209     2.1293 C.ar    
  10 C10            3.4956    -2.9558     1.6821 C.ar    
  11 C11            2.2424    -2.4370     1.4136 C.ar    
  12 C12            0.1635     0.3375     2.4681 C.3     
  13 C13           -1.3658     0.3728     2.4989 C.3     
  14 C14            0.6864    -0.2546     3.7784 C.3     
  15 Br15           3.8274    -4.8016     1.4393 Br      
  16 O16            5.7427    -2.6287     2.3939 O.3     
  17 C17            6.7382    -1.7109     2.8504 C.3     
  18 C18            8.0300    -2.4491     3.0899 C.2     
  19 C19            9.1612    -1.9457     2.6619 C.2     
  20 C20            0.4249     2.7175     0.1863 C.2     
  21 O21           -0.6730     2.5753    -0.3090 O.2     
  22 C22            0.8875     4.0868     0.6131 C.3     
  23 F23           -0.1144     5.0239     0.3388 F       
  24 F24            1.1575     4.0810     1.9857 F       
  25 F25            2.0487     4.4266    -0.0892 F       
  26 H26           -0.2843     0.4269    -0.4078 H       
  27 H27            1.3727    -0.1538    -0.6938 H       
  28 H28           -0.0715    -1.3471     1.1406 H       
  29 H29            1.8331     1.3562     2.8093 H       
  30 H30            3.5867     1.6735     2.7546 H       
  31 H31            3.3034     1.4405     0.1574 H       
  32 H32            2.7670     2.9466     0.9375 H       
  33 H33            5.0505    -0.1135     2.6536 H       
  34 H34            1.4514    -3.0848     1.0657 H       
  35 H35            0.5479     1.3504     2.3481 H       
  36 H36           -1.7522    -0.6459     2.5291 H       
  37 H37           -1.6990     0.9142     3.3843 H       
  38 H38           -1.7357     0.8754     1.6052 H       
  39 H39            0.3019    -1.2675     3.8984 H       
  40 H40            1.7759    -0.2798     3.7565 H       
  41 H41            0.3539     0.3616     4.6138 H       
  42 H42            6.8949    -0.9399     2.0960 H       
  43 H43            6.4067    -1.2478     3.7797 H       
  44 H44            8.0233    -3.3931     3.6144 H       
  45 H45            9.1680    -1.0016     2.1374 H       
  46 H46           10.0870    -2.4747     2.8335 H       
@<TRIPOS>BOND
   1    1    2 1
   2    1    7 1
   3    1   20 am
   4    2    3 1
   5    2   26 1
   6    2   27 1
   7    3    4 1
   8    3   12 1
   9    3   28 1
  10    4    5 ar
  11    4   11 ar
  12    5    6 1
  13    5    8 ar
  14    6    7 1
  15    6   29 1
  16    6   30 1
  17    7   31 1
  18    7   32 1
  19    8    9 ar
  20    8   33 1
  21    9   10 ar
  22    9   16 1
  23   10   11 ar
  24   10   15 1
  25   11   34 1
  26   12   13 1
  27   12   14 1
  28   12   35 1
  29   13   36 1
  30   13   37 1
  31   13   38 1
  32   14   39 1
  33   14   40 1
  34   14   41 1
  35   16   17 1
  36   17   18 1
  37   17   42 1
  38   17   43 1
  39   18   19 2
  40   18   44 1
  41   19   45 1
  42   19   46 1
  43   20   21 2
  44   20   22 1
  45   22   23 1
  46   22   24 1
  47   22   25 1

#	End of record

