#	Name: ASD01410771
#	Creating user name:	WinNT
#	Creation time:	15. 06. 2019 19:18

#	Modifying user name:	WinNT
#	Modification time:	15. 06. 2019 19:18

#	Program:	/corina/corina34_cracker 3.40 0067  02.08.2006

@<TRIPOS>MOLECULE
ASD01410771
 112  119    0    0    0
SMALL
NO_CHARGES


@<TRIPOS>ATOM
   1 C1             2.2623     1.4379    -0.4737 C.3     
   2 C2             1.6444    -2.2127    -1.4857 C.3     
   3 C3             1.5401    -0.6749    -1.5965 C.3     
   4 N4             2.5637    -0.3287    -2.5970 N.am    
   5 C5             2.5117    -1.3818    -3.6234 C.3     
   6 C6             1.9376    -2.6412    -2.9439 C.3     
   7 O7             2.7199    -2.5864    -0.6221 O.3     
   8 C8             1.6143    -0.9533    -4.7557 C.2     
   9 O9             1.0654     0.1275    -4.7187 O.2     
  10 N10            1.4218    -1.7712    -5.8095 N.am    
  11 C11            0.4808    -1.3941    -6.8671 C.3     
  12 C12           -0.9670    -1.3250    -6.4546 C.2     
  13 N13           -1.3331    -1.7033    -5.2139 N.am    
  14 O14           -1.8028    -0.9289    -7.2391 O.2     
  15 S15           -2.9017    -1.5118    -4.7188 S.o2    
  16 C16           -3.8536    -2.6229    -5.7911 C.3     
  17 C17            0.9642    -0.3938    -7.9191 C.3     
  18 C18            0.7884    -1.8688    -8.2887 C.3     
  19 C19           -5.3780    -2.5932    -5.6636 C.3     
  20 C20           -4.7013    -1.9857    -6.8940 C.3     
  21 O21           -2.9067    -1.9860    -3.3793 O.2     
  22 O22           -3.1999    -0.1547    -5.0167 O.2     
  23 C23           -0.0441     0.5848    -8.4638 C.2     
  24 C24            0.1500     1.8725    -8.3218 C.2     
  25 C25            2.6504    -3.8128    -0.0475 C.ar    
  26 C26            3.6385    -4.2422     0.8692 C.ar    
  27 C27            1.6182    -4.6668    -0.3351 C.ar    
  28 C28            1.5693    -5.9291     0.2721 C.ar    
  29 N29            2.5009    -6.3229     1.1239 N.ar    
  30 C30            3.5284    -5.5312     1.4468 C.ar    
  31 C31            0.4506    -6.8407    -0.0467 C.2     
  32 C32            4.5128    -5.9616     2.3535 C.ar    
  33 C33            5.5606    -5.1249     2.6675 C.ar    
  34 C34            5.6555    -3.8531     2.0953 C.ar    
  35 C35            4.7181    -3.4149     1.2109 C.ar    
  36 Cl36           4.4080    -7.5379     3.0732 Cl      
  37 O37            6.5124    -5.5401     3.5437 O.3     
  38 N38            0.2856    -8.0355     0.4451 N.2     
  39 C39            1.8651    -0.0226    -0.2604 C.3     
  40 C40            3.5560     1.5141    -1.2849 C.3     
  41 C41            3.4046     0.7150    -2.5546 C.2     
  42 C42            3.8533     2.9738    -1.6340 C.3     
  43 C43            2.7021     3.5440    -2.4650 C.3     
  44 C44            4.0035     3.7858    -0.3460 C.3     
  45 O45            4.0449     1.0166    -3.5394 O.2     
  46 C46            7.5740    -4.6270     3.8291 C.3     
  47 C47           -0.7696    -8.7044     0.0474 C.2     
  48 C48           -1.5640    -8.0748    -0.8278 C.2     
  49 S49           -0.8780    -6.4828    -1.1471 S.3     
  50 C50           -1.0695   -10.0953     0.5439 C.3     
  51 C51           -2.0350   -10.0169     1.7281 C.3     
  52 C52           -1.7079   -10.9119    -0.5815 C.3     
  53 C53            8.5410    -5.2655     4.8281 C.3     
  54 N54            9.1865    -6.4306     4.2087 N.3     
  55 C55           10.2896    -6.9278     5.0438 C.3     
  56 C56            9.6613    -6.1118     2.8543 C.3     
  57 C57           10.2719    -7.3667     2.2248 C.3     
  58 O58           11.3213    -7.8534     3.0658 O.3     
  59 C59           10.8939    -8.1745     4.3923 C.3     
  60 H60            1.4671     1.9543    -1.0114 H       
  61 H61            2.4131     1.9168     0.4938 H       
  62 H62            0.7043    -2.6395    -1.1362 H       
  63 H63            0.5498    -0.3834    -1.9463 H       
  64 H64            3.5144    -1.5857    -3.9990 H       
  65 H65            2.6701    -3.4482    -2.9614 H       
  66 H66            1.0179    -2.9527    -3.4391 H       
  67 H67            1.9062    -2.6095    -5.8676 H       
  68 H68           -0.6777    -2.0878    -4.6110 H       
  69 H69           -3.3853    -3.5831    -6.0072 H       
  70 H70            1.9823    -0.0163    -7.8243 H       
  71 H71            1.6911    -2.4615    -8.4372 H       
  72 H72           -0.0563    -2.1309    -8.9257 H       
  73 H73           -5.9126    -3.5338    -5.7962 H       
  74 H74           -5.8089    -1.9060    -4.9354 H       
  75 H75           -4.6869    -0.8988    -6.9753 H       
  76 H76           -4.7906    -2.5266    -7.8360 H       
  77 H77           -0.9267     0.2245    -8.9713 H       
  78 H78           -0.5725     2.5739    -8.7122 H       
  79 H79            1.0327     2.2329    -7.8143 H       
  80 H80            0.8447    -4.3681    -1.0271 H       
  81 H81            6.4848    -3.2119     2.3550 H       
  82 H82            4.8036    -2.4301     0.7759 H       
  83 H83            2.6898    -0.5564     0.2117 H       
  84 H84            0.9892    -0.0683     0.3869 H       
  85 H85            4.3782     1.1074    -0.6960 H       
  86 H86            4.7781     3.0289    -2.2083 H       
  87 H87            1.7773     3.4888    -1.8907 H       
  88 H88            2.9139     4.5839    -2.7137 H       
  89 H89            2.5951     2.9655    -3.3826 H       
  90 H90            4.8588     3.4155     0.2193 H       
  91 H91            4.1592     4.8356    -0.5944 H       
  92 H92            3.0997     3.6847     0.2548 H       
  93 H93            8.1069    -4.3902     2.9082 H       
  94 H94            7.1619    -3.7126     4.2559 H       
  95 H95           -2.4707    -8.4720    -1.2598 H       
  96 H96           -0.1437   -10.5753     0.8610 H       
  97 H97           -2.2519   -11.0230     2.0872 H       
  98 H98           -1.5802    -9.4352     2.5299 H       
  99 H99           -2.9608    -9.5369     1.4110 H       
 100 H100          -1.0200   -10.9677    -1.4252 H       
 101 H101          -1.9248   -11.9179    -0.2224 H       
 102 H102          -2.6336   -10.4318    -0.8986 H       
 103 H103           9.3010    -4.5382     5.1137 H       
 104 H104           7.9910    -5.5831     5.7140 H       
 105 H105          11.0547    -6.1566     5.1330 H       
 106 H106           9.9107    -7.1818     6.0337 H       
 107 H107           8.8238    -5.7701     2.2461 H       
 108 H108          10.4164    -5.3275     2.9086 H       
 109 H109           9.5035    -8.1327     2.1213 H       
 110 H110          10.6766    -7.1212     1.2429 H       
 111 H111          11.7484    -8.5133     4.9780 H       
 112 H112          10.1435    -8.9640     4.3518 H       
@<TRIPOS>BOND
   1    1   39 1
   2    1   40 1
   3    1   60 1
   4    1   61 1
   5    2    3 1
   6    2    7 1
   7    2    6 1
   8    2   62 1
   9    3    4 1
  10    3   39 1
  11    3   63 1
  12    4    5 1
  13    4   41 am
  14    5    6 1
  15    5    8 1
  16    5   64 1
  17    6   65 1
  18    6   66 1
  19    7   25 1
  20    8    9 2
  21    8   10 am
  22   10   11 1
  23   10   67 1
  24   11   12 1
  25   11   17 1
  26   11   18 1
  27   12   13 am
  28   12   14 2
  29   13   15 am
  30   13   68 1
  31   15   16 1
  32   15   21 2
  33   15   22 2
  34   16   19 1
  35   16   20 1
  36   16   69 1
  37   17   18 1
  38   17   23 1
  39   17   70 1
  40   18   71 1
  41   18   72 1
  42   19   20 1
  43   19   73 1
  44   19   74 1
  45   20   75 1
  46   20   76 1
  47   23   24 2
  48   23   77 1
  49   24   78 1
  50   24   79 1
  51   25   26 ar
  52   25   27 ar
  53   26   30 ar
  54   26   35 ar
  55   27   28 ar
  56   27   80 1
  57   28   29 ar
  58   28   31 1
  59   29   30 ar
  60   30   32 ar
  61   31   38 2
  62   31   49 1
  63   32   33 ar
  64   32   36 1
  65   33   34 ar
  66   33   37 1
  67   34   35 ar
  68   34   81 1
  69   35   82 1
  70   37   46 1
  71   38   47 1
  72   39   83 1
  73   39   84 1
  74   40   41 1
  75   40   42 1
  76   40   85 1
  77   41   45 2
  78   42   43 1
  79   42   44 1
  80   42   86 1
  81   43   87 1
  82   43   88 1
  83   43   89 1
  84   44   90 1
  85   44   91 1
  86   44   92 1
  87   46   53 1
  88   46   93 1
  89   46   94 1
  90   47   48 2
  91   47   50 1
  92   48   49 1
  93   48   95 1
  94   50   51 1
  95   50   52 1
  96   50   96 1
  97   51   97 1
  98   51   98 1
  99   51   99 1
 100   52  100 1
 101   52  101 1
 102   52  102 1
 103   53   54 1
 104   53  103 1
 105   53  104 1
 106   54   55 1
 107   54   56 1
 108   55   59 1
 109   55  105 1
 110   55  106 1
 111   56   57 1
 112   56  107 1
 113   56  108 1
 114   57   58 1
 115   57  109 1
 116   57  110 1
 117   58   59 1
 118   59  111 1
 119   59  112 1

#	End of record

