#	Name: ASD04882216
#	Creating user name:	WinNT
#	Creation time:	15. 06. 2019 20:54

#	Modifying user name:	WinNT
#	Modification time:	15. 06. 2019 20:54

#	Program:	/corina/corina34_cracker 3.40 0067  02.08.2006

@<TRIPOS>MOLECULE
ASD04882216
  78   83    0    0    0
SMALL
NO_CHARGES


@<TRIPOS>ATOM
   1 C1            -0.2408     1.5265    -0.1514 C.2     
   2 C2            -0.1695     0.0724     0.0227 C.2     
   3 N3            -1.2218    -0.6992    -0.3146 N.am    
   4 C4            -1.1194    -2.0944    -0.2417 C.ar    
   5 C5            -2.2464    -2.8637     0.0608 C.ar    
   6 C6            -2.1463    -4.2484     0.1330 C.ar    
   7 C7            -0.9368    -4.8671    -0.0926 C.ar    
   8 C8             0.1943    -4.1038    -0.3955 C.ar    
   9 C9             0.0951    -2.7119    -0.4743 C.ar    
  10 N10           -3.4712    -2.2422     0.2905 N.3     
  11 C11           -3.4368    -1.4521     1.5291 C.3     
  12 C12           -4.5623    -3.2259     0.3268 C.3     
  13 C13           -5.8969    -2.4973     0.5013 C.3     
  14 N14           -5.8625    -1.7073     1.7400 N.3     
  15 C15           -4.7714    -0.7235     1.7036 C.3     
  16 C16           -7.0910    -1.0839     1.9704 C.ar    
  17 C17           -7.6006    -0.1855     1.0418 C.ar    
  18 C18           -7.8086    -1.3654     3.1262 C.ar    
  19 C19           -9.0228    -0.7473     3.3509 C.ar    
  20 C20           -9.5249     0.1508     2.4267 C.ar    
  21 C21           -8.8158     0.4292     1.2728 C.ar    
  22 C22            1.4898    -4.7669    -0.6371 C.2     
  23 N23            1.5406    -5.9043    -1.3583 N.am    
  24 O24            2.5119    -4.2872    -0.1855 O.2     
  25 O25            0.8401    -0.4380     0.4719 O.2     
  26 C26            0.7474     2.4201     0.1484 C.2     
  27 C27            0.2523     3.6930    -0.1756 C.2     
  28 C28           -1.0004     3.5229    -0.6528 C.2     
  29 O29           -1.2921     2.2157    -0.6414 O.3     
  30 C30           -7.2628    -2.3446     4.1334 C.3     
  31 C31            0.3345    -6.4317    -2.0111 C.3     
  32 C32            2.8045    -6.6379    -1.5121 C.3     
  33 C33            3.0691    -6.8555    -3.0043 C.3     
  34 C34            1.8615    -7.5444    -3.6415 C.3     
  35 C35            0.6328    -6.6498    -3.4977 C.3     
  36 C36            3.3055    -5.5038    -3.6829 C.3     
  37 C37            4.5605    -4.8570    -3.0905 C.3     
  38 O38            5.6738    -5.7364    -3.2624 O.3     
  39 C39            5.5284    -6.9982    -2.6076 C.3     
  40 C40            4.3122    -7.7313    -3.1801 C.3     
  41 H41           -2.0502    -0.2883    -0.6079 H       
  42 H42           -3.0189    -4.8402     0.3669 H       
  43 H43           -0.8621    -5.9430    -0.0351 H       
  44 H44            0.9674    -2.1195    -0.7082 H       
  45 H45           -3.2704    -2.1147     2.3785 H       
  46 H46           -2.6288    -0.7226     1.4728 H       
  47 H47           -4.5750    -3.7896    -0.6060 H       
  48 H48           -4.4088    -3.9086     1.1626 H       
  49 H49           -6.0633    -1.8348    -0.3481 H       
  50 H50           -6.7049    -3.2268     0.5576 H       
  51 H51           -4.7587    -0.1598     2.6364 H       
  52 H52           -4.9249    -0.0408     0.8679 H       
  53 H53           -7.0472     0.0325     0.1403 H       
  54 H54           -9.5811    -0.9657     4.2492 H       
  55 H55          -10.4751     0.6323     2.6045 H       
  56 H56           -9.2107     1.1311     0.5532 H       
  57 H57            1.7211     2.1916     0.5560 H       
  58 H58            0.7743     4.6318    -0.0638 H       
  59 H59           -1.6568     4.3108    -0.9914 H       
  60 H60           -6.6502    -1.8132     4.8617 H       
  61 H61           -8.0891    -2.8383     4.6448 H       
  62 H62           -6.6542    -3.0905     3.6220 H       
  63 H63            0.0553    -7.3799    -1.5516 H       
  64 H64           -0.4814    -5.7170    -1.9032 H       
  65 H65            3.6187    -6.0582    -1.0774 H       
  66 H66            2.7308    -7.6023    -1.0096 H       
  67 H67            2.0593    -7.7190    -4.6991 H       
  68 H68            1.6826    -8.4974    -3.1437 H       
  69 H69           -0.2242    -7.1301    -3.9698 H       
  70 H70            0.8231    -5.6903    -3.9785 H       
  71 H71            3.4434    -5.6529    -4.7538 H       
  72 H72            2.4462    -4.8552    -3.5121 H       
  73 H73            4.7594    -3.9147    -3.6009 H       
  74 H74            4.4060    -4.6696    -2.0279 H       
  75 H75            6.4241    -7.5976    -2.7705 H       
  76 H76            5.3868    -6.8388    -1.5387 H       
  77 H77            4.1720    -8.6734    -2.6500 H       
  78 H78            4.4717    -7.9290    -4.2401 H       
@<TRIPOS>BOND
   1    1    2 1
   2    1   26 2
   3    1   29 1
   4    2    3 am
   5    2   25 2
   6    3    4 1
   7    3   41 1
   8    4    5 ar
   9    4    9 ar
  10    5    6 ar
  11    5   10 1
  12    6    7 ar
  13    6   42 1
  14    7    8 ar
  15    7   43 1
  16    8    9 ar
  17    8   22 1
  18    9   44 1
  19   10   11 1
  20   10   12 1
  21   11   15 1
  22   11   45 1
  23   11   46 1
  24   12   13 1
  25   12   47 1
  26   12   48 1
  27   13   14 1
  28   13   49 1
  29   13   50 1
  30   14   15 1
  31   14   16 1
  32   15   51 1
  33   15   52 1
  34   16   17 ar
  35   16   18 ar
  36   17   21 ar
  37   17   53 1
  38   18   19 ar
  39   18   30 1
  40   19   20 ar
  41   19   54 1
  42   20   21 ar
  43   20   55 1
  44   21   56 1
  45   22   23 am
  46   22   24 2
  47   23   31 1
  48   23   32 1
  49   26   27 1
  50   26   57 1
  51   27   28 2
  52   27   58 1
  53   28   29 1
  54   28   59 1
  55   30   60 1
  56   30   61 1
  57   30   62 1
  58   31   35 1
  59   31   63 1
  60   31   64 1
  61   32   33 1
  62   32   65 1
  63   32   66 1
  64   33   34 1
  65   33   36 1
  66   33   40 1
  67   34   35 1
  68   34   67 1
  69   34   68 1
  70   35   69 1
  71   35   70 1
  72   36   37 1
  73   36   71 1
  74   36   72 1
  75   37   38 1
  76   37   73 1
  77   37   74 1
  78   38   39 1
  79   39   40 1
  80   39   75 1
  81   39   76 1
  82   40   77 1
  83   40   78 1

#	End of record

