#	Name: ASD03430242
#	Creating user name:	WinNT
#	Creation time:	15. 06. 2019 20:40

#	Modifying user name:	WinNT
#	Modification time:	15. 06. 2019 20:40

#	Program:	/corina/corina34_cracker 3.40 0067  02.08.2006

@<TRIPOS>MOLECULE
ASD03430242
  50   55    0    0    0
SMALL
NO_CHARGES


@<TRIPOS>ATOM
   1 C1             0.0035     1.2652     0.5121 C.ar    
   2 C2             0.0114    -0.1170     0.4051 C.ar    
   3 C3             1.2067    -0.8035     0.3687 C.ar    
   4 C4             2.4176    -0.1226     0.4494 C.ar    
   5 C5             2.4062     1.2647     0.5534 C.ar    
   6 C6             1.2072     1.9567     0.5857 C.ar    
   7 O7             3.4728    -0.9863     0.4237 O.3     
   8 C8             1.5440    -2.2646     0.2375 C.3     
   9 C9             3.0387    -2.2515    -0.1107 C.3     
  10 C10            0.3787    -4.0389     1.1402 C.ar    
  11 C11            1.2689    -3.0292     1.4982 C.ar    
  12 C12            0.7296    -2.9438    -0.8258 C.2     
  13 N13            0.0839    -3.9620    -0.2231 N.am    
  14 O14            0.6650    -2.6361    -1.9972 O.2     
  15 C15            1.7035    -2.9072     2.7987 C.ar    
  16 C16            1.2569    -3.7917     3.7648 C.ar    
  17 C17            0.3734    -4.7981     3.4206 C.ar    
  18 C18           -0.0649    -4.9248     2.1185 C.ar    
  19 C19           -0.8212    -4.8814    -0.9172 C.3     
  20 O20           -1.1856     1.9281     0.5380 O.3     
  21 C21           -1.1596     3.2780     1.0144 C.3     
  22 C22            0.0167     4.0010     0.3445 C.3     
  23 O23            1.2230     3.3139     0.6934 O.3     
  24 C24           -2.2389    -4.3888    -0.7815 C.ar    
  25 N25           -2.4870    -3.2964    -0.0893 N.ar    
  26 C26           -3.7113    -2.8269     0.0567 C.ar    
  27 C27           -4.7954    -3.4681    -0.5158 C.ar    
  28 C28           -4.5888    -4.6202    -1.2533 C.ar    
  29 C29           -3.2772    -5.0911    -1.3953 C.ar    
  30 C30           -2.9989    -6.3162    -2.1724 C.2     
  31 O31           -4.0177    -7.0568    -2.6500 O.3     
  32 O32           -1.8514    -6.6557    -2.3808 O.2     
  33 H33           -0.9218    -0.6579     0.3505 H       
  34 H34            3.3391     1.8058     0.6096 H       
  35 H35            3.1850    -2.2863    -1.1903 H       
  36 H36            3.5572    -3.0764     0.3780 H       
  37 H37            2.3939    -2.1206     3.0653 H       
  38 H38            1.5979    -3.6964     4.7851 H       
  39 H39            0.0251    -5.4885     4.1745 H       
  40 H40           -0.7548    -5.7136     1.8573 H       
  41 H41           -0.5523    -4.9284    -1.9725 H       
  42 H42           -0.7380    -5.8749    -0.4765 H       
  43 H43           -2.0934     3.7772     0.7557 H       
  44 H44           -1.0266     3.2836     2.0962 H       
  45 H45           -0.1127     3.9890    -0.7378 H       
  46 H46            0.0646     5.0310     0.6981 H       
  47 H47           -3.8699    -1.9273     0.6328 H       
  48 H48           -5.7926    -3.0736    -0.3880 H       
  49 H49           -5.4169    -5.1409    -1.7110 H       
  50 H50           -3.7861    -7.8498    -3.1527 H       
@<TRIPOS>BOND
   1    1    2 ar
   2    1    6 ar
   3    1   20 1
   4    2    3 ar
   5    2   33 1
   6    3    4 ar
   7    3    8 1
   8    4    5 ar
   9    4    7 1
  10    5    6 ar
  11    5   34 1
  12    6   23 1
  13    7    9 1
  14    8    9 1
  15    8   11 1
  16    8   12 1
  17    9   35 1
  18    9   36 1
  19   10   11 ar
  20   10   13 1
  21   10   18 ar
  22   11   15 ar
  23   12   13 am
  24   12   14 2
  25   13   19 1
  26   15   16 ar
  27   15   37 1
  28   16   17 ar
  29   16   38 1
  30   17   18 ar
  31   17   39 1
  32   18   40 1
  33   19   24 1
  34   19   41 1
  35   19   42 1
  36   20   21 1
  37   21   22 1
  38   21   43 1
  39   21   44 1
  40   22   23 1
  41   22   45 1
  42   22   46 1
  43   24   25 ar
  44   24   29 ar
  45   25   26 ar
  46   26   27 ar
  47   26   47 1
  48   27   28 ar
  49   27   48 1
  50   28   29 ar
  51   28   49 1
  52   29   30 1
  53   30   31 1
  54   30   32 2
  55   31   50 1

#	End of record

