#	Name: ASD05430504
#	Creating user name:	WinNT
#	Creation time:	15. 06. 2019 21:00

#	Modifying user name:	WinNT
#	Modification time:	15. 06. 2019 21:00

#	Program:	/corina/corina34_cracker 3.40 0067  02.08.2006

@<TRIPOS>MOLECULE
ASD05430504
  61   65    0    0    0
SMALL
NO_CHARGES


@<TRIPOS>ATOM
   1 C1            -0.1253     1.0955    -0.5081 C.ar    
   2 C2            -0.0156    -0.0174     0.3263 C.ar    
   3 C3            -1.1113    -0.4475     1.0651 C.ar    
   4 C4            -2.3109     0.2228     0.9779 C.ar    
   5 C5            -2.4289     1.3409     0.1431 C.ar    
   6 C6            -1.3235     1.7768    -0.5969 C.ar    
   7 C7            -4.8659     1.3645    -0.0477 C.2     
   8 C8            -3.7079     2.0574     0.0480 C.2     
   9 O9             0.9488     1.5127    -1.2295 O.3     
  10 C10            0.7651     2.6589    -2.0629 C.3     
  11 C11            1.8537    -1.0531     1.5732 C.2     
  12 N12            1.2013    -0.7029     0.4191 N.pl3   
  13 C13            2.9793    -1.6942     1.2057 C.2     
  14 N14            3.0185    -1.7373    -0.1345 N.2     
  15 C15            1.9594    -1.1470    -0.6174 C.2     
  16 C16            4.0163    -2.2645     2.1387 C.3     
  17 C17           -8.6580     2.2501    -1.7206 C.ar    
  18 C18           -9.7762     2.8752    -2.2403 C.ar    
  19 C19           -7.6559     1.8097    -2.5651 C.ar    
  20 C20           -7.7708     1.9944    -3.9298 C.ar    
  21 C21           -8.8903     2.6203    -4.4514 C.ar    
  22 C22           -9.8935     3.0605    -3.6047 C.ar    
  23 F23           -9.0035     2.8017    -5.7854 F       
  24 C24           -6.0857     2.0706     0.0203 C.2     
  25 C25           -4.8026    -0.1200    -0.2275 C.3     
  26 C26           -6.1732    -0.7350    -0.4698 C.3     
  27 C27           -7.2377    -0.0562     0.3915 C.3     
  28 N28           -7.2662     1.3733     0.0680 N.pl3   
  29 C29           -8.5284     2.0542    -0.2321 C.3     
  30 C30           -8.5214     3.4180     0.4698 C.3     
  31 C31           -7.2039     4.0990     0.2006 C.2     
  32 N32           -6.0929     3.3979     0.0277 N.2     
  33 C33           -9.7007     1.2161     0.2820 C.3     
  34 O34           -7.1594     5.3125     0.1441 O.2     
  35 H35           -1.0218    -1.3099     1.7091 H       
  36 H36           -3.1608    -0.1139     1.5530 H       
  37 H37           -1.4096     2.6386    -1.2421 H       
  38 H38           -3.7237     3.1372     0.0545 H       
  39 H39            1.6970     2.8842    -2.5815 H       
  40 H40           -0.0173     2.4549    -2.7939 H       
  41 H41            0.4754     3.5118    -1.4491 H       
  42 H42            1.5294    -0.8497     2.5830 H       
  43 H43            1.7248    -1.0310    -1.6652 H       
  44 H44            3.7612    -3.2969     2.3781 H       
  45 H45            4.9939    -2.2339     1.6578 H       
  46 H46            4.0436    -1.6752     3.0553 H       
  47 H47          -10.5586     3.2185    -1.5796 H       
  48 H48           -6.7828     1.3216    -2.1580 H       
  49 H49           -6.9875     1.6509    -4.5893 H       
  50 H50          -10.7674     3.5485    -4.0104 H       
  51 H51           -4.1594    -0.3453    -1.0782 H       
  52 H52           -4.3692    -0.5657     0.6679 H       
  53 H53           -6.4365    -0.6198    -1.5212 H       
  54 H54           -6.1378    -1.7965    -0.2247 H       
  55 H55           -8.2125    -0.4961     0.1810 H       
  56 H56           -6.9947    -0.1908     1.4455 H       
  57 H57           -9.3351     4.0316     0.0833 H       
  58 H58           -8.6466     3.2767     1.5433 H       
  59 H59           -9.6083     1.0848     1.3601 H       
  60 H60          -10.6377     1.7256     0.0571 H       
  61 H61           -9.6914     0.2410    -0.2049 H       
@<TRIPOS>BOND
   1    1    2 ar
   2    1    9 1
   3    1    6 ar
   4    2    3 ar
   5    2   12 1
   6    3    4 ar
   7    3   35 1
   8    4    5 ar
   9    4   36 1
  10    5    6 ar
  11    5    8 1
  12    6   37 1
  13    7    8 2
  14    7   24 1
  15    7   25 1
  16    8   38 1
  17    9   10 1
  18   10   39 1
  19   10   40 1
  20   10   41 1
  21   11   12 1
  22   11   13 2
  23   11   42 1
  24   12   15 1
  25   13   14 1
  26   13   16 1
  27   14   15 2
  28   15   43 1
  29   16   44 1
  30   16   45 1
  31   16   46 1
  32   17   18 ar
  33   17   19 ar
  34   17   29 1
  35   18   22 ar
  36   18   47 1
  37   19   20 ar
  38   19   48 1
  39   20   21 ar
  40   20   49 1
  41   21   22 ar
  42   21   23 1
  43   22   50 1
  44   24   28 1
  45   24   32 2
  46   25   26 1
  47   25   51 1
  48   25   52 1
  49   26   27 1
  50   26   53 1
  51   26   54 1
  52   27   28 1
  53   27   55 1
  54   27   56 1
  55   28   29 1
  56   29   30 1
  57   29   33 1
  58   30   31 1
  59   30   57 1
  60   30   58 1
  61   31   32 1
  62   31   34 2
  63   33   59 1
  64   33   60 1
  65   33   61 1

#	End of record

