#	Name: ASD01140308
#	Creating user name:	WinNT
#	Creation time:	15. 06. 2019 19:00

#	Modifying user name:	WinNT
#	Modification time:	15. 06. 2019 19:00

#	Program:	/corina/corina34_cracker 3.40 0067  02.08.2006

@<TRIPOS>MOLECULE
ASD01140308
  41   43    0    0    0
SMALL
NO_CHARGES


@<TRIPOS>ATOM
   1 C1            -0.1021     1.5582    -0.1846 C.2     
   2 C2            -0.2082     0.2039    -0.1176 C.2     
   3 C3             0.9480    -0.5779     0.0415 C.2     
   4 C4             2.1601     0.0090     0.1279 C.2     
   5 C5             1.1712     2.1569    -0.0928 C.2     
   6 N6             1.5623     3.4222    -0.1265 N.2     
   7 N7             2.2816     1.3673     0.0627 N.pl3   
   8 C8             3.3646     2.1992     0.1223 C.2     
   9 C9             2.8974     3.4732     0.0027 C.2     
  10 C10            3.7231     4.7063     0.0131 C.ar    
  11 C11            3.2939     5.8287     0.7185 C.ar    
  12 C12            4.0648     6.9731     0.7255 C.ar    
  13 C13            5.2639     7.0073     0.0325 C.ar    
  14 C14            5.6945     5.8936    -0.6702 C.ar    
  15 C15            4.9327     4.7432    -0.6778 C.ar    
  16 C16            4.8040     1.7851     0.2886 C.3     
  17 C17            5.3844     1.4342    -1.0572 C.2     
  18 N18            6.6674     1.0331    -1.1539 N.am    
  19 O19            4.6969     1.5127    -2.0532 O.2     
  20 C20            7.2317     0.6920    -2.4621 C.3     
  21 C21            7.4979     0.9383     0.0493 C.3     
  22 C22            0.8342    -2.0787     0.1167 C.3     
  23 F23            6.0154     8.1300     0.0416 F       
  24 H24           -0.9839     2.1687    -0.3113 H       
  25 H25           -1.1771    -0.2684    -0.1861 H       
  26 H26            3.0425    -0.6017     0.2502 H       
  27 H27            2.3591     5.8031     1.2588 H       
  28 H28            3.7326     7.8436     1.2717 H       
  29 H29            6.6299     5.9245    -1.2091 H       
  30 H30            5.2712     3.8740    -1.2222 H       
  31 H31            5.3705     2.6074     0.7254 H       
  32 H32            4.8587     0.9169     0.9454 H       
  33 H33            7.1769     1.5602    -3.1189 H       
  34 H34            8.2728     0.3925    -2.3419 H       
  35 H35            6.6651    -0.1303    -2.8989 H       
  36 H36            7.4083    -0.0613     0.4747 H       
  37 H37            8.5387     1.1302    -0.2115 H       
  38 H38            7.1645     1.6753     0.7799 H       
  39 H39           -0.2130    -2.3685     0.0299 H       
  40 H40            1.4040    -2.5274    -0.6970 H       
  41 H41            1.2294    -2.4257     1.0714 H       
@<TRIPOS>BOND
   1    1    2 2
   2    1    5 1
   3    1   24 1
   4    2    3 1
   5    2   25 1
   6    3    4 2
   7    3   22 1
   8    4    7 1
   9    4   26 1
  10    5    7 1
  11    5    6 2
  12    6    9 1
  13    7    8 1
  14    8    9 2
  15    8   16 1
  16    9   10 1
  17   10   11 ar
  18   10   15 ar
  19   11   12 ar
  20   11   27 1
  21   12   13 ar
  22   12   28 1
  23   13   14 ar
  24   13   23 1
  25   14   15 ar
  26   14   29 1
  27   15   30 1
  28   16   17 1
  29   16   31 1
  30   16   32 1
  31   17   18 am
  32   17   19 2
  33   18   20 1
  34   18   21 1
  35   20   33 1
  36   20   34 1
  37   20   35 1
  38   21   36 1
  39   21   37 1
  40   21   38 1
  41   22   39 1
  42   22   40 1
  43   22   41 1

#	End of record

