#	Name: ASD08170322
#	Creating user name:	WinNT
#	Creation time:	15. 06. 2019 21:17

#	Modifying user name:	WinNT
#	Modification time:	15. 06. 2019 21:17

#	Program:	/corina/corina34_cracker 3.40 0067  02.08.2006

@<TRIPOS>MOLECULE
ASD08170322
  53   56    0    0    0
SMALL
NO_CHARGES


@<TRIPOS>ATOM
   1 C1            -0.0155     1.2910     0.0091 C.2     
   2 N2             0.0021    -0.0041     0.0020 N.2     
   3 N3            -1.1192    -0.5842     0.0100 N.2     
   4 C4            -2.1833     0.1604     0.0246 C.2     
   5 S5            -1.7028     1.8047     0.0357 S.3     
   6 C6             1.1892     2.1964     0.0025 C.3     
   7 C7             3.0988     3.6510    -1.5138 C.3     
   8 C8             3.6125     4.0548    -2.8718 C.2     
   9 S9             4.8229     3.1949    -3.8242 S.3     
  10 C10            4.6738     4.3823    -5.0500 C.2     
  11 N11            3.7945     5.2611    -4.6736 N.2     
  12 N12            3.2406     5.0926    -3.5517 N.2     
  13 N13            5.3779     4.4022    -6.2492 N.am    
  14 C14            5.1702     5.3955    -7.1361 C.2     
  15 C15            5.9332     5.4172    -8.4355 C.3     
  16 O16            4.3693     6.2720    -6.8885 O.2     
  17 C17            5.5194     6.6217    -9.2410 C.ar    
  18 C18            6.1950     7.8184    -9.0916 C.ar    
  19 C19            5.8154     8.9234    -9.8305 C.ar    
  20 C20            4.7604     8.8315   -10.7191 C.ar    
  21 C21            4.0854     7.6345   -10.8691 C.ar    
  22 C22            4.4678     6.5284   -10.1335 C.ar    
  23 N23           -3.4954    -0.3008     0.0352 N.am    
  24 C24           -3.7441    -1.6254     0.0311 C.2     
  25 C25           -5.1658    -2.1252     0.0425 C.3     
  26 O26           -2.8237    -2.4152     0.0182 O.2     
  27 C27           -5.1686    -3.6321     0.0351 C.ar    
  28 C28           -5.1581    -4.3292     1.2288 C.ar    
  29 C29           -5.1873    -4.3174    -1.1653 C.ar    
  30 C30           -5.1899    -5.6997    -1.1721 C.ar    
  31 C31           -5.1733    -6.3968     0.0215 C.ar    
  32 C32           -5.1607    -5.7115     1.2220 C.ar    
  33 S33            1.6559     2.5694    -1.7103 S.3     
  34 H34            0.9501     3.1232     0.5240 H       
  35 H35            2.0193     1.7002     0.5054 H       
  36 H36            3.8811     3.1185    -0.9730 H       
  37 H37            2.8119     4.5414    -0.9544 H       
  38 H38            6.0185     3.7013    -6.4472 H       
  39 H39            7.0021     5.4683    -8.2284 H       
  40 H40            5.7154     4.5104    -8.9999 H       
  41 H41            7.0192     7.8902    -8.3974 H       
  42 H42            6.3427     9.8585    -9.7132 H       
  43 H43            4.4634     9.6949   -11.2958 H       
  44 H44            3.2610     7.5628   -11.5631 H       
  45 H45            3.9404     5.5932   -10.2507 H       
  46 H46           -4.2314     0.3309     0.0455 H       
  47 H47           -5.6702    -1.7653     0.9393 H       
  48 H48           -5.6876    -1.7565    -0.8406 H       
  49 H49           -5.1476    -3.7938     2.1667 H       
  50 H50           -5.2003    -3.7727    -2.0978 H       
  51 H51           -5.2052    -6.2351    -2.1099 H       
  52 H52           -5.1756    -7.4768     0.0162 H       
  53 H53           -5.1477    -6.2562     2.1545 H       
@<TRIPOS>BOND
   1    1    2 2
   2    1    6 1
   3    1    5 1
   4    2    3 1
   5    3    4 2
   6    4    5 1
   7    4   23 1
   8    6   33 1
   9    6   34 1
  10    6   35 1
  11    7    8 1
  12    7   33 1
  13    7   36 1
  14    7   37 1
  15    8    9 1
  16    8   12 2
  17    9   10 1
  18   10   11 2
  19   10   13 1
  20   11   12 1
  21   13   14 am
  22   13   38 1
  23   14   15 1
  24   14   16 2
  25   15   17 1
  26   15   39 1
  27   15   40 1
  28   17   18 ar
  29   17   22 ar
  30   18   19 ar
  31   18   41 1
  32   19   20 ar
  33   19   42 1
  34   20   21 ar
  35   20   43 1
  36   21   22 ar
  37   21   44 1
  38   22   45 1
  39   23   24 am
  40   23   46 1
  41   24   25 1
  42   24   26 2
  43   25   27 1
  44   25   47 1
  45   25   48 1
  46   27   28 ar
  47   27   29 ar
  48   28   32 ar
  49   28   49 1
  50   29   30 ar
  51   29   50 1
  52   30   31 ar
  53   30   51 1
  54   31   32 ar
  55   31   52 1
  56   32   53 1

#	End of record

