#	Name: ASD09116113
#	Creating user name:	WinNT
#	Creation time:	15. 06. 2019 21:20

#	Modifying user name:	WinNT
#	Modification time:	15. 06. 2019 21:20

#	Program:	/corina/corina34_cracker 3.40 0067  02.08.2006

@<TRIPOS>MOLECULE
ASD09116113
  43   45    0    0    0
SMALL
NO_CHARGES


@<TRIPOS>ATOM
   1 C1            -1.0483    -0.4731     0.7380 C.2     
   2 N2             0.0021    -0.0041     0.0020 N.pl3   
   3 O3            -0.8584    -1.4718     1.6227 O.3     
   4 N4            -2.2471     0.0549     0.5870 N.2     
   5 C5             3.7038    -1.8912     0.2235 C.ar    
   6 C6             2.5531    -2.6277     0.3437 C.ar    
   7 C7             2.6278    -4.1258     0.5550 C.3     
   8 C8             3.1497    -4.3905     1.9694 C.3     
   9 C9             4.6653    -4.3805     1.9985 C.3     
  10 C10            5.2882    -3.0217     1.7461 C.3     
  11 C11            5.0544    -2.5726     0.3012 C.3     
  12 C12            1.3177    -2.0118     0.2721 C.ar    
  13 C13            1.2468    -0.6376     0.0770 C.ar    
  14 C14            2.4137     0.1055    -0.0438 C.ar    
  15 C15            3.6428    -0.5227     0.0247 C.ar    
  16 N16            5.1092    -4.8594     3.3143 N.3     
  17 C17            6.5775    -4.9852     3.3631 C.3     
  18 C18            7.0720    -4.1156     4.5381 C.3     
  19 C19            5.8147    -3.9979     5.4392 C.3     
  20 C20            4.6799    -3.9365     4.3866 C.3     
  21 C21           -3.2893    -0.4105     1.3173 C.1     
  22 N22           -4.1630    -0.8007     1.9296 N.1     
  23 H23           -0.1151     0.7684    -0.5728 H       
  24 H24            1.6348    -4.5614     0.4435 H       
  25 H25            3.3079    -4.5652    -0.1747 H       
  26 H26            2.7735    -3.6183     2.6403 H       
  27 H27            2.7914    -5.3629     2.3072 H       
  28 H28            5.0302    -5.0742     1.2410 H       
  29 H29            4.8444    -2.2927     2.4241 H       
  30 H30            6.3603    -3.0786     1.9345 H       
  31 H31            5.0656    -3.4400    -0.3588 H       
  32 H32            5.8355    -1.8727     0.0044 H       
  33 H33            0.4135    -2.5947     0.3668 H       
  34 H34            2.3607     1.1735    -0.1956 H       
  35 H35            4.5519     0.0529    -0.0682 H       
  36 H36            6.8551    -6.0260     3.5295 H       
  37 H37            7.0114    -4.6281     2.4291 H       
  38 H38            7.8828    -4.6125     5.0708 H       
  39 H39            7.3864    -3.1334     4.1850 H       
  40 H40            5.7082    -4.8750     6.0774 H       
  41 H41            5.8449    -3.0852     6.0344 H       
  42 H42            4.5780    -2.9235     3.9971 H       
  43 H43            3.7392    -4.2727     4.8226 H       
@<TRIPOS>BOND
   1    1    2 1
   2    1    3 1
   3    1    4 2
   4    2   13 1
   5    2   23 1
   6    4   21 1
   7    5    6 ar
   8    5   11 1
   9    5   15 ar
  10    6    7 1
  11    6   12 ar
  12    7    8 1
  13    7   24 1
  14    7   25 1
  15    8    9 1
  16    8   26 1
  17    8   27 1
  18    9   10 1
  19    9   16 1
  20    9   28 1
  21   10   11 1
  22   10   29 1
  23   10   30 1
  24   11   31 1
  25   11   32 1
  26   12   13 ar
  27   12   33 1
  28   13   14 ar
  29   14   15 ar
  30   14   34 1
  31   15   35 1
  32   16   17 1
  33   16   20 1
  34   17   18 1
  35   17   36 1
  36   17   37 1
  37   18   19 1
  38   18   38 1
  39   18   39 1
  40   19   20 1
  41   19   40 1
  42   19   41 1
  43   20   42 1
  44   20   43 1
  45   21   22 3

#	End of record

