#	Name: ASD01912550
#	Creating user name:	WinNT
#	Creation time:	15. 06. 2019 19:59

#	Modifying user name:	WinNT
#	Modification time:	15. 06. 2019 19:59

#	Program:	/corina/corina34_cracker 3.40 0067  02.08.2006

@<TRIPOS>MOLECULE
ASD01912550
  62   65    0    0    0
SMALL
NO_CHARGES


@<TRIPOS>ATOM
   1 C1            -0.0187     1.5258     0.0104 C.3     
   2 C2             0.0021    -0.0041     0.0020 C.3     
   3 C3             1.3951     2.0474    -0.0003 C.2     
   4 N4             2.1174     2.4057     1.0830 N.pl3   
   5 C5             2.1648     2.2333    -1.0947 C.2     
   6 C6             3.4105     2.7323    -0.6668 C.2     
   7 N7             3.3770     2.8343     0.6451 N.2     
   8 C8             4.5595     3.0778    -1.5404 C.ar    
   9 C9             5.7398     3.5645    -0.9824 C.ar    
  10 C10            4.4629     2.9111    -2.9203 C.ar    
  11 C11            5.5337     3.2331    -3.7288 C.ar    
  12 C12            6.7038     3.7212    -3.1702 C.ar    
  13 C13            6.8058     3.8840    -1.7981 C.ar    
  14 C14            1.6623     2.3556     2.4746 C.3     
  15 C15            1.9966     1.0096     3.0643 C.2     
  16 N16            1.6700     0.7340     4.3425 N.am    
  17 O17            2.5596     0.1745     2.3887 O.2     
  18 C18            1.9870    -0.5731     4.9377 C.3     
  19 C19            2.7200    -0.3396     6.2630 C.3     
  20 N20            1.9181     0.5514     7.1120 N.3     
  21 C21            1.7594     1.8751     6.4951 C.3     
  22 C22            0.9925     1.7345     5.1811 C.3     
  23 C23            2.4682     0.6571     8.3803 C.ar    
  24 N24            1.8717     1.4238     9.2804 N.ar    
  25 C25            2.3682     1.5478    10.5004 C.ar    
  26 C26            3.5305     0.8605    10.8311 C.ar    
  27 C27            4.1287     0.0653     9.8604 C.ar    
  28 N28            3.5735    -0.0156     8.6622 N.ar    
  29 F29            7.7501     4.0349    -3.9653 F       
  30 C30            5.4305     3.0531    -5.2214 C.3     
  31 C31            8.0811     4.4153    -1.1962 C.3     
  32 O32            4.0702     0.9642    12.0754 O.3     
  33 C33            5.2658     0.2233    12.3278 C.3     
  34 H34           -0.5459     1.8868    -0.8726 H       
  35 H35           -0.5289     1.8773     0.9072 H       
  36 H36            0.5123    -0.3556    -0.8948 H       
  37 H37            0.5293    -0.3651     0.8851 H       
  38 H38           -1.0205    -0.3814     0.0098 H       
  39 H39            1.8765     2.0341    -2.1163 H       
  40 H40            5.8202     3.6917     0.0871 H       
  41 H41            3.5514     2.5300    -3.3565 H       
  42 H42            2.1603     3.1374     3.0481 H       
  43 H43            0.5839     2.5100     2.5100 H       
  44 H44            1.0652    -1.1250     5.1213 H       
  45 H45            2.6268    -1.1385     4.2600 H       
  46 H46            2.8652    -1.2929     6.7712 H       
  47 H47            3.6889     0.1196     6.0668 H       
  48 H48            1.2079     2.5279     7.1716 H       
  49 H49            2.7417     2.3035     6.2956 H       
  50 H50            0.9721     2.6942     4.6647 H       
  51 H51           -0.0258     1.4036     5.3851 H       
  52 H52            1.8772     2.1749    11.2298 H       
  53 H53            5.0325    -0.4826    10.0827 H       
  54 H54            5.0484     3.9691    -5.6722 H       
  55 H55            6.4164     2.8311    -5.6297 H       
  56 H56            4.7519     2.2291    -5.4419 H       
  57 H57            8.0301     5.5026    -1.1383 H       
  58 H58            8.2094     4.0038    -0.1951 H       
  59 H59            8.9262     4.1240    -1.8199 H       
  60 H60            6.0472     0.5496    11.6415 H       
  61 H61            5.5893     0.3943    13.3546 H       
  62 H62            5.0728    -0.8393    12.1799 H       
@<TRIPOS>BOND
   1    1    2 1
   2    1    3 1
   3    1   34 1
   4    1   35 1
   5    2   36 1
   6    2   37 1
   7    2   38 1
   8    3    4 1
   9    3    5 2
  10    4   14 1
  11    4    7 1
  12    5    6 1
  13    5   39 1
  14    6    7 2
  15    6    8 1
  16    8    9 ar
  17    8   10 ar
  18    9   13 ar
  19    9   40 1
  20   10   11 ar
  21   10   41 1
  22   11   12 ar
  23   11   30 1
  24   12   13 ar
  25   12   29 1
  26   13   31 1
  27   14   15 1
  28   14   42 1
  29   14   43 1
  30   15   16 am
  31   15   17 2
  32   16   18 1
  33   16   22 1
  34   18   19 1
  35   18   44 1
  36   18   45 1
  37   19   20 1
  38   19   46 1
  39   19   47 1
  40   20   21 1
  41   20   23 1
  42   21   22 1
  43   21   48 1
  44   21   49 1
  45   22   50 1
  46   22   51 1
  47   23   24 ar
  48   23   28 ar
  49   24   25 ar
  50   25   26 ar
  51   25   52 1
  52   26   27 ar
  53   26   32 1
  54   27   28 ar
  55   27   53 1
  56   30   54 1
  57   30   55 1
  58   30   56 1
  59   31   57 1
  60   31   58 1
  61   31   59 1
  62   32   33 1
  63   33   60 1
  64   33   61 1
  65   33   62 1

#	End of record

