#	Name: ASD03331581
#	Creating user name:	WinNT
#	Creation time:	15. 06. 2019 20:39

#	Modifying user name:	WinNT
#	Modification time:	15. 06. 2019 20:39

#	Program:	/corina/corina34_cracker 3.40 0067  02.08.2006

@<TRIPOS>MOLECULE
ASD03331581
  56   58    0    0    0
SMALL
NO_CHARGES


@<TRIPOS>ATOM
   1 C1             0.0036     0.8341     1.4892 C.ar    
   2 C2             0.0046    -0.5785     1.0502 C.2     
   3 N3            -1.0492    -1.4412     1.1412 N.pl3   
   4 C4            -0.6341    -2.6410     0.6541 C.2     
   5 C5             0.6560    -2.4860     0.2483 C.2     
   6 N6             1.0171    -1.2092     0.5032 N.2     
   7 C7             1.5047    -3.5232    -0.3642 C.2     
   8 O8             1.0620    -4.6410    -0.5479 O.2     
   9 N9             2.7717    -3.2332    -0.7209 N.am    
  10 C10            3.6155    -4.2644    -1.3298 C.3     
  11 C11            5.0655    -3.9400    -1.0784 C.2     
  12 C12           -2.3914    -1.1380     1.6473 C.3     
  13 C13           -3.0256    -2.4201     2.1938 C.3     
  14 C14           -3.7038    -3.1858     1.0597 C.3     
  15 O15           -2.7555    -3.5821     0.0760 O.3     
  16 C16           -1.4629    -3.8978     0.6047 C.3     
  17 C17            3.3571    -4.3103    -2.8372 C.3     
  18 C18            3.6285    -2.9319    -3.4433 C.3     
  19 C19            4.2839    -5.3425    -3.4823 C.3     
  20 C20            1.9005    -4.7022    -3.0932 C.3     
  21 C21            1.2095     1.4924     1.7316 C.ar    
  22 C22            1.2026     2.8116     2.1414 C.ar    
  23 C23           -0.0013     3.4803     2.3121 C.ar    
  24 C24           -1.2005     2.8292     2.0726 C.ar    
  25 C25           -1.2034     1.5141     1.6566 C.ar    
  26 N26            6.0027    -4.9003    -1.2049 N.am    
  27 F27           -0.0040     4.7703     2.7135 F       
  28 F28            2.3691     3.4512     2.3767 F       
  29 O29            5.3892    -2.8147    -0.7622 O.2     
  30 C30            7.3978    -4.6119    -0.8634 C.3     
  31 H31            3.1248    -2.3418    -0.5744 H       
  32 H32            3.3786    -5.2336    -0.8910 H       
  33 H33           -2.3214    -0.3981     2.4446 H       
  34 H34           -3.0057    -0.7446     0.8374 H       
  35 H35           -2.2523    -3.0447     2.6410 H       
  36 H36           -3.7661    -2.1637     2.9514 H       
  37 H37           -4.1897    -4.0726     1.4666 H       
  38 H38           -4.4556    -2.5473     0.5958 H       
  39 H39           -0.9753    -4.6314    -0.0372 H       
  40 H40           -1.5695    -4.3043     1.6105 H       
  41 H41            4.6662    -2.6527    -3.2609 H       
  42 H42            3.4444    -2.9646    -4.5171 H       
  43 H43            2.9682    -2.1965    -2.9837 H       
  44 H44            4.0934    -6.3238    -3.0476 H       
  45 H45            4.0970    -5.3781    -4.5556 H       
  46 H46            5.3217    -5.0612    -3.3034 H       
  47 H47            1.2402    -3.9668    -2.6336 H       
  48 H48            1.7164    -4.7348    -4.1671 H       
  49 H49            1.7071    -5.6842    -2.6614 H       
  50 H50            2.1464     0.9717     1.5994 H       
  51 H51           -2.1348     3.3539     2.2072 H       
  52 H52           -2.1392     1.0081     1.4704 H       
  53 H53            5.7534    -5.7825    -1.5220 H       
  54 H54            7.7655    -3.8007    -1.4919 H       
  55 H55            7.4621    -4.3176     0.1841 H       
  56 H56            8.0039    -5.5027    -1.0284 H       
@<TRIPOS>BOND
   1    1    2 1
   2    1   21 ar
   3    1   25 ar
   4    2    3 1
   5    2    6 2
   6    3    4 1
   7    3   12 1
   8    4    5 2
   9    4   16 1
  10    5    6 1
  11    5    7 1
  12    7    8 2
  13    7    9 am
  14    9   10 1
  15    9   31 1
  16   10   11 1
  17   10   17 1
  18   10   32 1
  19   11   26 am
  20   11   29 2
  21   12   13 1
  22   12   33 1
  23   12   34 1
  24   13   14 1
  25   13   35 1
  26   13   36 1
  27   14   15 1
  28   14   37 1
  29   14   38 1
  30   15   16 1
  31   16   39 1
  32   16   40 1
  33   17   18 1
  34   17   19 1
  35   17   20 1
  36   18   41 1
  37   18   42 1
  38   18   43 1
  39   19   44 1
  40   19   45 1
  41   19   46 1
  42   20   47 1
  43   20   48 1
  44   20   49 1
  45   21   22 ar
  46   21   50 1
  47   22   23 ar
  48   22   28 1
  49   23   24 ar
  50   23   27 1
  51   24   25 ar
  52   24   51 1
  53   25   52 1
  54   26   30 1
  55   26   53 1
  56   30   54 1
  57   30   55 1
  58   30   56 1

#	End of record

