#	Name: ASD01882466
#	Creating user name:	WinNT
#	Creation time:	15. 06. 2019 19:44

#	Modifying user name:	WinNT
#	Modification time:	15. 06. 2019 19:44

#	Program:	/corina/corina34_cracker 3.40 0067  02.08.2006

@<TRIPOS>MOLECULE
ASD01882466
  58   62    0    0    0
SMALL
NO_CHARGES


@<TRIPOS>ATOM
   1 C1            -0.2538     1.0980    -0.0034 C.2     
   2 C2             0.1164    -0.1891     0.4317 C.2     
   3 C3             1.4314    -0.5369     0.4336 C.2     
   4 C4             2.3980     0.3883     0.0034 C.2     
   5 C5             2.0284     1.6185    -0.4105 C.2     
   6 N6             0.7135     1.9804    -0.4180 N.pl3   
   7 N7            -1.2224     2.9082    -0.5753 N.2     
   8 N8            -1.4160     1.7184    -0.1251 N.2     
   9 C9             0.0540     3.1171    -0.7706 C.2     
  10 C10           -0.9320    -1.1696     0.8905 C.3     
  11 F11           -0.7477    -1.4478     2.2491 F       
  12 F12           -2.2030    -0.6183     0.6957 F       
  13 F13           -0.8187    -2.3527     0.1526 F       
  14 C14            1.8503    -1.9088     0.8956 C.3     
  15 C15            2.7694    -2.5410    -0.1515 C.3     
  16 N16            2.5670    -1.7976     2.1731 N.3     
  17 C17            2.7381    -3.1159     2.7970 C.3     
  18 C18            3.3556    -2.9475     4.1871 C.3     
  19 C19            4.7095    -2.2441     4.0570 C.3     
  20 C20            4.5100    -0.8951     3.3608 C.3     
  21 C21            3.8590    -1.1229     1.9946 C.3     
  22 C22            5.2952    -2.0218     5.4276 C.ar    
  23 C23            6.5162    -2.5802     5.7564 C.ar    
  24 C24            7.0535    -2.3763     7.0136 C.ar    
  25 C25            6.3699    -1.6136     7.9420 C.ar    
  26 C26            5.1493    -1.0544     7.6129 C.ar    
  27 C27            4.6141    -1.2547     6.3542 C.ar    
  28 C28            0.6797     4.3845    -1.2933 C.3     
  29 C29            0.7630     4.3203    -2.8197 C.3     
  30 C30            1.2638     5.5664    -3.5529 C.3     
  31 C31            2.1562     4.3277    -3.4521 C.3     
  32 H32            3.4425     0.1133     0.0044 H       
  33 H33            2.7796     2.3216    -0.7387 H       
  34 H34            0.9667    -2.5331     1.0279 H       
  35 H35            3.6530    -1.9167    -0.2837 H       
  36 H36            3.0724    -3.5333     0.1827 H       
  37 H37            2.2376    -2.6235    -1.0993 H       
  38 H38            1.7675    -3.6036     2.8874 H       
  39 H39            3.3956    -3.7275     2.1792 H       
  40 H40            2.6921    -2.3475     4.8098 H       
  41 H41            3.4969    -3.9272     4.6436 H       
  42 H42            5.3859    -2.8622     3.4667 H       
  43 H43            3.8647    -0.2627     3.9705 H       
  44 H44            5.4761    -0.4083     3.2269 H       
  45 H45            4.5113    -1.7439     1.3806 H       
  46 H46            3.7026    -0.1631     1.5023 H       
  47 H47            7.0503    -3.1761     5.0311 H       
  48 H48            8.0072    -2.8132     7.2707 H       
  49 H49            6.7893    -1.4548     8.9245 H       
  50 H50            4.6151    -0.4587     8.3383 H       
  51 H51            3.6622    -0.8148     6.0959 H       
  52 H52            0.0705     5.2389    -0.9983 H       
  53 H53            1.6821     4.4926    -0.8790 H       
  54 H54           -0.0085     3.7251    -3.3080 H       
  55 H55            0.8219     5.7906    -4.5238 H       
  56 H56            1.5338     6.4319    -2.9479 H       
  57 H57            3.0134     4.3783    -2.7807 H       
  58 H58            2.3015     3.7371    -4.3566 H       
@<TRIPOS>BOND
   1    1    2 1
   2    1    6 1
   3    1    8 2
   4    2    3 2
   5    2   10 1
   6    3    4 1
   7    3   14 1
   8    4    5 2
   9    4   32 1
  10    5    6 1
  11    5   33 1
  12    6    9 1
  13    7    8 1
  14    7    9 2
  15    9   28 1
  16   10   11 1
  17   10   12 1
  18   10   13 1
  19   14   15 1
  20   14   16 1
  21   14   34 1
  22   15   35 1
  23   15   36 1
  24   15   37 1
  25   16   17 1
  26   16   21 1
  27   17   18 1
  28   17   38 1
  29   17   39 1
  30   18   19 1
  31   18   40 1
  32   18   41 1
  33   19   20 1
  34   19   22 1
  35   19   42 1
  36   20   21 1
  37   20   43 1
  38   20   44 1
  39   21   45 1
  40   21   46 1
  41   22   23 ar
  42   22   27 ar
  43   23   24 ar
  44   23   47 1
  45   24   25 ar
  46   24   48 1
  47   25   26 ar
  48   25   49 1
  49   26   27 ar
  50   26   50 1
  51   27   51 1
  52   28   29 1
  53   28   52 1
  54   28   53 1
  55   29   30 1
  56   29   31 1
  57   29   54 1
  58   30   31 1
  59   30   55 1
  60   30   56 1
  61   31   57 1
  62   31   58 1

#	End of record

