#	Name: ASD07931918
#	Creating user name:	WinNT
#	Creation time:	15. 06. 2019 21:13

#	Modifying user name:	WinNT
#	Modification time:	15. 06. 2019 21:13

#	Program:	/corina/corina34_cracker 3.40 0067  02.08.2006

@<TRIPOS>MOLECULE
ASD07931918
  30   32    0    0    0
SMALL
NO_CHARGES


@<TRIPOS>ATOM
   1 O1             0.5539     1.4543    -0.3685 O.3     
   2 N2             0.5696    -0.0225    -0.3593 N.3     
   3 C3             1.4337    -0.4026     0.7815 C.3     
   4 C4             2.3699     0.8206     0.9964 C.3     
   5 C5             1.9173     1.8353    -0.0760 C.3     
   6 O6             0.6039     0.9072     2.5740 O.3     
   7 C7             0.5769    -0.4436     2.0649 C.3     
   8 C8             1.9629     1.3570     2.3860 C.3     
   9 C9             2.0251     2.8856     2.4055 C.3     
  10 F10            1.0274     3.4036     1.5728 F       
  11 F11            1.8261     3.3437     3.7123 F       
  12 F12            3.2786     3.3072     1.9494 F       
  13 C13            2.1915    -1.6814     0.5338 C.ar    
  14 C14            3.0621    -2.1671     1.4940 C.ar    
  15 C15            3.7586    -3.3438     1.2645 C.ar    
  16 C16            3.5818    -4.0303     0.0757 C.ar    
  17 C17            2.7117    -3.5426    -0.8811 C.ar    
  18 C18            2.0129    -2.3723    -0.6499 C.ar    
  19 F19            4.6092    -3.8195     2.2001 F       
  20 F20            3.2333    -1.4951     2.6534 F       
  21 H21           -0.3620    -0.3934    -0.2465 H       
  22 H22            3.4275     0.5676     0.9213 H       
  23 H23            2.5374     1.7497    -0.9684 H       
  24 H24            1.9537     2.8504     0.3194 H       
  25 H25           -0.4453    -0.7392     1.8287 H       
  26 H26            1.0131    -1.1306     2.7899 H       
  27 H27            2.6103     0.9405     3.1577 H       
  28 H28            4.1240    -4.9468    -0.1044 H       
  29 H29            2.5742    -4.0788    -1.8085 H       
  30 H30            1.3301    -1.9951    -1.3969 H       
@<TRIPOS>BOND
   1    1    2 1
   2    1    5 1
   3    2    3 1
   4    2   21 1
   5    3    4 1
   6    3    7 1
   7    3   13 1
   8    4    5 1
   9    4    8 1
  10    4   22 1
  11    5   23 1
  12    5   24 1
  13    6    7 1
  14    6    8 1
  15    7   25 1
  16    7   26 1
  17    8    9 1
  18    8   27 1
  19    9   10 1
  20    9   11 1
  21    9   12 1
  22   13   14 ar
  23   13   18 ar
  24   14   15 ar
  25   14   20 1
  26   15   16 ar
  27   15   19 1
  28   16   17 ar
  29   16   28 1
  30   17   18 ar
  31   17   29 1
  32   18   30 1

#	End of record

