#	Name: ASD01901221
#	Creating user name:	WinNT
#	Creation time:	15. 06. 2019 19:53

#	Modifying user name:	WinNT
#	Modification time:	15. 06. 2019 19:53

#	Program:	/corina/corina34_cracker 3.40 0067  02.08.2006

@<TRIPOS>MOLECULE
ASD01901221
  29   31    0    0    0
SMALL
NO_CHARGES


@<TRIPOS>ATOM
   1 C1            -0.0167     1.3793     0.0096 C.ar    
   2 C2             0.0021    -0.0041     0.0020 C.ar    
   3 C3             1.2036    -0.6812    -0.0131 C.ar    
   4 C4             2.4050     0.0333    -0.0208 C.ar    
   5 C5             2.3792     1.4310    -0.0131 C.ar    
   6 C6             1.1694     2.0949     0.0021 C.ar    
   7 C7             3.6561    -0.6631    -0.0361 C.1     
   8 C8             4.6819    -1.2340    -0.0486 C.1     
   9 C9             5.9331    -1.9304    -0.0639 C.ar    
  10 C10            7.2083    -1.2097    -0.0722 C.ar    
  11 C11            8.4081    -1.9617    -0.0873 C.ar    
  12 N12            8.3566    -3.2975    -0.0940 N.ar    
  13 C13            7.2244    -3.9575    -0.0871 C.ar    
  14 C14            5.9898    -3.3247    -0.0656 C.ar    
  15 Cl15           1.1339     3.8305     0.0119 Cl      
  16 C16            9.6376    -1.2809    -0.0954 C.ar    
  17 C17            9.6554     0.0808    -0.0887 C.ar    
  18 C18            8.4726     0.8149    -0.0734 C.ar    
  19 C19            7.2614     0.1873    -0.0661 C.ar    
  20 H20           -0.9607     1.9038     0.0169 H       
  21 H21           -0.9267    -0.5553     0.0083 H       
  22 H22            1.2162    -1.7611    -0.0187 H       
  23 H23            3.3034     1.9897    -0.0186 H       
  24 H24            7.2536    -5.0371    -0.0932 H       
  25 H25            5.0800    -3.9065    -0.0553 H       
  26 H26           10.5644    -1.8353    -0.1065 H       
  27 H27           10.6025     0.5997    -0.0950 H       
  28 H28            8.5144     1.8940    -0.0680 H       
  29 H29            6.3495     0.7658    -0.0549 H       
@<TRIPOS>BOND
   1    1    2 ar
   2    1    6 ar
   3    1   20 1
   4    2    3 ar
   5    2   21 1
   6    3    4 ar
   7    3   22 1
   8    4    5 ar
   9    4    7 1
  10    5    6 ar
  11    5   23 1
  12    6   15 1
  13    7    8 3
  14    8    9 1
  15    9   10 ar
  16    9   14 ar
  17   10   11 ar
  18   10   19 ar
  19   11   12 ar
  20   11   16 ar
  21   12   13 ar
  22   13   14 ar
  23   13   24 1
  24   14   25 1
  25   16   17 ar
  26   16   26 1
  27   17   18 ar
  28   17   27 1
  29   18   19 ar
  30   18   28 1
  31   19   29 1

#	End of record

