#	Name: ASD08150300
#	Creating user name:	WinNT
#	Creation time:	15. 06. 2019 21:15

#	Modifying user name:	WinNT
#	Modification time:	15. 06. 2019 21:15

#	Program:	/corina/corina34_cracker 3.40 0067  02.08.2006

@<TRIPOS>MOLECULE
ASD08150300
  25   25    0    0    0
SMALL
NO_CHARGES


@<TRIPOS>ATOM
   1 N1            -0.0178     1.4648     0.0101 N.3     
   2 C2             0.0021    -0.0041     0.0020 C.3     
   3 C3             0.7182    -0.4975    -1.2568 C.3     
   4 O4             0.3871    -1.1865     3.4568 O.3     
   5 C5             0.8809    -2.2842     2.6780 C.3     
   6 O6             0.7516    -1.9581     1.2839 O.3     
   7 C7             0.7421    -0.5109     1.2415 C.3     
   8 C8            -0.0381    -0.1633     2.5340 C.3     
   9 C9             2.3531    -2.5314     3.0136 C.3     
  10 C10            0.0677    -3.5422     2.9892 C.3     
  11 H11            0.9191     1.8392     0.0032 H       
  12 H12           -0.5563     1.8234    -0.7642 H       
  13 H13           -1.0205    -0.3814     0.0098 H       
  14 H14            1.7408    -0.1202    -1.2645 H       
  15 H15            0.7330    -1.5874    -1.2628 H       
  16 H16            0.1910    -0.1364    -2.1398 H       
  17 H17            1.7561    -0.1127     1.2788 H       
  18 H18           -1.1129    -0.2217     2.3626 H       
  19 H19            0.2418     0.8249     2.8989 H       
  20 H20            2.4465    -2.7925     4.0677 H       
  21 H21            2.7329    -3.3494     2.4016 H       
  22 H22            2.9286    -1.6282     2.8107 H       
  23 H23           -0.9839    -3.3589     2.7689 H       
  24 H24            0.4285    -4.3688     2.3770 H       
  25 H25            0.1793    -3.7954     4.0435 H       
@<TRIPOS>BOND
   1    1    2 1
   2    1   11 1
   3    1   12 1
   4    2    3 1
   5    2    7 1
   6    2   13 1
   7    3   14 1
   8    3   15 1
   9    3   16 1
  10    4    5 1
  11    4    8 1
  12    5    6 1
  13    5    9 1
  14    5   10 1
  15    6    7 1
  16    7    8 1
  17    7   17 1
  18    8   18 1
  19    8   19 1
  20    9   20 1
  21    9   21 1
  22    9   22 1
  23   10   23 1
  24   10   24 1
  25   10   25 1

#	End of record

