#	Name: ASD01120021
#	Creating user name:	WinNT
#	Creation time:	15. 06. 2019 18:58

#	Modifying user name:	WinNT
#	Modification time:	15. 06. 2019 18:58

#	Program:	/corina/corina34_cracker 3.40 0067  02.08.2006

@<TRIPOS>MOLECULE
ASD01120021
  55   58    0    0    0
SMALL
NO_CHARGES


@<TRIPOS>ATOM
   1 C1            -0.0903     1.3499     0.6470 C.ar    
   2 C2            -0.0522    -0.0392     0.4628 C.ar    
   3 C3            -1.1845    -0.7312     0.0936 C.ar    
   4 C4            -2.3852    -0.0371    -0.0986 C.ar    
   5 C5            -2.4161     1.3670     0.0899 C.ar    
   6 C6            -1.2523     2.0459     0.4703 C.ar    
   7 N7            -3.5160    -0.6643    -0.4589 N.ar    
   8 C8            -4.6259     0.0130    -0.6320 C.ar    
   9 N9            -4.7022     1.3241    -0.4674 N.ar    
  10 C10           -3.6440     2.0409    -0.1121 C.ar    
  11 N11           -3.7382     3.4079     0.0565 N.pl3   
  12 C12           -4.9822     4.0392    -0.0337 C.ar    
  13 C13           -6.1281     3.3760     0.3786 C.ar    
  14 C14           -7.3652     4.0094     0.2871 C.ar    
  15 C15           -7.4444     5.3063    -0.2183 C.ar    
  16 C16           -6.2987     5.9596    -0.6271 C.ar    
  17 C17           -5.0703     5.3342    -0.5315 C.ar    
  18 C18           -8.5950     3.3060     0.7258 C.2     
  19 O19            1.0408     2.0111     1.0112 O.3     
  20 O20            1.1141    -0.7102     0.6500 O.3     
  21 C21           -9.8190     3.8621     0.6634 C.2     
  22 S22          -10.9827     2.6920     1.2789 S.3     
  23 C23           -9.7276     1.5677     1.5630 C.2     
  24 N24           -8.5868     2.0641     1.2119 N.2     
  25 C25            0.9382     3.4259     1.1835 C.3     
  26 C26            2.3009     3.9904     1.5899 C.3     
  27 C27            1.0887    -2.1244     0.4470 C.3     
  28 C28            2.4827    -2.7013     0.7020 C.3     
  29 O29           -9.9042     0.3271     2.0792 O.3     
  30 C30          -11.2419    -0.0558     2.4045 C.3     
  31 C31          -11.2423    -1.4775     2.9698 C.3     
  32 H32           -1.1464    -1.8013    -0.0470 H       
  33 H33           -1.2712     3.1160     0.6151 H       
  34 H34           -5.5174    -0.5231    -0.9223 H       
  35 H35           -2.9412     3.9303     0.2376 H       
  36 H36           -6.0615     2.3713     0.7691 H       
  37 H37           -8.4023     5.8000    -0.2904 H       
  38 H38           -6.3625     6.9639    -1.0190 H       
  39 H39           -4.1772     5.8496    -0.8527 H       
  40 H40          -10.0476     4.8530     0.2997 H       
  41 H41            0.6199     3.8839     0.2470 H       
  42 H42            0.2073     3.6451     1.9619 H       
  43 H43            2.6192     3.5324     2.5264 H       
  44 H44            3.0318     3.7712     0.8115 H       
  45 H45            2.2227     5.0696     1.7213 H       
  46 H46            0.3763    -2.5777     1.1362 H       
  47 H47            0.7888    -2.3390    -0.5788 H       
  48 H48            3.1952    -2.2481     0.0128 H       
  49 H49            2.7826    -2.4868     1.7277 H       
  50 H50            2.4633    -3.7801     0.5471 H       
  51 H51          -11.6459     0.6310     3.1482 H       
  52 H52          -11.8582    -0.0220     1.5060 H       
  53 H53          -10.8384    -2.1644     2.2261 H       
  54 H54          -10.6260    -1.5114     3.8683 H       
  55 H55          -12.2627    -1.7696     3.2180 H       
@<TRIPOS>BOND
   1    1    2 ar
   2    1   19 1
   3    1    6 ar
   4    2    3 ar
   5    2   20 1
   6    3    4 ar
   7    3   32 1
   8    4    5 ar
   9    4    7 ar
  10    5    6 ar
  11    5   10 ar
  12    6   33 1
  13    7    8 ar
  14    8    9 ar
  15    8   34 1
  16    9   10 ar
  17   10   11 1
  18   11   12 1
  19   11   35 1
  20   12   13 ar
  21   12   17 ar
  22   13   14 ar
  23   13   36 1
  24   14   15 ar
  25   14   18 1
  26   15   16 ar
  27   15   37 1
  28   16   17 ar
  29   16   38 1
  30   17   39 1
  31   18   21 2
  32   18   24 1
  33   19   25 1
  34   20   27 1
  35   21   22 1
  36   21   40 1
  37   22   23 1
  38   23   24 2
  39   23   29 1
  40   25   26 1
  41   25   41 1
  42   25   42 1
  43   26   43 1
  44   26   44 1
  45   26   45 1
  46   27   28 1
  47   27   46 1
  48   27   47 1
  49   28   48 1
  50   28   49 1
  51   28   50 1
  52   29   30 1
  53   30   31 1
  54   30   51 1
  55   30   52 1
  56   31   53 1
  57   31   54 1
  58   31   55 1

#	End of record

