#	Name: ASD01816543
#	Creating user name:	WinNT
#	Creation time:	15. 06. 2019 19:35

#	Modifying user name:	WinNT
#	Modification time:	15. 06. 2019 19:35

#	Program:	/corina/corina34_cracker 3.40 0067  02.08.2006

@<TRIPOS>MOLECULE
ASD01816543
  55   59    0    0    0
SMALL
NO_CHARGES


@<TRIPOS>ATOM
   1 C1            -0.0167     1.3813     0.0096 C.ar    
   2 C2             0.0021    -0.0041     0.0020 C.ar    
   3 C3             1.1984    -0.6909    -0.0131 C.ar    
   4 C4             2.4015     0.0059    -0.0209 C.ar    
   5 C5             2.3790     1.4106    -0.0132 C.ar    
   6 C6             1.1663     2.0916     0.0022 C.ar    
   7 N7             3.6053    -0.6772    -0.0356 N.pl3   
   8 C8             4.7970    -0.0586    -0.0437 C.2     
   9 C9             4.9000     1.3103    -0.0378 C.2     
  10 C10            3.6670     2.1301    -0.0217 C.2     
  11 C11            5.9971     2.2729    -0.0436 C.2     
  12 N12            5.4245     3.4961    -0.0323 N.am    
  13 N13            4.0323     3.3799    -0.0193 N.2     
  14 C14            6.1264     4.7082    -0.0328 C.ar    
  15 O15            7.1914     2.0229    -0.0556 O.2     
  16 C16            3.5779    -2.1419    -0.0422 C.3     
  17 C17            3.5546    -2.6451    -1.4869 C.3     
  18 C18            3.6518    -4.1724    -1.4965 C.3     
  19 C19            3.6630    -4.6702    -2.9452 C.3     
  20 N20            2.4823    -4.1364    -3.6379 N.am    
  21 C21            2.2442    -2.6868    -3.6131 C.3     
  22 C22            2.2488    -2.2111    -2.1569 C.3     
  23 C23            6.5546     5.2637    -1.2306 C.ar    
  24 C24            7.2468     6.4595    -1.2280 C.ar    
  25 C25            7.5142     7.1036    -0.0343 C.ar    
  26 C26            7.0902     6.5541     1.1621 C.ar    
  27 C27            6.3911     5.3611     1.1668 C.ar    
  28 F28            5.9768     4.8242     2.3352 F       
  29 C29            1.6342    -4.9607    -4.2841 C.2     
  30 O30            1.8424    -6.1577    -4.2976 O.2     
  31 O31            0.5561    -4.4578    -4.9147 O.3     
  32 C32           -0.3137    -5.4042    -5.5898 C.3     
  33 H33           -0.9602     1.9068     0.0170 H       
  34 H34           -0.9289    -0.5516     0.0083 H       
  35 H35            1.2004    -1.7709    -0.0186 H       
  36 H36            1.1506     3.1715     0.0077 H       
  37 H37            5.6983    -0.6536    -0.0548 H       
  38 H38            4.4658    -2.5242     0.4614 H       
  39 H39            2.6862    -2.4910     0.4786 H       
  40 H40            4.3995    -2.2240    -2.0318 H       
  41 H41            4.5707    -4.4816    -0.9984 H       
  42 H42            2.7939    -4.5948    -0.9733 H       
  43 H43            4.5676    -4.3226    -3.4441 H       
  44 H44            3.6322    -5.7597    -2.9574 H       
  45 H45            3.0331    -2.1773    -4.1664 H       
  46 H46            1.2772    -2.4675    -4.0660 H       
  47 H47            1.4042    -2.6520    -1.6275 H       
  48 H48            2.1692    -1.1244    -2.1289 H       
  49 H49            6.3472     4.7614    -2.1639 H       
  50 H50            7.5799     6.8916    -2.1600 H       
  51 H51            8.0558     8.0380    -0.0359 H       
  52 H52            7.3010     7.0596     2.0929 H       
  53 H53            0.2519    -5.9355    -6.3553 H       
  54 H54           -0.7049    -6.1187    -4.8656 H       
  55 H55           -1.1412    -4.8689    -6.0555 H       
@<TRIPOS>BOND
   1    1    2 ar
   2    1    6 ar
   3    1   33 1
   4    2    3 ar
   5    2   34 1
   6    3    4 ar
   7    3   35 1
   8    4    5 ar
   9    4    7 1
  10    5    6 ar
  11    5   10 1
  12    6   36 1
  13    7    8 1
  14    7   16 1
  15    8    9 2
  16    8   37 1
  17    9   10 1
  18    9   11 1
  19   10   13 2
  20   11   12 am
  21   11   15 2
  22   12   13 1
  23   12   14 1
  24   14   23 ar
  25   14   27 ar
  26   16   17 1
  27   16   38 1
  28   16   39 1
  29   17   18 1
  30   17   22 1
  31   17   40 1
  32   18   19 1
  33   18   41 1
  34   18   42 1
  35   19   20 1
  36   19   43 1
  37   19   44 1
  38   20   21 1
  39   20   29 am
  40   21   22 1
  41   21   45 1
  42   21   46 1
  43   22   47 1
  44   22   48 1
  45   23   24 ar
  46   23   49 1
  47   24   25 ar
  48   24   50 1
  49   25   26 ar
  50   25   51 1
  51   26   27 ar
  52   26   52 1
  53   27   28 1
  54   29   30 2
  55   29   31 1
  56   31   32 1
  57   32   53 1
  58   32   54 1
  59   32   55 1

#	End of record

