#	Name: ASD07100004
#	Creating user name:	WinNT
#	Creation time:	15. 06. 2019 21:08

#	Modifying user name:	WinNT
#	Modification time:	15. 06. 2019 21:08

#	Program:	/corina/corina34_cracker 3.40 0067  02.08.2006

@<TRIPOS>MOLECULE
ASD07100004
  32   31    0    0    0
SMALL
NO_CHARGES


@<TRIPOS>ATOM
   1 C1            -0.1892     1.6049    -0.4993 C.3     
   2 C2            -1.1973     2.2058     0.4824 C.3     
   3 C3             1.2257     2.0301    -0.1016 C.3     
   4 O4            -2.5204     1.8263     0.0985 O.3     
   5 C5             2.2335     1.4307    -1.0844 C.3     
   6 C6             1.3276     3.5564    -0.1339 C.3     
   7 O7             1.5106     1.5616     1.2180 O.3     
   8 P8            -3.8338     2.2827     0.9101 P.3     
   9 O9            -5.1308     1.5693     0.2768 O.3     
  10 O10           -3.6920     1.8712     2.3925 O.co2   
  11 O11           -3.9913     3.8166     0.8142 O.co2   
  12 P12           -6.6456     1.3543     0.7782 P.3     
  13 O13           -7.4994     2.6173     0.4173 O.co2   
  14 O14           -7.2545     0.0938     0.0746 O.co2   
  15 O15           -6.6568     1.1424     2.3304 O.co2   
  16 C16            2.7508     3.9707     0.1375 C.2     
  17 C17            3.3810     4.7445    -0.7111 C.2     
  18 C18            2.1717    -0.0733    -1.0125 C.2     
  19 O19            1.4834    -0.6153    -0.1646 O.co2   
  20 O20            2.8100    -0.7481    -1.8024 O.co2   
  21 H21           -0.2622     0.5176    -0.4749 H       
  22 H22           -0.4061     1.9611    -1.5063 H       
  23 H23           -0.9904     1.8368     1.4869 H       
  24 H24           -1.1130     3.2925     0.4700 H       
  25 H25            1.9921     1.7564    -2.0962 H       
  26 H26            3.2377     1.7659    -0.8247 H       
  27 H27            1.0242     3.9200    -1.1157 H       
  28 H28            0.6740     3.9804     0.6284 H       
  29 H29            0.9096     1.9021     1.8946 H       
  30 H30            3.2513     3.6296     1.0317 H       
  31 H31            4.4010     5.0414    -0.5166 H       
  32 H32            2.8805     5.0855    -1.6053 H       
@<TRIPOS>BOND
   1    1    2 1
   2    1    3 1
   3    1   21 1
   4    1   22 1
   5    2    4 1
   6    2   23 1
   7    2   24 1
   8    3    5 1
   9    3    6 1
  10    3    7 1
  11    4    8 1
  12    5   18 1
  13    5   25 1
  14    5   26 1
  15    6   16 1
  16    6   27 1
  17    6   28 1
  18    7   29 1
  19    8    9 1
  20    8   10 ar
  21    8   11 ar
  22    9   12 1
  23   12   13 ar
  24   12   14 ar
  25   12   15 ar
  26   16   17 2
  27   16   30 1
  28   17   31 1
  29   17   32 1
  30   18   19 ar
  31   18   20 ar

#	End of record

