#	Name: ASD01001140
#	Creating user name:	WinNT
#	Creation time:	15. 06. 2019 18:55

#	Modifying user name:	WinNT
#	Modification time:	15. 06. 2019 18:55

#	Program:	/corina/corina34_cracker 3.40 0067  02.08.2006

@<TRIPOS>MOLECULE
ASD01001140
  42   44    0    0    0
SMALL
NO_CHARGES


@<TRIPOS>ATOM
   1 C1            -0.0218     1.7541     0.0117 C.2     
   2 S2             0.0021    -0.0041     0.0020 S.3     
   3 C3             1.7080    -0.0274    -0.0144 C.2     
   4 C4             2.2039     1.2157    -0.0125 C.2     
   5 C5             1.2640     2.2184     0.0019 C.2     
   6 C6            -1.2264     2.5877     0.0222 C.2     
   7 O7            -1.1271     3.8006     0.0278 O.2     
   8 N8            -2.4447     2.0113     0.0256 N.am    
   9 C9            -5.3317     4.6355     0.0539 C.ar    
  10 C10           -5.8821     3.3562     0.0503 C.ar    
  11 C11           -4.8544     2.3128     0.0396 C.2     
  12 C12           -3.5801     2.7969     0.0355 C.2     
  13 S13           -3.5750     4.5489     0.0443 S.3     
  14 C14           -5.1662     0.8847     0.0348 C.2     
  15 O15           -5.3020     0.2948    -1.0218 O.2     
  16 N16           -5.3033     0.2210     1.1997 N.am    
  17 C17           -5.1399     0.9307     2.4708 C.3     
  18 C18           -6.4923     1.4855     2.9227 C.3     
  19 C19           -4.3153    -2.0162     1.1838 C.3     
  20 C20           -5.6158    -1.2103     1.1948 C.3     
  21 C21           -6.1739     5.7520     0.0692 C.ar    
  22 C22           -7.5402     5.5943     0.0812 C.ar    
  23 C23           -8.0941     4.3229     0.0781 C.ar    
  24 C24           -7.2837     3.2150     0.0564 C.ar    
  25 H25            2.3077    -0.9256    -0.0246 H       
  26 H26            3.2651     1.4162    -0.0212 H       
  27 H27            1.5160     3.2686     0.0044 H       
  28 H28           -2.5239     1.0445     0.0211 H       
  29 H29           -4.7593     0.2421     3.2251 H       
  30 H30           -4.4355     1.7522     2.3403 H       
  31 H31           -7.1967     0.6640     3.0532 H       
  32 H32           -6.3707     2.0135     3.8685 H       
  33 H33           -6.8729     2.1741     2.1684 H       
  34 H34           -3.7408    -1.7667     0.2917 H       
  35 H35           -3.7308    -1.7750     2.0716 H       
  36 H36           -4.5478    -3.0811     1.1801 H       
  37 H37           -6.1903    -1.4598     2.0869 H       
  38 H38           -6.2003    -1.4516     0.3070 H       
  39 H39           -5.7485     6.7447     0.0721 H       
  40 H40           -8.1828     6.4622     0.0934 H       
  41 H41           -9.1675     4.2039     0.0878 H       
  42 H42           -7.7235     2.2286     0.0541 H       
@<TRIPOS>BOND
   1    1    2 1
   2    1    5 2
   3    1    6 1
   4    2    3 1
   5    3    4 2
   6    3   25 1
   7    4    5 1
   8    4   26 1
   9    5   27 1
  10    6    7 2
  11    6    8 am
  12    8   12 1
  13    8   28 1
  14    9   10 ar
  15    9   13 1
  16    9   21 ar
  17   10   11 1
  18   10   24 ar
  19   11   12 2
  20   11   14 1
  21   12   13 1
  22   14   15 2
  23   14   16 am
  24   16   17 1
  25   16   20 1
  26   17   18 1
  27   17   29 1
  28   17   30 1
  29   18   31 1
  30   18   32 1
  31   18   33 1
  32   19   20 1
  33   19   34 1
  34   19   35 1
  35   19   36 1
  36   20   37 1
  37   20   38 1
  38   21   22 ar
  39   21   39 1
  40   22   23 ar
  41   22   40 1
  42   23   24 ar
  43   23   41 1
  44   24   42 1

#	End of record

