#	Name: ASD03930133
#	Creating user name:	WinNT
#	Creation time:	15. 06. 2019 20:47

#	Modifying user name:	WinNT
#	Modification time:	15. 06. 2019 20:47

#	Program:	/corina/corina34_cracker 3.40 0067  02.08.2006

@<TRIPOS>MOLECULE
ASD03930133
  52   54    0    0    0
SMALL
NO_CHARGES


@<TRIPOS>ATOM
   1 C1            -0.0189     1.5392     0.0105 C.3     
   2 C2             0.0021    -0.0041     0.0020 C.3     
   3 C3             1.3509    -0.3133    -0.6816 C.3     
   4 C4             2.2235     0.8908    -0.3988 C.ar    
   5 C5             3.5974     1.0429    -0.4836 C.ar    
   6 C6             4.1833     2.2549    -0.1715 C.ar    
   7 C7             3.3952     3.3200     0.2265 C.ar    
   8 C8             2.0252     3.1695     0.3109 C.ar    
   9 C9             1.4365     1.9552    -0.0012 C.ar    
  10 N10           -1.1171    -0.5371    -0.7861 N.3     
  11 Br11           6.0599     2.4571    -0.2877 Br      
  12 H12           -0.5269     1.9155    -0.8774 H       
  13 H13           -0.5098     1.9059     0.9120 H       
  14 H14           -0.0163    -0.3974     1.0184 H       
  15 H15            1.7951    -1.2115    -0.2527 H       
  16 H16            1.2113    -0.4353    -1.7557 H       
  17 H17            4.2129     0.2115    -0.7942 H       
  18 H18            3.8511     4.2680     0.4712 H       
  19 H19            1.4106     4.0013     0.6220 H       
  20 H20           -1.1060    -1.5461    -0.7934 H       
  21 H21           -1.9995    -0.1877    -0.4434 H       
  22 C22           12.6513    12.4373     8.1883 C.3     
  23 S23           12.6759    10.6235     8.1783 S.o2    
  24 O24           13.1611    10.1382     6.9340 O.2     
  25 O25           13.1847    10.1250     9.4078 O.2     
  26 O26           11.2074    10.2237     8.1902 O.3     
  27 C27           14.0866    12.9669     8.1774 C.3     
  28 C28           14.9577    12.5639     9.3756 C.2     
  29 C29           16.1099    13.5578     9.3882 C.3     
  30 C30           15.8350    14.5045     8.1797 C.3     
  31 C31           16.0987    13.6153     6.9256 C.3     
  32 C32           14.9405    12.5910     6.9281 C.3     
  33 C33           14.2650    14.5259     8.1939 C.3     
  34 O34           14.7687    11.6521    10.1446 O.2     
  35 C35           13.6872    15.1844     6.9395 C.3     
  36 C36           13.7098    15.1550     9.4733 C.3     
  37 H37           12.1241    12.7984     7.3052 H       
  38 H38           12.1411    12.7888     9.0851 H       
  39 H39           11.0599     9.2680     8.1864 H       
  40 H40           16.1127    14.1234    10.3200 H       
  41 H41           17.0595    13.0393     9.2554 H       
  42 H42           16.3444    15.4680     8.1996 H       
  43 H43           16.0710    14.2189     6.0184 H       
  44 H44           17.0579    13.1054     7.0154 H       
  45 H45           15.3297    11.5774     7.0245 H       
  46 H46           14.3467    12.6864     6.0190 H       
  47 H47           12.6216    14.9653     6.8722 H       
  48 H48           13.8336    16.2631     6.9952 H       
  49 H49           14.1949    14.7939     6.0575 H       
  50 H50           14.2330    14.7443    10.3368 H       
  51 H51           13.8554    16.2347     9.4400 H       
  52 H52           12.6455    14.9342     9.5545 H       
@<TRIPOS>BOND
   1    1    2 1
   2    1    9 1
   3    1   12 1
   4    1   13 1
   5    2    3 1
   6    2   10 1
   7    2   14 1
   8    3    4 1
   9    3   15 1
  10    3   16 1
  11    4    5 ar
  12    4    9 ar
  13    5    6 ar
  14    5   17 1
  15    6    7 ar
  16    6   11 1
  17    7    8 ar
  18    7   18 1
  19    8    9 ar
  20    8   19 1
  21   10   20 1
  22   10   21 1
  23   22   23 1
  24   22   27 1
  25   22   37 1
  26   22   38 1
  27   23   24 2
  28   23   25 2
  29   23   26 1
  30   26   39 1
  31   27   28 1
  32   27   32 1
  33   27   33 1
  34   28   29 1
  35   28   34 2
  36   29   30 1
  37   29   40 1
  38   29   41 1
  39   30   31 1
  40   30   33 1
  41   30   42 1
  42   31   32 1
  43   31   43 1
  44   31   44 1
  45   32   45 1
  46   32   46 1
  47   33   35 1
  48   33   36 1
  49   35   47 1
  50   35   48 1
  51   35   49 1
  52   36   50 1
  53   36   51 1
  54   36   52 1

#	End of record

