#	Name: ASD02500194
#	Creating user name:	WinNT
#	Creation time:	15. 06. 2019 20:22

#	Modifying user name:	WinNT
#	Modification time:	15. 06. 2019 20:22

#	Program:	/corina/corina34_cracker 3.40 0067  02.08.2006

@<TRIPOS>MOLECULE
ASD02500194
  65   69    0    0    0
SMALL
NO_CHARGES


@<TRIPOS>ATOM
   1 N1            -3.2467     5.4486    -0.8922 N.ar    
   2 C2            -4.3332     6.0944    -1.2398 C.ar    
   3 C3            -5.5174     5.9809    -0.5145 C.ar    
   4 C4            -5.5658     5.1796     0.5904 C.ar    
   5 C5            -4.3973     4.4872     0.9605 C.ar    
   6 C6            -4.3707     3.6460     2.0841 C.ar    
   7 C7            -3.2204     2.9938     2.4094 C.ar    
   8 C8            -2.0683     3.1506     1.6420 C.ar    
   9 C9            -2.0586     3.9582     0.5465 C.ar    
  10 C10           -3.2266     4.6483     0.1784 C.ar    
  11 S11           -0.5874     4.1388    -0.4061 S.o2    
  12 O12           -0.3727     5.5359    -0.5518 O.2     
  13 O13            0.3718     3.2607     0.1666 O.2     
  14 N14           -0.9099     3.5547    -1.9217 N.am    
  15 C15           -1.1339     2.1954    -2.1098 C.ar    
  16 C16           -0.7408     1.5843    -3.2976 C.ar    
  17 C17           -0.9611     0.2394    -3.4867 C.ar    
  18 C18           -1.5803    -0.5138    -2.4847 C.ar    
  19 C19           -1.9737     0.1026    -1.2934 C.ar    
  20 C20           -1.7455     1.4471    -1.1080 C.ar    
  21 C21           -1.8183    -1.9559    -2.6844 C.2     
  22 O22           -2.2219    -2.3626    -3.7569 O.2     
  23 N23           -1.5885    -2.8225    -1.6781 N.am    
  24 C24           -1.7273    -4.2700    -1.8913 C.3     
  25 C25           -0.4138    -4.9526    -1.4900 C.3     
  26 N26           -0.0195    -4.4671    -0.1601 N.am    
  27 C27            0.1193    -3.0197     0.0530 C.3     
  28 C28           -1.1887    -2.3374    -0.3497 C.3     
  29 C29            0.2103    -5.3338     0.8462 C.2     
  30 C30            0.7063    -4.8399     2.1484 C.ar    
  31 C31            1.8677    -4.0607     2.2187 C.ar    
  32 C32            2.2893    -3.6231     3.4617 C.ar    
  33 C33            1.5571    -3.9658     4.5845 C.ar    
  34 N34            0.4666    -4.7019     4.4878 N.ar    
  35 C35            0.0219    -5.1373     3.3272 C.ar    
  36 O36            0.0098    -6.5215     0.6830 O.2     
  37 C37           -1.2332    -5.9696     3.2726 C.3     
  38 F38           -0.9040    -7.3206     3.4268 F       
  39 F39           -2.0965    -5.5796     4.3021 F       
  40 F40           -1.8643    -5.7813     2.0383 F       
  41 C41           -0.0739     2.3969    -4.3774 C.3     
  42 H42           -4.3096     6.7318    -2.1114 H       
  43 H43           -6.3962     6.5263    -0.8256 H       
  44 H44           -6.4752     5.0802     1.1645 H       
  45 H45           -5.2574     3.5170     2.6871 H       
  46 H46           -3.2009     2.3468     3.2739 H       
  47 H47           -1.1682     2.6230     1.9211 H       
  48 H48           -0.9425     4.1609    -2.6783 H       
  49 H49           -0.6563    -0.2340    -4.4084 H       
  50 H50           -2.4522    -0.4765    -0.5175 H       
  51 H51           -2.0449     1.9230    -0.1859 H       
  52 H52           -2.5417    -4.6538    -1.2768 H       
  53 H53           -1.9353    -4.4666    -2.9430 H       
  54 H54           -0.5579    -6.0326    -1.4573 H       
  55 H55            0.3626    -4.7064    -2.2144 H       
  56 H56            0.3273    -2.8230     1.1048 H       
  57 H57            0.9337    -2.6358    -0.5615 H       
  58 H58           -1.0412    -1.2579    -0.3837 H       
  59 H59           -1.9639    -2.5804     0.3770 H       
  60 H60            2.4203    -3.8083     1.3258 H       
  61 H61            3.1807    -3.0205     3.5545 H       
  62 H62            1.8839    -3.6256     5.5560 H       
  63 H63            1.0056     2.3850    -4.2267 H       
  64 H64           -0.3095     1.9693    -5.3519 H       
  65 H65           -0.4354     3.4244    -4.3345 H       
@<TRIPOS>BOND
   1    1    2 ar
   2    1   10 ar
   3    2    3 ar
   4    2   42 1
   5    3    4 ar
   6    3   43 1
   7    4    5 ar
   8    4   44 1
   9    5    6 ar
  10    5   10 ar
  11    6    7 ar
  12    6   45 1
  13    7    8 ar
  14    7   46 1
  15    8    9 ar
  16    8   47 1
  17    9   10 ar
  18    9   11 1
  19   11   12 2
  20   11   13 2
  21   11   14 am
  22   14   15 1
  23   14   48 1
  24   15   16 ar
  25   15   20 ar
  26   16   17 ar
  27   16   41 1
  28   17   18 ar
  29   17   49 1
  30   18   19 ar
  31   18   21 1
  32   19   20 ar
  33   19   50 1
  34   20   51 1
  35   21   22 2
  36   21   23 am
  37   23   24 1
  38   23   28 1
  39   24   25 1
  40   24   52 1
  41   24   53 1
  42   25   26 1
  43   25   54 1
  44   25   55 1
  45   26   27 1
  46   26   29 am
  47   27   28 1
  48   27   56 1
  49   27   57 1
  50   28   58 1
  51   28   59 1
  52   29   30 1
  53   29   36 2
  54   30   31 ar
  55   30   35 ar
  56   31   32 ar
  57   31   60 1
  58   32   33 ar
  59   32   61 1
  60   33   34 ar
  61   33   62 1
  62   34   35 ar
  63   35   37 1
  64   37   38 1
  65   37   39 1
  66   37   40 1
  67   41   63 1
  68   41   64 1
  69   41   65 1

#	End of record

