#	Name: ASD01910858
#	Creating user name:	WinNT
#	Creation time:	15. 06. 2019 19:56

#	Modifying user name:	WinNT
#	Modification time:	15. 06. 2019 19:56

#	Program:	/corina/corina34_cracker 3.40 0067  02.08.2006

@<TRIPOS>MOLECULE
ASD01910858
  52   55    0    0    0
SMALL
NO_CHARGES


@<TRIPOS>ATOM
   1 C1            -0.0168     1.3842     0.0097 C.ar    
   2 C2             0.0021    -0.0041     0.0020 C.ar    
   3 C3             1.2266    -0.6477    -0.0131 C.ar    
   4 C4             2.3908     0.1134    -0.0202 C.ar    
   5 N5             2.3311     1.4363    -0.0120 N.ar    
   6 C6             1.1776     2.0767     0.0020 C.ar    
   7 N7             3.6279    -0.5202    -0.0354 N.3     
   8 C8             4.7221     0.4608    -0.0406 C.3     
   9 C9             6.0630    -0.2742     0.0230 C.3     
  10 N10            6.1729    -1.1874    -1.1231 N.3     
  11 C11            5.0788    -2.1685    -1.1179 C.3     
  12 C12            3.7378    -1.4334    -1.1815 C.3     
  13 C13            7.4803    -1.8571    -1.1392 C.3     
  14 C14            7.4693    -2.9558    -2.1705 C.ar    
  15 C15            7.8509    -2.6841    -3.4724 C.ar    
  16 C16            7.8439    -3.6868    -4.4264 C.ar    
  17 C17            7.4560    -4.9653    -4.0849 C.ar    
  18 C18            7.0692    -5.2473    -2.7719 C.ar    
  19 C19            7.0842    -4.2312    -1.8130 C.ar    
  20 C20            6.6646    -6.5723    -2.4098 C.1     
  21 C21            6.3329    -7.6587    -2.1130 C.1     
  22 C22            5.9283    -8.9838    -1.7509 C.ar    
  23 C23            5.5421    -9.2646    -0.4391 C.ar    
  24 C24            5.1519   -10.5500    -0.0969 C.ar    
  25 C25            5.1460   -11.5541    -1.0584 C.ar    
  26 C26            5.5288   -11.2765    -2.3577 C.ar    
  27 C27            5.9131    -9.9996    -2.7111 C.ar    
  28 N28            4.7649   -10.8366     1.2145 N.pl3   
  29 H29           -0.9562     1.9169     0.0170 H       
  30 H30           -0.9185    -0.5688     0.0081 H       
  31 H31            1.2778    -1.7264    -0.0191 H       
  32 H32            1.1676     3.1567     0.0082 H       
  33 H33            4.6750     1.0532    -0.9543 H       
  34 H34            4.6259     1.1174     0.8242 H       
  35 H35            6.8767     0.4503    -0.0099 H       
  36 H36            6.1212    -0.8451     0.9497 H       
  37 H37            5.1749    -2.8250    -1.9827 H       
  38 H38            5.1258    -2.7608    -0.2041 H       
  39 H39            2.9241    -2.1579    -1.1485 H       
  40 H40            3.6796    -0.8626    -2.1082 H       
  41 H41            8.2563    -1.1331    -1.3878 H       
  42 H42            7.6824    -2.2832    -0.1565 H       
  43 H43            8.1554    -1.6846    -3.7456 H       
  44 H44            8.1427    -3.4674    -5.4407 H       
  45 H45            7.4507    -5.7467    -4.8305 H       
  46 H46            6.7866    -4.4418    -0.7964 H       
  47 H47            5.5477    -8.4833     0.3065 H       
  48 H48            4.8415   -12.5547    -0.7894 H       
  49 H49            5.5223   -12.0612    -3.0998 H       
  50 H50            6.2111    -9.7870    -3.7271 H       
  51 H51            4.7693   -10.1362     1.8855 H       
  52 H52            4.4918   -11.7360     1.4540 H       
@<TRIPOS>BOND
   1    1    2 ar
   2    1    6 ar
   3    1   29 1
   4    2    3 ar
   5    2   30 1
   6    3    4 ar
   7    3   31 1
   8    4    5 ar
   9    4    7 1
  10    5    6 ar
  11    6   32 1
  12    7    8 1
  13    7   12 1
  14    8    9 1
  15    8   33 1
  16    8   34 1
  17    9   10 1
  18    9   35 1
  19    9   36 1
  20   10   11 1
  21   10   13 1
  22   11   12 1
  23   11   37 1
  24   11   38 1
  25   12   39 1
  26   12   40 1
  27   13   14 1
  28   13   41 1
  29   13   42 1
  30   14   15 ar
  31   14   19 ar
  32   15   16 ar
  33   15   43 1
  34   16   17 ar
  35   16   44 1
  36   17   18 ar
  37   17   45 1
  38   18   19 ar
  39   18   20 1
  40   19   46 1
  41   20   21 3
  42   21   22 1
  43   22   23 ar
  44   22   27 ar
  45   23   24 ar
  46   23   47 1
  47   24   25 ar
  48   24   28 1
  49   25   26 ar
  50   25   48 1
  51   26   27 ar
  52   26   49 1
  53   27   50 1
  54   28   51 1
  55   28   52 1

#	End of record

