#	Name: ASD09116120
#	Creating user name:	WinNT
#	Creation time:	15. 06. 2019 21:20

#	Modifying user name:	WinNT
#	Modification time:	15. 06. 2019 21:20

#	Program:	/corina/corina34_cracker 3.40 0067  02.08.2006

@<TRIPOS>MOLECULE
ASD09116120
  27   29    0    0    0
SMALL
NO_CHARGES


@<TRIPOS>ATOM
   1 C1            -0.0169     1.3921     0.0097 C.ar    
   2 C2             0.0021    -0.0041     0.0020 C.ar    
   3 C3             1.2251    -0.6448     0.0187 C.ar    
   4 C4             2.3672     0.1498     0.0225 C.ar    
   5 N5             2.2588     1.4658     0.0094 N.ar    
   6 N6             1.1221     2.0664     0.0024 N.ar    
   7 C7            -1.2902    -0.7654    -0.0531 C.3     
   8 C8            -1.9617    -0.7976     1.3172 C.3     
   9 C9            -1.9142     0.5789     1.9752 C.3     
  10 C10           -2.2723     1.6671     1.0004 C.ar    
  11 C11           -1.3292     2.0776     0.0567 C.ar    
  12 C12           -1.6312     3.1104    -0.8239 C.ar    
  13 C13           -2.8745     3.7106    -0.7737 C.ar    
  14 C14           -3.8143     3.2849     0.1473 C.ar    
  15 C15           -3.5137     2.2650     1.0335 C.ar    
  16 Cl16           3.9374    -0.5901     0.0451 Cl      
  17 H17            1.2926    -1.7226     0.0288 H       
  18 H18           -1.9584    -0.2860    -0.7684 H       
  19 H19           -1.0910    -1.7864    -0.3786 H       
  20 H20           -3.0013    -1.1038     1.2002 H       
  21 H21           -1.4458    -1.5172     1.9528 H       
  22 H22           -2.6176     0.6005     2.8076 H       
  23 H23           -0.9084     0.7577     2.3553 H       
  24 H24           -0.8975     3.4415    -1.5439 H       
  25 H25           -3.1129     4.5141    -1.4548 H       
  26 H26           -4.7882     3.7509     0.1753 H       
  27 H27           -4.2517     1.9377     1.7508 H       
@<TRIPOS>BOND
   1    1    2 ar
   2    1    6 ar
   3    1   11 1
   4    2    3 ar
   5    2    7 1
   6    3    4 ar
   7    3   17 1
   8    4    5 ar
   9    4   16 1
  10    5    6 ar
  11    7    8 1
  12    7   18 1
  13    7   19 1
  14    8    9 1
  15    8   20 1
  16    8   21 1
  17    9   10 1
  18    9   22 1
  19    9   23 1
  20   10   11 ar
  21   10   15 ar
  22   11   12 ar
  23   12   13 ar
  24   12   24 1
  25   13   14 ar
  26   13   25 1
  27   14   15 ar
  28   14   26 1
  29   15   27 1

#	End of record

