#	Name: ASD03092775
#	Creating user name:	WinNT
#	Creation time:	15. 06. 2019 20:33

#	Modifying user name:	WinNT
#	Modification time:	15. 06. 2019 20:33

#	Program:	/corina/corina34_cracker 3.40 0067  02.08.2006

@<TRIPOS>MOLECULE
ASD03092775
  52   55    0    0    0
SMALL
NO_CHARGES


@<TRIPOS>ATOM
   1 C1            -0.6485     1.4744     0.4501 C.3     
   2 C2            -0.5334    -0.0498     0.3829 C.3     
   3 C3             0.4885    -0.5211     1.3853 C.2     
   4 O4             1.0680     0.2834     2.0849 O.2     
   5 C5             0.7822    -1.9502     1.5150 C.2     
   6 C6             0.1813    -3.0461     0.7482 C.2     
   7 C7             0.7527    -4.1896     1.2048 C.2     
   8 C8             0.4538    -5.5545     0.7200 C.ar    
   9 C9            -0.7495    -5.8161     0.0642 C.ar    
  10 C10           -1.0261    -7.0903    -0.3860 C.ar    
  11 C11           -0.1113    -8.1156    -0.1893 C.ar    
  12 O12           -0.4088    -9.3672    -0.6352 O.3     
  13 C13            0.6835   -10.2849    -0.7543 C.3     
  14 C14            1.5265   -10.1976     0.5251 C.3     
  15 O15            2.0021    -8.8537     0.6575 O.3     
  16 C16            1.0920    -7.8605     0.4616 C.ar    
  17 C17            1.3768    -6.5830     0.9120 C.ar    
  18 N18            1.6553    -3.8708     2.1910 N.pl3   
  19 C19            1.6869    -2.5375     2.3816 C.2     
  20 C20            2.5572    -1.8095     3.3734 C.3     
  21 C21            2.4354    -4.7988     2.8932 C.ar    
  22 C22            1.8339    -5.6890     3.7729 C.ar    
  23 C23            2.6056    -6.6027     4.4637 C.ar    
  24 C24            3.9759    -6.6315     4.2800 C.ar    
  25 C25            4.5778    -5.7460     3.4050 C.ar    
  26 C26            3.8108    -4.8341     2.7066 C.ar    
  27 S27            4.9569    -7.7987     5.1632 S.o2    
  28 N28            5.0502    -9.1649     4.2321 N.am    
  29 O29            6.2705    -7.2594     5.2172 O.2     
  30 O30            4.2138    -8.1525     6.3216 O.2     
  31 H31            0.3185     1.9223     0.2211 H       
  32 H32           -1.3876     1.8153    -0.2749 H       
  33 H33           -0.9584     1.7716     1.4520 H       
  34 H34           -1.5004    -0.4976     0.6119 H       
  35 H35           -0.2235    -0.3469    -0.6190 H       
  36 H36           -0.5674    -2.9606    -0.0255 H       
  37 H37           -1.4643    -5.0214    -0.0906 H       
  38 H38           -1.9582    -7.2911    -0.8932 H       
  39 H39            0.3007   -11.2984    -0.8738 H       
  40 H40            1.2951   -10.0184    -1.6163 H       
  41 H41            0.9131   -10.4571     1.3880 H       
  42 H42            2.3722   -10.8817     0.4556 H       
  43 H43            2.3113    -6.3834     1.4154 H       
  44 H44            2.0299    -1.7213     4.3234 H       
  45 H45            3.4827    -2.3658     3.5218 H       
  46 H46            2.7883    -0.8147     2.9925 H       
  47 H47            0.7638    -5.6667     3.9170 H       
  48 H48            2.1384    -7.2951     5.1483 H       
  49 H49            5.6483    -5.7705     3.2642 H       
  50 H50            4.2810    -4.1459     2.0198 H       
  51 H51            4.6025    -9.1973     3.3722 H       
  52 H52            5.5525    -9.9328     4.5465 H       
@<TRIPOS>BOND
   1    1    2 1
   2    1   31 1
   3    1   32 1
   4    1   33 1
   5    2    3 1
   6    2   34 1
   7    2   35 1
   8    3    4 2
   9    3    5 1
  10    5   19 2
  11    5    6 1
  12    6    7 2
  13    6   36 1
  14    7    8 1
  15    7   18 1
  16    8   17 ar
  17    8    9 ar
  18    9   10 ar
  19    9   37 1
  20   10   11 ar
  21   10   38 1
  22   11   16 ar
  23   11   12 1
  24   12   13 1
  25   13   14 1
  26   13   39 1
  27   13   40 1
  28   14   15 1
  29   14   41 1
  30   14   42 1
  31   15   16 1
  32   16   17 ar
  33   17   43 1
  34   18   19 1
  35   18   21 1
  36   19   20 1
  37   20   44 1
  38   20   45 1
  39   20   46 1
  40   21   26 ar
  41   21   22 ar
  42   22   23 ar
  43   22   47 1
  44   23   24 ar
  45   23   48 1
  46   24   25 ar
  47   24   27 1
  48   25   26 ar
  49   25   49 1
  50   26   50 1
  51   27   28 am
  52   27   29 2
  53   27   30 2
  54   28   51 1
  55   28   52 1

#	End of record

