#	Name: ASD01940706
#	Creating user name:	WinNT
#	Creation time:	15. 06. 2019 20:13

#	Modifying user name:	WinNT
#	Modification time:	15. 06. 2019 20:13

#	Program:	/corina/corina34_cracker 3.40 0067  02.08.2006

@<TRIPOS>MOLECULE
ASD01940706
  45   47    0    0    0
SMALL
NO_CHARGES


@<TRIPOS>ATOM
   1 C1             0.2112     0.9551     0.9844 C.ar    
   2 C2            -0.1585     0.1938    -0.1091 C.ar    
   3 C3             0.7332    -0.0107    -1.1483 C.ar    
   4 C4             2.0008     0.5468    -1.0970 C.ar    
   5 C5             2.3773     1.3126    -0.0015 C.ar    
   6 C6             1.4777     1.5171     1.0434 C.ar    
   7 N7             1.8521     2.2893     2.1511 N.am    
   8 S8             1.3015     1.8921     3.6615 S.o2    
   9 C9             1.9371     0.2176     3.9492 C.3     
  10 O10            1.9411     2.8231     4.5237 O.2     
  11 O11           -0.1128     1.8720     3.5249 O.2     
  12 F12            0.3670    -0.7557    -2.2141 F       
  13 F13            2.8696     0.3452    -2.1117 F       
  14 N14            3.6586     1.8780     0.0535 N.pl3   
  15 C15            4.7446     1.1064     0.4699 C.ar    
  16 C16            5.9984     1.6933     0.6161 C.ar    
  17 C17            4.5709    -0.2455     0.7434 C.ar    
  18 C18            5.6412    -1.0101     1.1552 C.ar    
  19 C19            6.9010    -0.4261     1.2978 C.ar    
  20 C20            7.0724     0.9332     1.0273 C.ar    
  21 Cl21           6.2096     3.3832     0.2800 Cl      
  22 C22            8.0145    -1.2182     1.7259 C.1     
  23 C23            1.4996    -0.2949     5.3369 C.3     
  24 C24            2.6837    -1.0990     5.9018 C.3     
  25 C25            3.7994    -1.0470     4.8377 C.3     
  26 C26            3.4843     0.2296     4.0191 C.3     
  27 O27            3.1407    -0.5071     7.1196 O.3     
  28 C28            8.9274    -1.8676     2.0769 C.1     
  29 H29           -0.4886     1.1158     1.7912 H       
  30 H30           -1.1454    -0.2427    -0.1526 H       
  31 H31            2.4338     3.0565     2.0331 H       
  32 H32            1.5938    -0.4593     3.1668 H       
  33 H33            3.7907     2.8055    -0.1977 H       
  34 H34            3.5960    -0.6971     0.6333 H       
  35 H35            5.5052    -2.0602     1.3677 H       
  36 H36            8.0461     1.3876     1.1364 H       
  37 H37            1.2735     0.5467     5.9915 H       
  38 H38            0.6247    -0.9377     5.2387 H       
  39 H39            2.3835    -2.1319     6.0779 H       
  40 H40            4.7766    -0.9636     5.3134 H       
  41 H41            3.7589    -1.9293     4.1991 H       
  42 H42            3.9167     0.1647     3.0206 H       
  43 H43            3.8406     1.1193     4.5384 H       
  44 H44            3.8870    -0.9689     7.5255 H       
  45 H45            9.7439    -2.4484     2.3909 H       
@<TRIPOS>BOND
   1    1    2 ar
   2    1    6 ar
   3    1   29 1
   4    2    3 ar
   5    2   30 1
   6    3    4 ar
   7    3   12 1
   8    4    5 ar
   9    4   13 1
  10    5    6 ar
  11    5   14 1
  12    6    7 1
  13    7    8 am
  14    7   31 1
  15    8   10 2
  16    8   11 2
  17    8    9 1
  18    9   23 1
  19    9   26 1
  20    9   32 1
  21   14   15 1
  22   14   33 1
  23   15   16 ar
  24   15   17 ar
  25   16   21 1
  26   16   20 ar
  27   17   18 ar
  28   17   34 1
  29   18   19 ar
  30   18   35 1
  31   19   20 ar
  32   19   22 1
  33   20   36 1
  34   22   28 3
  35   23   24 1
  36   23   37 1
  37   23   38 1
  38   24   25 1
  39   24   27 1
  40   24   39 1
  41   25   26 1
  42   25   40 1
  43   25   41 1
  44   26   42 1
  45   26   43 1
  46   27   44 1
  47   28   45 1

#	End of record

