#	Name: ASD03450005
#	Creating user name:	WinNT
#	Creation time:	15. 06. 2019 20:42

#	Modifying user name:	WinNT
#	Modification time:	15. 06. 2019 20:42

#	Program:	/corina/corina34_cracker 3.40 0067  02.08.2006

@<TRIPOS>MOLECULE
ASD03450005
  46   50    0    0    0
SMALL
NO_CHARGES


@<TRIPOS>ATOM
   1 N1             0.0304     1.0904    -0.2463 N.2     
   2 C2             0.1496    -0.1693    -0.0215 C.2     
   3 C3             1.4893    -0.8441     0.0789 C.3     
   4 C4             2.4827     0.3868    -1.7282 C.2     
   5 N5             2.1619    -0.7524    -1.2172 N.2     
   6 C6             2.2319     1.6841    -1.0824 C.ar    
   7 C7             1.0552     1.9721    -0.3807 C.ar    
   8 C8             0.9060     3.2324     0.2188 C.ar    
   9 C9             1.8986     4.1786     0.1129 C.ar    
  10 C10            3.0597     3.8961    -0.5897 C.ar    
  11 C11            3.2288     2.6657    -1.1812 C.ar    
  12 C12            3.1475     0.3892    -3.0524 C.ar    
  13 N13           -0.9803    -0.9213     0.1320 N.pl3   
  14 C14           -2.4295    -0.6717     0.1104 C.3     
  15 C15           -2.5969    -1.8812     1.0405 C.3     
  16 C16           -1.2832    -2.3380     0.3851 C.3     
  17 C17            3.8381    -0.7401    -3.4911 C.ar    
  18 C18            4.4548    -0.7319    -4.7255 C.ar    
  19 C19            4.3889     0.3935    -5.5273 C.ar    
  20 C20            3.7053     1.5169    -5.0975 C.ar    
  21 C21            3.0801     1.5189    -3.8674 C.ar    
  22 C22            2.3229    -0.1579     1.1301 C.2     
  23 S23            1.6869     0.7090     2.5221 S.3     
  24 C24            3.3153     1.0913     3.0658 C.2     
  25 C25            4.2037     0.5736     2.2160 C.2     
  26 C26            3.6561    -0.1199     1.1505 C.2     
  27 O27           -2.4861    -1.5709     2.4310 O.3     
  28 H28            1.3515    -1.8919     0.3456 H       
  29 H29            0.0043     3.4612     0.7674 H       
  30 H30            1.7729     5.1450     0.5784 H       
  31 H31            3.8340     4.6444    -0.6732 H       
  32 H32            4.1369     2.4537    -1.7260 H       
  33 H33           -2.7141     0.2737     0.5722 H       
  34 H34           -2.8799    -0.8139    -0.8720 H       
  35 H35           -3.4545    -2.5113     0.8044 H       
  36 H36           -1.4314    -2.9195    -0.5249 H       
  37 H37           -0.5912    -2.8122     1.0810 H       
  38 H38            3.8905    -1.6192    -2.8659 H       
  39 H39            4.9902    -1.6058    -5.0662 H       
  40 H40            4.8735     0.3953    -6.4925 H       
  41 H41            3.6576     2.3927    -5.7277 H       
  42 H42            2.5429     2.3948    -3.5349 H       
  43 H43            3.5588     1.6586     3.9519 H       
  44 H44            5.2695     0.6840     2.3511 H       
  45 H45            4.2623    -0.5923     0.3917 H       
  46 H46           -2.5921    -2.3349     3.0142 H       
@<TRIPOS>BOND
   1    1    2 2
   2    1    7 1
   3    2    3 1
   4    2   13 1
   5    3    5 1
   6    3   22 1
   7    3   28 1
   8    4    5 2
   9    4    6 1
  10    4   12 1
  11    6    7 ar
  12    6   11 ar
  13    7    8 ar
  14    8    9 ar
  15    8   29 1
  16    9   10 ar
  17    9   30 1
  18   10   11 ar
  19   10   31 1
  20   11   32 1
  21   12   17 ar
  22   12   21 ar
  23   13   14 1
  24   13   16 1
  25   14   15 1
  26   14   33 1
  27   14   34 1
  28   15   16 1
  29   15   27 1
  30   15   35 1
  31   16   36 1
  32   16   37 1
  33   17   18 ar
  34   17   38 1
  35   18   19 ar
  36   18   39 1
  37   19   20 ar
  38   19   40 1
  39   20   21 ar
  40   20   41 1
  41   21   42 1
  42   22   23 1
  43   22   26 2
  44   23   24 1
  45   24   25 2
  46   24   43 1
  47   25   26 1
  48   25   44 1
  49   26   45 1
  50   27   46 1

#	End of record

