#	Name: ASD01916458
#	Creating user name:	WinNT
#	Creation time:	15. 06. 2019 20:07

#	Modifying user name:	WinNT
#	Modification time:	15. 06. 2019 20:07

#	Program:	/corina/corina34_cracker 3.40 0067  02.08.2006

@<TRIPOS>MOLECULE
ASD01916458
  40   44    0    0    0
SMALL
NO_CHARGES


@<TRIPOS>ATOM
   1 C1            -0.0171     1.4087     0.0098 C.ar    
   2 C2             0.0021    -0.0041     0.0020 C.ar    
   3 N3            -1.1266    -0.7019     0.0375 N.ar    
   4 C4            -2.2977    -0.1128     0.0614 C.ar    
   5 C5            -2.4088     1.2886     0.0534 C.ar    
   6 C6            -1.2518     2.0676     0.0309 C.ar    
   7 N7             1.1490     2.0869     0.0023 N.2     
   8 C8             2.3232     1.4846    -0.0384 C.2     
   9 N9             2.4170     0.1237    -0.1266 N.am    
  10 C10            1.3164    -0.6613    -0.0576 C.2     
  11 N11            3.5657     2.0542     0.0764 N.pl3   
  12 C12            4.5715     1.0769    -0.4018 C.3     
  13 C13            3.8263    -0.2595    -0.3286 C.3     
  14 C14           -3.6984     1.9110     0.0687 C.1     
  15 C15           -4.7557     2.4212     0.0812 C.1     
  16 C16           -6.0452     3.0436     0.0965 C.ar    
  17 N17           -6.1381     4.3699     0.0887 N.ar    
  18 C18           -7.3054     4.9795     0.1022 C.ar    
  19 C19           -8.4847     4.2570     0.1251 C.ar    
  20 C20           -8.4348     2.8695     0.1340 C.ar    
  21 C21           -7.1971     2.2526     0.1137 C.ar    
  22 O22            1.4117    -1.8748    -0.0448 O.2     
  23 C23            4.3355     3.2161     0.5409 C.3     
  24 C24            5.7129     2.6817     0.9883 C.3     
  25 C25            5.6742     1.1645     0.6744 C.3     
  26 H26           -3.1936    -0.7153     0.0875 H       
  27 H27           -1.3071     3.1462     0.0287 H       
  28 H28            4.9347     1.2991    -1.4051 H       
  29 H29            4.1854    -0.8510     0.5136 H       
  30 H30            3.9416    -0.8121    -1.2610 H       
  31 H31           -7.3423     6.0588     0.0956 H       
  32 H32           -9.4362     4.7678     0.1364 H       
  33 H33           -9.3426     2.2848     0.1522 H       
  34 H34           -7.1217     1.1753     0.1199 H       
  35 H35            4.4586     3.9317    -0.2721 H       
  36 H36            3.8274     3.6889     1.3814 H       
  37 H37            6.5091     3.1655     0.4226 H       
  38 H38            5.8535     2.8441     2.0569 H       
  39 H39            5.3976     0.5925     1.5601 H       
  40 H40            6.6313     0.8266     0.2768 H       
@<TRIPOS>BOND
   1    1    2 ar
   2    1    7 1
   3    1    6 ar
   4    2    3 ar
   5    2   10 1
   6    3    4 ar
   7    4    5 ar
   8    4   26 1
   9    5    6 ar
  10    5   14 1
  11    6   27 1
  12    7    8 2
  13    8    9 1
  14    8   11 1
  15    9   10 am
  16    9   13 1
  17   10   22 2
  18   11   12 1
  19   11   23 1
  20   12   13 1
  21   12   25 1
  22   12   28 1
  23   13   29 1
  24   13   30 1
  25   14   15 3
  26   15   16 1
  27   16   17 ar
  28   16   21 ar
  29   17   18 ar
  30   18   19 ar
  31   18   31 1
  32   19   20 ar
  33   19   32 1
  34   20   21 ar
  35   20   33 1
  36   21   34 1
  37   23   24 1
  38   23   35 1
  39   23   36 1
  40   24   25 1
  41   24   37 1
  42   24   38 1
  43   25   39 1
  44   25   40 1

#	End of record

