#	Name: ASD02038851
#	Creating user name:	WinNT
#	Creation time:	15. 06. 2019 20:17

#	Modifying user name:	WinNT
#	Modification time:	15. 06. 2019 20:17

#	Program:	/corina/corina34_cracker 3.40 0067  02.08.2006

@<TRIPOS>MOLECULE
ASD02038851
  49   51    0    0    0
SMALL
NO_CHARGES


@<TRIPOS>ATOM
   1 C1             1.0489     1.5955    -0.8493 C.2     
   2 C2             0.6856     0.1680    -0.8228 C.2     
   3 N3             1.4684    -0.7146    -0.1713 N.am    
   4 C4             1.0967    -2.1311    -0.1284 C.3     
   5 C5             0.7330    -2.5972    -1.5146 C.ar    
   6 C6             1.7266    -2.9661    -2.4018 C.ar    
   7 C7             1.3947    -3.3939    -3.6737 C.ar    
   8 C8             0.0666    -3.4528    -4.0592 C.ar    
   9 C9            -0.9289    -3.0828    -3.1691 C.ar    
  10 C10           -0.5945    -2.6607    -1.8958 C.ar    
  11 C11            2.6910    -0.2577     0.4941 C.3     
  12 C12            2.3241     0.6380     1.6814 C.3     
  13 C13            1.5315    -0.1816     2.7031 C.3     
  14 O14            2.3089    -1.3080     3.1143 O.3     
  15 C15            2.6417    -2.2059     2.0535 C.3     
  16 C16            3.4788    -1.4676     1.0057 C.3     
  17 O17           -0.3208    -0.2139    -1.3890 O.2     
  18 N18            2.2103     2.1364    -0.4002 N.2     
  19 C19            2.1748     3.4242    -0.5870 C.2     
  20 N20            0.9896     3.7552    -1.1625 N.pl3   
  21 C21            0.2821     2.6139    -1.3350 C.2     
  22 C22            0.5573     5.1043    -1.5354 C.3     
  23 Br23          -2.7440    -3.1623    -3.6933 Br      
  24 F24           -0.2588    -3.8703    -5.3021 F       
  25 C25            1.2129     0.6899     3.9196 C.3     
  26 C26            3.4456    -3.3812     2.6132 C.3     
  27 H27            1.9380    -2.7164     0.2427 H       
  28 H28            0.2419    -2.2625     0.5351 H       
  29 H29            2.7629    -2.9199    -2.1013 H       
  30 H30            2.1715    -3.6817    -4.3667 H       
  31 H31           -1.3699    -2.3721    -1.2016 H       
  32 H32            3.3019     0.3049    -0.2119 H       
  33 H33            3.2340     1.0177     2.1460 H       
  34 H34            1.7158     1.4729     1.3335 H       
  35 H35            0.6024    -0.5272     2.2499 H       
  36 H36            1.7270    -2.5779     1.5918 H       
  37 H37            3.6963    -2.1385     0.1747 H       
  38 H38            4.4120    -1.1304     1.4567 H       
  39 H39            2.9607     4.1176    -0.3262 H       
  40 H40           -0.7037     2.5273    -1.7674 H       
  41 H41            0.8672     5.3153    -2.5589 H       
  42 H42           -0.5283     5.1709    -1.4634 H       
  43 H43            1.0114     5.8307    -0.8613 H       
  44 H44            0.6208     1.5495     3.6056 H       
  45 H45            0.6486     0.1062     4.6469 H       
  46 H46            2.1422     1.0349     4.3728 H       
  47 H47            2.8498    -3.9061     3.3599 H       
  48 H48            3.6993    -4.0659     1.8039 H       
  49 H49            4.3603    -3.0089     3.0744 H       
@<TRIPOS>BOND
   1    1    2 1
   2    1   18 1
   3    1   21 2
   4    2    3 am
   5    2   17 2
   6    3    4 1
   7    3   11 1
   8    4    5 1
   9    4   27 1
  10    4   28 1
  11    5    6 ar
  12    5   10 ar
  13    6    7 ar
  14    6   29 1
  15    7    8 ar
  16    7   30 1
  17    8    9 ar
  18    8   24 1
  19    9   10 ar
  20    9   23 1
  21   10   31 1
  22   11   12 1
  23   11   16 1
  24   11   32 1
  25   12   13 1
  26   12   33 1
  27   12   34 1
  28   13   14 1
  29   13   25 1
  30   13   35 1
  31   14   15 1
  32   15   16 1
  33   15   26 1
  34   15   36 1
  35   16   37 1
  36   16   38 1
  37   18   19 2
  38   19   20 1
  39   19   39 1
  40   20   21 1
  41   20   22 1
  42   21   40 1
  43   22   41 1
  44   22   42 1
  45   22   43 1
  46   25   44 1
  47   25   45 1
  48   25   46 1
  49   26   47 1
  50   26   48 1
  51   26   49 1

#	End of record

