#	Name: ASD01900133
#	Creating user name:	WinNT
#	Creation time:	15. 06. 2019 19:51

#	Modifying user name:	WinNT
#	Modification time:	15. 06. 2019 19:51

#	Program:	/corina/corina34_cracker 3.40 0067  02.08.2006

@<TRIPOS>MOLECULE
ASD01900133
  42   45    0    0    0
SMALL
NO_CHARGES


@<TRIPOS>ATOM
   1 N1            -0.0189     1.3106     0.0360 N.ar    
   2 C2             0.0863     0.0004     0.0743 C.ar    
   3 C3            -0.7594    -0.8038    -0.6733 C.ar    
   4 C4            -1.7281    -0.2149    -1.4706 C.ar    
   5 C5            -1.8163     1.1684    -1.4911 C.ar    
   6 C6            -0.9328     1.9142    -0.7143 C.ar    
   7 C7            -1.0143     3.3932    -0.7247 C.2     
   8 N8            -0.1622     4.1203     0.0248 N.am    
   9 O9            -1.8495     3.9510    -1.4091 O.2     
  10 C10           -0.1739     5.5171    -0.0589 C.ar    
  11 C11           -1.3734     6.1914    -0.2469 C.ar    
  12 C12           -1.3846     7.5704    -0.3290 C.ar    
  13 C13           -0.1957     8.2820    -0.2234 C.ar    
  14 C14            1.0031     7.6070    -0.0355 C.ar    
  15 C15            1.0136     6.2296     0.0518 C.ar    
  16 Cl16          -2.8835     8.4140    -0.5645 Cl      
  17 N17           -0.2066     9.6818    -0.3071 N.am    
  18 C18           -0.0739    10.3393    -1.4657 C.2     
  19 C19           -0.1289    11.8283    -1.2022 C.3     
  20 C20           -0.3184    11.9183     0.3257 C.3     
  21 C21           -0.3562    10.4705     0.7642 C.2     
  22 S22            0.1135     9.6590    -2.9006 S.2     
  23 S23           -0.5419     9.9631     2.2692 S.2     
  24 C24           -1.4123    12.4220    -0.6179 C.3     
  25 C25           -1.6042    13.9357    -0.7308 C.3     
  26 C26           -2.6892    11.5862    -0.7271 C.3     
  27 H27            0.5727    12.4657    -1.7405 H       
  28 H28            0.2343    12.6289     0.9402 H       
  29 H29            0.8423    -0.4553     0.6967 H       
  30 H30           -0.6642    -1.8789    -0.6353 H       
  31 H31           -2.3987    -0.8199    -2.0627 H       
  32 H32           -2.5590     1.6608    -2.1012 H       
  33 H33            0.4591     3.6755     0.6221 H       
  34 H34           -2.2971     5.6379    -0.3292 H       
  35 H35            1.9271     8.1602     0.0462 H       
  36 H36            1.9462     5.7050     0.1980 H       
  37 H37           -1.6052    14.2244    -1.7819 H       
  38 H38           -2.5542    14.2164    -0.2761 H       
  39 H39           -0.7900    14.4446    -0.2150 H       
  40 H40           -2.5481    10.6377    -0.2090 H       
  41 H41           -3.5184    12.1286    -0.2728 H       
  42 H42           -2.9109    11.3970    -1.7774 H       
@<TRIPOS>BOND
   1    1    2 ar
   2    1    6 ar
   3    2    3 ar
   4    2   29 1
   5    3    4 ar
   6    3   30 1
   7    4    5 ar
   8    4   31 1
   9    5    6 ar
  10    5   32 1
  11    6    7 1
  12    7    8 am
  13    7    9 2
  14    8   10 1
  15    8   33 1
  16   10   11 ar
  17   10   15 ar
  18   11   12 ar
  19   11   34 1
  20   12   13 ar
  21   12   16 1
  22   13   14 ar
  23   13   17 1
  24   14   15 ar
  25   14   35 1
  26   15   36 1
  27   17   18 am
  28   17   21 am
  29   18   22 2
  30   18   19 1
  31   19   20 1
  32   19   24 1
  33   19   27 1
  34   20   28 1
  35   20   21 1
  36   20   24 1
  37   21   23 2
  38   24   25 1
  39   24   26 1
  40   25   37 1
  41   25   38 1
  42   25   39 1
  43   26   40 1
  44   26   41 1
  45   26   42 1

#	End of record

