#	Name: ASD01811958
#	Creating user name:	WinNT
#	Creation time:	15. 06. 2019 19:27

#	Modifying user name:	WinNT
#	Modification time:	15. 06. 2019 19:27

#	Program:	/corina/corina34_cracker 3.40 0067  02.08.2006

@<TRIPOS>MOLECULE
ASD01811958
  39   41    0    0    0
SMALL
NO_CHARGES


@<TRIPOS>ATOM
   1 C1             0.4817     0.5027     0.7595 C.ar    
   2 C2             0.6960    -0.8524     0.5638 C.ar    
   3 C3             1.9478    -1.3086     0.2163 C.ar    
   4 C4             3.0145    -0.4112     0.0574 C.ar    
   5 C5             2.7959     0.9509     0.2558 C.ar    
   6 C6             1.5196     1.3955     0.6071 C.ar    
   7 C7             4.3239    -0.9678    -0.3177 C.2     
   8 N8             5.1354    -0.4349    -1.1618 N.2     
   9 C9             4.8240     0.8198    -1.8454 C.3     
  10 C10            4.7221     1.9190    -0.8234 C.2     
  11 N11            3.7894     1.9081     0.1253 N.am    
  12 S12            5.7626     3.1319    -0.8781 S.2     
  13 C13            4.7387    -2.2355     0.3247 C.ar    
  14 C14            4.8933    -3.3911    -0.4409 C.ar    
  15 C15            5.2800    -4.5695     0.1633 C.ar    
  16 C16            5.5149    -4.6083     1.5264 C.ar    
  17 C17            5.3636    -3.4678     2.2934 C.ar    
  18 C18            4.9826    -2.2785     1.7000 C.ar    
  19 Cl19          -0.6139    -1.9751     0.7572 Cl      
  20 C20            3.4920     0.6832    -2.5856 C.3     
  21 C21            3.2215     1.9575    -3.3881 C.3     
  22 C22            3.5571    -0.5139    -3.5362 C.3     
  23 F23            4.8349    -1.1643     2.4495 F       
  24 H24           -0.5017     0.8598     1.0275 H       
  25 H25            2.1100    -2.3656     0.0653 H       
  26 H26            1.3444     2.4501     0.7605 H       
  27 H27            5.6163     1.0545    -2.5563 H       
  28 H28            3.8060     2.6266     0.7768 H       
  29 H29            4.7103    -3.3634    -1.5049 H       
  30 H30            5.3995    -5.4644    -0.4294 H       
  31 H31            5.8174    -5.5339     1.9935 H       
  32 H32            5.5478    -3.5050     3.3569 H       
  33 H33            2.6893     0.5309    -1.8641 H       
  34 H34            4.0241     2.1097    -4.1096 H       
  35 H35            2.2725     1.8602    -3.9154 H       
  36 H36            3.1751     2.8103    -2.7109 H       
  37 H37            4.4178    -0.4072    -4.1964 H       
  38 H38            3.6548    -1.4325    -2.9575 H       
  39 H39            2.6452    -0.5550    -4.1318 H       
@<TRIPOS>BOND
   1    1    2 ar
   2    1    6 ar
   3    1   24 1
   4    2    3 ar
   5    2   19 1
   6    3    4 ar
   7    3   25 1
   8    4    5 ar
   9    4    7 1
  10    5    6 ar
  11    5   11 1
  12    6   26 1
  13    7    8 2
  14    7   13 1
  15    8    9 1
  16    9   10 1
  17    9   20 1
  18    9   27 1
  19   10   11 am
  20   10   12 2
  21   11   28 1
  22   13   14 ar
  23   13   18 ar
  24   14   15 ar
  25   14   29 1
  26   15   16 ar
  27   15   30 1
  28   16   17 ar
  29   16   31 1
  30   17   18 ar
  31   17   32 1
  32   18   23 1
  33   20   21 1
  34   20   22 1
  35   20   33 1
  36   21   34 1
  37   21   35 1
  38   21   36 1
  39   22   37 1
  40   22   38 1
  41   22   39 1

#	End of record

