#	Name: ASD01230342
#	Creating user name:	WinNT
#	Creation time:	15. 06. 2019 19:14

#	Modifying user name:	WinNT
#	Modification time:	15. 06. 2019 19:14

#	Program:	/corina/corina34_cracker 3.40 0067  02.08.2006

@<TRIPOS>MOLECULE
ASD01230342
  27   28    0    0    0
SMALL
NO_CHARGES


@<TRIPOS>ATOM
   1 C1            -0.0144     1.2114     0.0087 C.2     
   2 O2             0.0517     0.1201    -0.5227 O.2     
   3 C3             1.2215     1.9651     0.3045 C.ar    
   4 C4             2.4405     1.2940     0.4256 C.ar    
   5 C5             3.5903     2.0039     0.7019 C.ar    
   6 C6             3.5381     3.3778     0.8594 C.ar    
   7 C7             2.3337     4.0491     0.7411 C.ar    
   8 C8             1.1772     3.3526     0.4585 C.ar    
   9 C9             4.7986     4.1465     1.1616 C.3     
  10 C10           -1.3304     1.7865     0.3532 C.ar    
  11 C11           -2.4806     1.3552    -0.3126 C.ar    
  12 C12           -3.7061     1.8958     0.0141 C.ar    
  13 C13           -3.7985     2.8648     0.9995 C.ar    
  14 C14           -2.6621     3.2968     1.6632 C.ar    
  15 C15           -1.4313     2.7601     1.3501 C.ar    
  16 Br16          -5.4834     3.6017     1.4401 Br      
  17 H17            2.4826     0.2218     0.3036 H       
  18 H18            4.5336     1.4864     0.7958 H       
  19 H19            2.3000     5.1213     0.8660 H       
  20 H20            0.2388     3.8783     0.3614 H       
  21 H21            5.2696     4.4536     0.2278 H       
  22 H22            4.5531     5.0292     1.7522 H       
  23 H23            5.4848     3.5128     1.7234 H       
  24 H24           -2.4097     0.6002    -1.0816 H       
  25 H25           -4.5959     1.5633    -0.4998 H       
  26 H26           -2.7409     4.0529     2.4304 H       
  27 H27           -0.5466     3.0946     1.8715 H       
@<TRIPOS>BOND
   1    1    2 2
   2    1    3 1
   3    1   10 1
   4    3    4 ar
   5    3    8 ar
   6    4    5 ar
   7    4   17 1
   8    5    6 ar
   9    5   18 1
  10    6    7 ar
  11    6    9 1
  12    7    8 ar
  13    7   19 1
  14    8   20 1
  15    9   21 1
  16    9   22 1
  17    9   23 1
  18   10   11 ar
  19   10   15 ar
  20   11   12 ar
  21   11   24 1
  22   12   13 ar
  23   12   25 1
  24   13   14 ar
  25   13   16 1
  26   14   15 ar
  27   14   26 1
  28   15   27 1

#	End of record

