#	Name: ASD05790074
#	Creating user name:	WinNT
#	Creation time:	15. 06. 2019 21:03

#	Modifying user name:	WinNT
#	Modification time:	15. 06. 2019 21:03

#	Program:	/corina/corina34_cracker 3.40 0067  02.08.2006

@<TRIPOS>MOLECULE
ASD05790074
  41   43    0    0    0
SMALL
NO_CHARGES


@<TRIPOS>ATOM
   1 Cl1           -0.1766     0.0106     0.4198 Cl      
   2 C2            -0.1156     1.7317     0.2014 C.ar    
   3 C3            -1.0617     2.3626    -0.5840 C.ar    
   4 C4            -1.0167     3.7321    -0.7604 C.ar    
   5 C5             0.8848     2.4786     0.8232 C.ar    
   6 C6             1.8980     1.8045     1.6712 C.ar    
   7 N7             2.5131     0.7176     1.2231 N.ar    
   8 C8             3.4191     0.0898     1.9447 C.ar    
   9 C9             3.7633     0.5446     3.2045 C.ar    
  10 C10            3.1441     1.6781     3.7114 C.ar    
  11 C11            2.2001     2.3211     2.9292 C.ar    
  12 C12            0.9299     3.8592     0.6452 C.ar    
  13 C13           -0.0195     4.4832    -0.1494 C.ar    
  14 N14            0.0225     5.8698    -0.3313 N.am    
  15 C15            1.2094     6.5036    -0.4093 C.2     
  16 O16            2.2414     5.8850    -0.2355 O.2     
  17 C17            1.2563     7.9501    -0.7060 C.ar    
  18 C18            0.0729     8.6639    -0.9062 C.ar    
  19 C19            0.1237    10.0140    -1.1823 C.ar    
  20 C20            2.4845     8.6116    -0.7819 C.ar    
  21 Cl21           3.9619     7.7357    -0.5290 Cl      
  22 C22            2.5201     9.9645    -1.0594 C.ar    
  23 C23            1.3439    10.6627    -1.2614 C.ar    
  24 S24            1.3983    12.3881    -1.6148 S.o2    
  25 O25            0.1449    12.8788    -1.1591 O.2     
  26 O26            2.6148    12.8281    -1.0269 O.2     
  27 C27            1.4969    12.4767    -3.4239 C.3     
  28 H28           -1.8382     1.7834    -1.0614 H       
  29 H29           -1.7584     4.2205    -1.3751 H       
  30 H30            3.8991    -0.7922     1.5472 H       
  31 H31            4.5038     0.0200     3.7899 H       
  32 H32            3.3957     2.0525     4.6927 H       
  33 H33            1.6988     3.2060     3.2926 H       
  34 H34            1.7024     4.4421     1.1248 H       
  35 H35           -0.8026     6.3750    -0.4012 H       
  36 H36           -0.8801     8.1596    -0.8452 H       
  37 H37           -0.7911    10.5666    -1.3376 H       
  38 H38            3.4685    10.4777    -1.1185 H       
  39 H39            0.6190    11.9996    -3.8595 H       
  40 H40            1.5350    13.5207    -3.7350 H       
  41 H41            2.3961    11.9631    -3.7644 H       
@<TRIPOS>BOND
   1    1    2 1
   2    2    3 ar
   3    2    5 ar
   4    3    4 ar
   5    3   28 1
   6    4   29 1
   7    4   13 ar
   8    5   12 ar
   9    5    6 1
  10    6    7 ar
  11    6   11 ar
  12    7    8 ar
  13    8   30 1
  14    8    9 ar
  15    9   10 ar
  16    9   31 1
  17   10   11 ar
  18   10   32 1
  19   11   33 1
  20   12   13 ar
  21   12   34 1
  22   13   14 1
  23   14   15 am
  24   14   35 1
  25   15   17 1
  26   15   16 2
  27   17   18 ar
  28   17   20 ar
  29   18   19 ar
  30   18   36 1
  31   19   37 1
  32   19   23 ar
  33   20   22 ar
  34   20   21 1
  35   22   23 ar
  36   22   38 1
  37   23   24 1
  38   24   25 2
  39   24   27 1
  40   24   26 2
  41   27   39 1
  42   27   40 1
  43   27   41 1

#	End of record

