#	Name: ASD01200243
#	Creating user name:	WinNT
#	Creation time:	15. 06. 2019 19:08

#	Modifying user name:	WinNT
#	Modification time:	15. 06. 2019 19:08

#	Program:	/corina/corina34_cracker 3.40 0067  02.08.2006

@<TRIPOS>MOLECULE
ASD01200243
  48   50    0    0    0
SMALL
NO_CHARGES


@<TRIPOS>ATOM
   1 C1             0.2163     0.9617     0.0180 C.ar    
   2 C2             0.4096    -0.4077     0.0046 C.ar    
   3 C3             1.6941    -0.9247    -0.0183 C.ar    
   4 C4             2.7822    -0.0710    -0.0277 C.ar    
   5 C5             2.5872     1.2976    -0.0142 C.ar    
   6 C6             1.3051     1.8136     0.0086 C.ar    
   7 Cl7           -0.9573    -1.4779     0.0170 Cl      
   8 Cl8            1.9385    -2.6434    -0.0345 Cl      
   9 C9             3.7731     2.2273    -0.0240 C.3     
  10 C10            3.7117     3.1193    -1.2656 C.3     
  11 C11            3.7478     3.0868     1.2137 C.2     
  12 C12            3.8783     2.2593    -2.5200 C.3     
  13 N13            4.7747     3.9189     1.4774 N.am    
  14 O14            2.8034     3.0296     1.9724 O.2     
  15 C15            3.6816     3.1210    -3.7797 C.3     
  16 C16            5.0044     3.0536    -4.5706 C.3     
  17 C17            5.6627     1.7336    -4.0981 C.3     
  18 C18            5.3137     1.6985    -2.5895 C.3     
  19 C19            4.8004     4.6355     2.6681 C.2     
  20 S20            3.6008     4.5580     3.8838 S.3     
  21 C21            4.4974     5.7205     4.8575 C.2     
  22 C22            5.6020     6.0561     4.1883 C.2     
  23 N23            5.7401     5.4557     3.0210 N.2     
  24 C24            6.6128     7.0370     4.7243 C.3     
  25 C25            7.9965     6.3844     4.7432 C.3     
  26 O26            8.9549     7.3145     5.2515 O.3     
  27 H27           -0.7852     1.3656     0.0313 H       
  28 H28            3.7843    -0.4736    -0.0451 H       
  29 H29            1.1538     2.8829     0.0187 H       
  30 H30            4.6930     1.6428    -0.0417 H       
  31 H31            2.7487     3.6288    -1.2996 H       
  32 H32            4.5122     3.8578    -1.2224 H       
  33 H33            3.1573     1.4419    -2.5105 H       
  34 H34            5.4958     4.0177     0.8362 H       
  35 H35            2.8658     2.7212    -4.3819 H       
  36 H36            3.4675     4.1518    -3.4973 H       
  37 H37            4.8069     3.0193    -5.6420 H       
  38 H38            5.6390     3.9053    -4.3258 H       
  39 H39            5.2277     0.8783    -4.6152 H       
  40 H40            6.7423     1.7664    -4.2442 H       
  41 H41            5.9983     2.3313    -2.0247 H       
  42 H42            5.3419     0.6752    -2.2151 H       
  43 H43            4.2043     6.0960     5.8268 H       
  44 H44            6.6363     7.9200     4.0856 H       
  45 H45            6.3346     7.3284     5.7371 H       
  46 H46            7.9730     5.5014     5.3819 H       
  47 H47            8.2747     6.0929     3.7304 H       
  48 H48            9.8566     6.9675     5.2919 H       
@<TRIPOS>BOND
   1    1    2 ar
   2    1    6 ar
   3    1   27 1
   4    2    3 ar
   5    2    7 1
   6    3    4 ar
   7    3    8 1
   8    4    5 ar
   9    4   28 1
  10    5    6 ar
  11    5    9 1
  12    6   29 1
  13    9   10 1
  14    9   11 1
  15    9   30 1
  16   10   12 1
  17   10   31 1
  18   10   32 1
  19   11   13 am
  20   11   14 2
  21   12   15 1
  22   12   18 1
  23   12   33 1
  24   13   19 1
  25   13   34 1
  26   15   16 1
  27   15   35 1
  28   15   36 1
  29   16   17 1
  30   16   37 1
  31   16   38 1
  32   17   18 1
  33   17   39 1
  34   17   40 1
  35   18   41 1
  36   18   42 1
  37   19   20 1
  38   19   23 2
  39   20   21 1
  40   21   22 2
  41   21   43 1
  42   22   23 1
  43   22   24 1
  44   24   25 1
  45   24   44 1
  46   24   45 1
  47   25   26 1
  48   25   46 1
  49   25   47 1
  50   26   48 1

#	End of record

