#	Name: ASD01820204
#	Creating user name:	WinNT
#	Creation time:	15. 06. 2019 19:36

#	Modifying user name:	WinNT
#	Modification time:	15. 06. 2019 19:36

#	Program:	/corina/corina34_cracker 3.40 0067  02.08.2006

@<TRIPOS>MOLECULE
ASD01820204
  98  104    0    0    0
SMALL
NO_CHARGES


@<TRIPOS>ATOM
   1 C1            -0.0242     1.8826     0.8037 C.ar    
   2 C2            -0.0092     0.4989     0.9634 C.ar    
   3 C3             1.1293    -0.2184     0.7507 C.ar    
   4 C4             2.3042     0.4422     0.3650 C.ar    
   5 C5             2.2907     1.8489     0.2016 C.ar    
   6 C6             1.0980     2.5567     0.4302 C.ar    
   7 C7             3.5061    -0.2701     0.1357 C.ar    
   8 C8             4.6426     0.4235    -0.2435 C.ar    
   9 C9             4.6119     1.8046    -0.3989 C.ar    
  10 C10            3.4682     2.5127    -0.1841 C.ar    
  11 C11            4.2740    -2.3056     1.3497 C.ar    
  12 C12            4.3127    -3.6731     1.5022 C.ar    
  13 C13            3.6250    -4.4950     0.6073 C.ar    
  14 C14            2.8979    -3.9299    -0.4421 C.ar    
  15 C15            2.8596    -2.5624    -0.5949 C.ar    
  16 C16            3.5473    -1.7405     0.3000 C.ar    
  17 C17            3.0348    -6.5686     1.8442 C.ar    
  18 C18            3.0697    -7.9491     2.0040 C.ar    
  19 C19            3.7289    -8.7448     1.1164 C.ar    
  20 C20            4.3896    -8.1743     0.0146 C.ar    
  21 C21            4.3638    -6.7696    -0.1637 C.ar    
  22 C22            3.6674    -5.9655     0.7707 C.ar    
  23 C23            5.0773    -8.9732    -0.9151 C.ar    
  24 C24            5.7069    -8.3880    -1.9708 C.ar    
  25 C25            5.6803    -7.0061    -2.1446 C.ar    
  26 C26            5.0238    -6.2018    -1.2625 C.ar    
  27 C27            5.9264    -0.3263    -0.4897 C.3     
  28 C28            5.9514    -0.8345    -1.9326 C.3     
  29 C29            7.2167    -1.6644    -2.1592 C.3     
  30 N30            7.2100    -2.2044    -3.5253 N.3     
  31 C31            2.2954    -5.7203     2.8467 C.3     
  32 C32            0.8762    -5.4538     2.3410 C.3     
  33 C33            0.0882    -4.6941     3.4101 C.3     
  34 N34           -1.3054    -4.5379     2.9726 N.3     
  35 C35           -4.6715    -3.6396     5.4416 C.3     
  36 C36           -4.1631    -2.5558     4.4887 C.3     
  37 C37           -3.3129    -3.1993     3.3915 C.3     
  38 C38           -2.1218    -3.9201     4.0261 C.3     
  39 C39           -2.6302    -5.0039     4.9789 C.3     
  40 C40           -3.4804    -4.3604     6.0761 C.3     
  41 C41            9.2574    -4.9735    -5.1172 C.3     
  42 C42            8.0522    -4.0607    -4.8826 C.3     
  43 C43            8.3673    -3.0807    -3.7506 C.3     
  44 C44            9.5821    -2.2330    -4.1334 C.3     
  45 C45           10.7874    -3.1458    -4.3680 C.3     
  46 C46           10.4723    -4.1258    -5.5000 C.3     
  47 H47           -0.9406     2.4281     0.9744 H       
  48 H48           -0.9128    -0.0125     1.2605 H       
  49 H49            1.1269    -1.2908     0.8789 H       
  50 H50            1.0719     3.6296     0.3094 H       
  51 H51            5.5105     2.3253    -0.6951 H       
  52 H52            3.4660     3.5853    -0.3105 H       
  53 H53            4.8023    -1.6696     2.0445 H       
  54 H54            4.8752    -4.1102     2.3139 H       
  55 H55            2.3665    -4.5658    -1.1347 H       
  56 H56            2.2977    -2.1253    -1.4070 H       
  57 H57            2.5657    -8.3986     2.8468 H       
  58 H58            3.7443    -9.8152     1.2595 H       
  59 H59            5.1064   -10.0459    -0.7925 H       
  60 H60            6.2349    -9.0039    -2.6837 H       
  61 H61            6.1877    -6.5661    -2.9904 H       
  62 H62            5.0112    -5.1319    -1.4095 H       
  63 H63            6.7734     0.3395    -0.3243 H       
  64 H64            5.9901    -1.1723     0.1946 H       
  65 H65            5.0732    -1.4539    -2.1150 H       
  66 H66            5.9461     0.0139    -2.6169 H       
  67 H67            8.0946    -1.0331    -2.0223 H       
  68 H68            7.2450    -2.4863    -1.4438 H       
  69 H69            6.3464    -2.6891    -3.7184 H       
  70 H70            2.2486    -6.2440     3.8015 H       
  71 H71            2.8186    -4.7730     2.9771 H       
  72 H72            0.9212    -4.8569     1.4301 H       
  73 H73            0.3816    -6.4019     2.1302 H       
  74 H74            0.1148    -5.2520     4.3461 H       
  75 H75            0.5342    -3.7110     3.5602 H       
  76 H76           -1.3583    -4.0071     2.1162 H       
  77 H77           -5.2772    -3.1812     6.2232 H       
  78 H78           -5.2765    -4.3566     4.8866 H       
  79 H79           -5.0117    -2.0423     4.0367 H       
  80 H80           -3.5581    -1.8388     5.0437 H       
  81 H81           -3.9179    -3.9163     2.8366 H       
  82 H82           -2.9507    -2.4272     2.7127 H       
  83 H83           -1.5168    -3.2031     4.5810 H       
  84 H84           -3.2352    -5.7209     4.4240 H       
  85 H85           -1.7816    -5.5174     5.4310 H       
  86 H86           -2.8754    -3.6434     6.6311 H       
  87 H87           -3.8426    -5.1325     6.7549 H       
  88 H88            9.4751    -5.5295    -4.2054 H       
  89 H89            9.0330    -5.6716    -5.9237 H       
  90 H90            7.8345    -3.5047    -5.7945 H       
  91 H91            7.1867    -4.6646    -4.6099 H       
  92 H92            8.5850    -3.6368    -2.8387 H       
  93 H93            9.3644    -1.6770    -5.0452 H       
  94 H94            9.8066    -1.5349    -3.3269 H       
  95 H95           11.6529    -2.5419    -4.6407 H       
  96 H96           11.0051    -3.7018    -3.4561 H       
  97 H97           11.3310    -4.7760    -5.6671 H       
  98 H98           10.2546    -3.5697    -6.4118 H       
@<TRIPOS>BOND
   1    1    2 ar
   2    1    6 ar
   3    1   47 1
   4    2    3 ar
   5    2   48 1
   6    3    4 ar
   7    3   49 1
   8    4    5 ar
   9    4    7 ar
  10    5    6 ar
  11    5   10 ar
  12    6   50 1
  13    7    8 ar
  14    7   16 1
  15    8    9 ar
  16    8   27 1
  17    9   10 ar
  18    9   51 1
  19   10   52 1
  20   11   12 ar
  21   11   16 ar
  22   11   53 1
  23   12   13 ar
  24   12   54 1
  25   13   14 ar
  26   13   22 1
  27   14   15 ar
  28   14   55 1
  29   15   16 ar
  30   15   56 1
  31   17   18 ar
  32   17   31 1
  33   17   22 ar
  34   18   19 ar
  35   18   57 1
  36   19   20 ar
  37   19   58 1
  38   20   21 ar
  39   20   23 ar
  40   21   22 ar
  41   21   26 ar
  42   23   24 ar
  43   23   59 1
  44   24   25 ar
  45   24   60 1
  46   25   26 ar
  47   25   61 1
  48   26   62 1
  49   27   28 1
  50   27   63 1
  51   27   64 1
  52   28   29 1
  53   28   65 1
  54   28   66 1
  55   29   30 1
  56   29   67 1
  57   29   68 1
  58   30   43 1
  59   30   69 1
  60   31   32 1
  61   31   70 1
  62   31   71 1
  63   32   33 1
  64   32   72 1
  65   32   73 1
  66   33   34 1
  67   33   74 1
  68   33   75 1
  69   34   38 1
  70   34   76 1
  71   35   36 1
  72   35   40 1
  73   35   77 1
  74   35   78 1
  75   36   37 1
  76   36   79 1
  77   36   80 1
  78   37   38 1
  79   37   81 1
  80   37   82 1
  81   38   39 1
  82   38   83 1
  83   39   40 1
  84   39   84 1
  85   39   85 1
  86   40   86 1
  87   40   87 1
  88   41   42 1
  89   41   46 1
  90   41   88 1
  91   41   89 1
  92   42   43 1
  93   42   90 1
  94   42   91 1
  95   43   44 1
  96   43   92 1
  97   44   45 1
  98   44   93 1
  99   44   94 1
 100   45   46 1
 101   45   95 1
 102   45   96 1
 103   46   97 1
 104   46   98 1

#	End of record

