#	Name: ASD01884823
#	Creating user name:	WinNT
#	Creation time:	15. 06. 2019 19:48

#	Modifying user name:	WinNT
#	Modification time:	15. 06. 2019 19:48

#	Program:	/corina/corina34_cracker 3.40 0067  02.08.2006

@<TRIPOS>MOLECULE
ASD01884823
  41   43    0    0    0
SMALL
NO_CHARGES


@<TRIPOS>ATOM
   1 Cl1            0.0000     0.0000     0.0000 Cl      
   2 H2             0.0000     1.3700     0.0000 H       
   3 C3            12.8928    14.9693    13.0457 C.3     
   4 C4            12.9135    13.4395    13.0373 C.3     
   5 C5            11.4997    12.9178    13.0480 C.ar    
   6 C6            11.0917    12.0375    12.0675 C.ar    
   7 C7             9.7778    11.5607    12.0882 C.ar    
   8 C8             8.9315    12.0014    13.1094 C.ar    
   9 C9             9.4214    12.8834    14.0508 C.ar    
  10 N10           10.6702    13.3051    13.9983 N.ar    
  11 C11            9.2947    10.6131    11.0540 C.2     
  12 C12            7.9994    10.0740    10.9714 C.2     
  13 C13            7.9569     9.2512     9.8852 C.2     
  14 N14            6.9230     8.4847     9.3667 N.am    
  15 C15            5.6159     8.4941    10.0282 C.3     
  16 C16            7.1032     7.7313     8.2623 C.2     
  17 O17            6.1922     7.0622     7.8126 O.2     
  18 C18            8.4255     7.7349     7.6109 C.ar    
  19 C19            8.6709     6.9771     6.4675 C.ar    
  20 C20            9.9213     7.0068     5.8862 C.ar    
  21 C21           10.9301     7.7839     6.4333 C.ar    
  22 C22           10.6997     8.5389     7.5663 C.ar    
  23 C23            9.4481     8.5221     8.1639 C.ar    
  24 N24            9.1888     9.2744     9.3049 N.pl3   
  25 N25           10.0040    10.1366    10.0521 N.2     
  26 H26           13.9154    15.3466    13.0380 H       
  27 H27           12.3656    15.3304    12.1627 H       
  28 H28           12.3826    15.3208    13.9425 H       
  29 H29           13.4237    13.0879    12.1405 H       
  30 H30           13.4407    13.0784    13.9204 H       
  31 H31           11.7772    11.7216    11.2950 H       
  32 H32            7.9092    11.6570    13.1607 H       
  33 H33            8.7749    13.2298    14.8435 H       
  34 H34            7.1825    10.2758    11.6484 H       
  35 H35            5.0000     9.2874     9.6046 H       
  36 H36            5.1250     7.5328     9.8766 H       
  37 H37            5.7502     8.6691    11.0956 H       
  38 H38            7.8869     6.3700     6.0393 H       
  39 H39           10.1156     6.4209     5.0000 H       
  40 H40           11.9053     7.7988     5.9695 H       
  41 H41           11.4921     9.1409     7.9860 H       
@<TRIPOS>BOND
   1    1    2 1
   2    3    4 1
   3    3   26 1
   4    3   27 1
   5    3   28 1
   6    4    5 1
   7    4   29 1
   8    4   30 1
   9    5   10 ar
  10    5    6 ar
  11    6    7 ar
  12    6   31 1
  13    7    8 ar
  14    7   11 1
  15    8    9 ar
  16    8   32 1
  17    9   10 ar
  18    9   33 1
  19   11   25 2
  20   11   12 1
  21   12   13 2
  22   12   34 1
  23   13   24 1
  24   13   14 1
  25   14   15 1
  26   14   16 am
  27   15   35 1
  28   15   36 1
  29   15   37 1
  30   16   17 2
  31   16   18 1
  32   18   23 ar
  33   18   19 ar
  34   19   20 ar
  35   19   38 1
  36   20   21 ar
  37   20   39 1
  38   21   22 ar
  39   21   40 1
  40   22   23 ar
  41   22   41 1
  42   23   24 1
  43   24   25 1

#	End of record

