#	Name: ASD01351007
#	Creating user name:	WinNT
#	Creation time:	15. 06. 2019 19:16

#	Modifying user name:	WinNT
#	Modification time:	15. 06. 2019 19:16

#	Program:	/corina/corina34_cracker 3.40 0067  02.08.2006

@<TRIPOS>MOLECULE
ASD01351007
  52   55    0    0    0
SMALL
NO_CHARGES


@<TRIPOS>ATOM
   1 C1             0.0544     1.1784     0.3832 C.ar    
   2 C2             0.0199    -0.0139    -0.3181 C.ar    
   3 C3             1.2324     1.8893     0.4834 C.ar    
   4 C4             1.1649    -0.5013    -0.9227 C.ar    
   5 C5             2.3910     1.4034    -0.1246 C.ar    
   6 C6             2.3494     0.1998    -0.8301 C.ar    
   7 N7             4.8301     1.5027     0.0653 N.am    
   8 C8             6.1150     2.2211     0.0357 C.3     
   9 C9             4.8785     0.0428     0.1995 C.3     
  10 C10            6.9968     1.6590    -1.0811 C.3     
  11 C11            5.8688     3.7126    -0.2004 C.3     
  12 C12            6.7979     2.0175     1.3872 C.3     
  13 C13            5.8824    -0.3365     1.2592 C.ar    
  14 C14            6.7687     0.5665     1.7896 C.ar    
  15 C15            5.9007    -1.6554     1.6910 C.ar    
  16 C16            7.6801     0.1461     2.7504 C.ar    
  17 C17            6.8024    -2.0655     2.6519 C.ar    
  18 C18            7.7008    -1.1675     3.1710 C.ar    
  19 C19            3.6569     2.1603    -0.0217 C.2     
  20 O20            3.6395     3.3757    -0.0156 O.2     
  21 O21            7.1397     4.4144    -0.2283 O.3     
  22 C22            7.0987     5.7460    -0.4284 C.2     
  23 C23            8.3527     6.5257    -0.4689 C.ar    
  24 O24            6.0306     6.3054    -0.5755 O.2     
  25 C25            8.3139     7.9060    -0.6761 C.ar    
  26 C26            9.4887     8.6281    -0.7128 C.ar    
  27 C27           10.7036     7.9875    -0.5449 C.ar    
  28 C28           10.7494     6.6199    -0.3397 C.ar    
  29 C29            9.5819     5.8867    -0.2945 C.ar    
  30 H30           -0.8438     1.5555     0.8494 H       
  31 H31           -0.9049    -0.5666    -0.3935 H       
  32 H32            1.2580     2.8200     1.0307 H       
  33 H33            1.1314    -1.4330    -1.4680 H       
  34 H34            3.2426    -0.1820    -1.3022 H       
  35 H35            3.8937    -0.3283     0.4833 H       
  36 H36            5.1716    -0.3995    -0.7527 H       
  37 H37            6.4924     1.7827    -2.0394 H       
  38 H38            7.9463     2.1941    -1.0985 H       
  39 H39            7.1800     0.5997    -0.9010 H       
  40 H40            5.3569     3.8501    -1.1528 H       
  41 H41            5.2515     4.1109     0.6048 H       
  42 H42            7.8338     2.3498     1.3191 H       
  43 H43            6.2813     2.6095     2.1427 H       
  44 H44            5.2037    -2.3662     1.2722 H       
  45 H45            8.3787     0.8540     3.1714 H       
  46 H46            6.8111    -3.0931     2.9840 H       
  47 H47            8.4130    -1.4857     3.9179 H       
  48 H48            7.3663     8.4071    -0.8076 H       
  49 H49            9.4601     9.6957    -0.8733 H       
  50 H50           11.6204     8.5576    -0.5746 H       
  51 H51           11.7011     6.1262    -0.2097 H       
  52 H52            9.6190     4.8193    -0.1342 H       
@<TRIPOS>BOND
   1    1    2 ar
   2    1    3 ar
   3    1   30 1
   4    2    4 ar
   5    2   31 1
   6    3    5 ar
   7    3   32 1
   8    4    6 ar
   9    4   33 1
  10    5    6 ar
  11    5   19 1
  12    6   34 1
  13    7    8 1
  14    7   19 am
  15    7    9 1
  16    8   11 1
  17    8   12 1
  18    8   10 1
  19    9   13 1
  20    9   35 1
  21    9   36 1
  22   10   37 1
  23   10   38 1
  24   10   39 1
  25   11   21 1
  26   11   40 1
  27   11   41 1
  28   12   14 1
  29   12   42 1
  30   12   43 1
  31   13   14 ar
  32   13   15 ar
  33   14   16 ar
  34   15   17 ar
  35   15   44 1
  36   16   18 ar
  37   16   45 1
  38   17   18 ar
  39   17   46 1
  40   18   47 1
  41   19   20 2
  42   21   22 1
  43   22   23 1
  44   22   24 2
  45   23   25 ar
  46   23   29 ar
  47   25   26 ar
  48   25   48 1
  49   26   27 ar
  50   26   49 1
  51   27   28 ar
  52   27   50 1
  53   28   29 ar
  54   28   51 1
  55   29   52 1

#	End of record

