#	Name: ASD09610044
#	Creating user name:	WinNT
#	Creation time:	15. 06. 2019 21:22

#	Modifying user name:	WinNT
#	Modification time:	15. 06. 2019 21:22

#	Program:	/corina/corina34_cracker 3.40 0067  02.08.2006

@<TRIPOS>MOLECULE
ASD09610044
  36   37    0    0    0
SMALL
NO_CHARGES


@<TRIPOS>ATOM
   1 N1            -0.0195     1.4430    -0.1905 N.pl3   
   2 N2            -0.0097     0.2238    -0.8772 N.2     
   3 C3             1.2272    -0.1245    -1.1023 C.2     
   4 C4             2.0679     0.8734    -0.5603 C.2     
   5 C5             1.2506     1.8346     0.0001 C.2     
   6 C6             3.5417     0.8858    -0.5879 C.2     
   7 O7             4.1477    -0.0269    -1.1160 O.2     
   8 N8             4.2176     1.9085    -0.0280 N.am    
   9 C9             1.6800    -1.3728    -1.8149 C.3     
  10 F10            0.5648    -2.0593    -2.3071 F       
  11 F11            2.5196    -1.0241    -2.8783 F       
  12 F12            2.3759    -2.1936    -0.9210 F       
  13 C13            5.6154     1.8642     0.0514 C.ar    
  14 C14            6.3590     3.0376    -0.0586 C.ar    
  15 C15            7.7409     2.9877     0.0206 C.ar    
  16 C16            8.3797     1.7756     0.2084 C.ar    
  17 C17            7.6427     0.6112     0.3177 C.ar    
  18 C18            6.2628     0.6531     0.2454 C.ar    
  19 O19            5.7295     4.2286    -0.2438 O.3     
  20 C20            6.5558     5.3898    -0.3479 C.3     
  21 C21            5.6762     6.6250    -0.5520 C.3     
  22 F22            4.8095     6.7654     0.5373 F       
  23 F23            6.4851     7.7618    -0.6539 F       
  24 F24            7.3023     5.5377     0.8259 F       
  25 F25            7.4224     5.2494    -1.4372 F       
  26 C26           -1.2142     2.1723     0.2419 C.3     
  27 H27            1.5735     2.7361     0.4995 H       
  28 H28            3.7362     2.6753     0.3201 H       
  29 H29            8.3197     3.8955    -0.0648 H       
  30 H30            9.4573     1.7386     0.2696 H       
  31 H31            8.1460    -0.3330     0.4643 H       
  32 H32            5.6893    -0.2575     0.3356 H       
  33 H33            5.0945     6.5097    -1.4666 H       
  34 H34           -1.4939     1.8493     1.2447 H       
  35 H35           -1.0039     3.2418     0.2501 H       
  36 H36           -2.0337     1.9684    -0.4473 H       
@<TRIPOS>BOND
   1    1    2 1
   2    1    5 1
   3    1   26 1
   4    2    3 2
   5    3    4 1
   6    3    9 1
   7    4    5 2
   8    4    6 1
   9    5   27 1
  10    6    7 2
  11    6    8 am
  12    8   13 1
  13    8   28 1
  14    9   10 1
  15    9   11 1
  16    9   12 1
  17   13   14 ar
  18   13   18 ar
  19   14   15 ar
  20   14   19 1
  21   15   16 ar
  22   15   29 1
  23   16   17 ar
  24   16   30 1
  25   17   18 ar
  26   17   31 1
  27   18   32 1
  28   19   20 1
  29   20   21 1
  30   20   24 1
  31   20   25 1
  32   21   22 1
  33   21   23 1
  34   21   33 1
  35   26   34 1
  36   26   35 1
  37   26   36 1

#	End of record

