#	Name: ASD02560020
#	Creating user name:	WinNT
#	Creation time:	15. 06. 2019 20:24

#	Modifying user name:	WinNT
#	Modification time:	15. 06. 2019 20:24

#	Program:	/corina/corina34_cracker 3.40 0067  02.08.2006

@<TRIPOS>MOLECULE
ASD02560020
  38   40    0    0    0
SMALL
NO_CHARGES


@<TRIPOS>ATOM
   1 C1            -0.0163     1.3480     0.0095 C.2     
   2 C2             0.0021    -0.0041     0.0020 C.2     
   3 N3            -1.1564    -0.7168     0.0092 N.am    
   4 C4            -2.3494    -0.0922     0.0244 C.2     
   5 C5            -2.4060     1.3189     0.0330 C.2     
   6 C6            -1.2397     2.0335     0.0307 C.2     
   7 C7             1.2787     2.1187     0.0012 C.3     
   8 C8             1.6389     2.4953    -1.4373 C.3     
   9 C9             1.3224    -0.7303    -0.0150 C.3     
  10 O10           -3.3809    -0.7450     0.0304 O.2     
  11 N11           -3.6412     1.9786     0.0488 N.pl3   
  12 C12           -4.8850     1.2045     0.0566 C.3     
  13 C13           -6.0621     2.1453     0.0734 C.2     
  14 O14           -6.6507     2.6181     1.1834 O.3     
  15 C15           -7.6655     3.4283     0.8095 C.ar    
  16 C16           -7.6702     3.4291    -0.5930 C.ar    
  17 N17           -6.6490     2.6193    -0.9841 N.2     
  18 C18           -8.6037     4.1796     1.5034 C.ar    
  19 C19           -9.5369     4.9239     0.8108 C.ar    
  20 C20           -9.5449     4.9274    -0.5763 C.ar    
  21 C21           -8.6207     4.1873    -1.2811 C.ar    
  22 Cl22          -8.6374     4.1970    -3.0170 Cl      
  23 Cl23          -8.6038     4.1826     3.2394 Cl      
  24 H24           -1.1229    -1.6862     0.0031 H       
  25 H25           -1.2607     3.1132     0.0375 H       
  26 H26            1.1661     3.0247     0.5966 H       
  27 H27            2.0714     1.5018     0.4247 H       
  28 H28            1.7516     1.5892    -2.0327 H       
  29 H29            0.8463     3.1121    -1.8607 H       
  30 H30            2.5756     3.0527    -1.4432 H       
  31 H31            1.6510    -0.9109     1.0085 H       
  32 H32            1.2068    -1.6824    -0.5328 H       
  33 H33            2.0646    -0.1228    -0.5330 H       
  34 H34           -3.6733     2.9481     0.0547 H       
  35 H35           -4.9307     0.5814    -0.8366 H       
  36 H36           -4.9133     0.5712     0.9433 H       
  37 H37          -10.2664     5.5076     1.3526 H       
  38 H38          -10.2801     5.5139    -1.1073 H       
@<TRIPOS>BOND
   1    1    2 2
   2    1    7 1
   3    1    6 1
   4    2    3 1
   5    2    9 1
   6    3    4 am
   7    3   24 1
   8    4    5 1
   9    4   10 2
  10    5    6 2
  11    5   11 1
  12    6   25 1
  13    7    8 1
  14    7   26 1
  15    7   27 1
  16    8   28 1
  17    8   29 1
  18    8   30 1
  19    9   31 1
  20    9   32 1
  21    9   33 1
  22   11   12 1
  23   11   34 1
  24   12   13 1
  25   12   35 1
  26   12   36 1
  27   13   14 1
  28   13   17 2
  29   14   15 1
  30   15   16 ar
  31   15   18 ar
  32   16   17 1
  33   16   21 ar
  34   18   19 ar
  35   18   23 1
  36   19   20 ar
  37   19   37 1
  38   20   21 ar
  39   20   38 1
  40   21   22 1

#	End of record

