#	Name: ASD00540001
#	Creating user name:	WinNT
#	Creation time:	15. 06. 2019 18:36

#	Modifying user name:	WinNT
#	Modification time:	15. 06. 2019 18:36

#	Program:	/corina/corina34_cracker 3.40 0067  02.08.2006

@<TRIPOS>MOLECULE
ASD00540001
  31   32    0    0    0
SMALL
NO_CHARGES


@<TRIPOS>ATOM
   1 C1            -0.0169     1.3939     0.0097 C.ar    
   2 C2             0.0021    -0.0041     0.0020 C.ar    
   3 C3            -1.1819    -0.7072     0.0095 C.ar    
   4 C4            -2.3957    -0.0368     0.0242 C.ar    
   5 C5            -2.4325     1.3417     0.0315 C.ar    
   6 C6            -1.2481     2.0702     0.0310 C.ar    
   7 C7            -3.0810     4.1021     0.0481 C.3     
   8 C8            -3.3654     5.5820     0.0568 C.2     
   9 C9            -4.7551     6.0639     0.0643 C.ar    
  10 C10           -5.0228     7.4370     0.0724 C.ar    
  11 C11           -6.3274     7.8811     0.0795 C.ar    
  12 C12           -7.3726     6.9714     0.0786 C.ar    
  13 C13           -7.1149     5.6099     0.0706 C.ar    
  14 C14           -5.8154     5.1512     0.0577 C.ar    
  15 C15            1.2452     2.1522     0.0017 C.2     
  16 O16            2.4239     1.4988    -0.0130 O.3     
  17 O17            1.2240     3.3674     0.0085 O.2     
  18 O18           -2.4485     6.3756     0.0576 O.2     
  19 S19           -1.2913     3.8317     0.0402 S.3     
  20 Cl20          -9.0128     7.5400     0.0881 Cl      
  21 H21            0.9442    -0.5319    -0.0101 H       
  22 H22           -1.1651    -1.7871     0.0035 H       
  23 H23           -3.3184    -0.5980     0.0296 H       
  24 H24           -3.3822     1.8559     0.0422 H       
  25 H25           -3.5138     3.6437     0.9373 H       
  26 H26           -3.5203     3.6530    -0.8426 H       
  27 H27           -4.2092     8.1471     0.0735 H       
  28 H28           -6.5357     8.9408     0.0861 H       
  29 H29           -7.9345     4.9065     0.0700 H       
  30 H30           -5.6160     4.0898     0.0515 H       
  31 H31            3.2256     2.0396    -0.0178 H       
@<TRIPOS>BOND
   1    1    2 ar
   2    1   15 1
   3    1    6 ar
   4    2   21 1
   5    2    3 ar
   6    3   22 1
   7    3    4 ar
   8    4   23 1
   9    4    5 ar
  10    5    6 ar
  11    5   24 1
  12    6   19 1
  13    7   25 1
  14    7   26 1
  15    7    8 1
  16    7   19 1
  17    8   18 2
  18    8    9 1
  19    9   10 ar
  20    9   14 ar
  21   10   27 1
  22   10   11 ar
  23   11   28 1
  24   11   12 ar
  25   12   13 ar
  26   12   20 1
  27   13   14 ar
  28   13   29 1
  29   14   30 1
  30   15   16 1
  31   15   17 2
  32   16   31 1

#	End of record

