#	Name: ASD01810762
#	Creating user name:	WinNT
#	Creation time:	15. 06. 2019 19:25

#	Modifying user name:	WinNT
#	Modification time:	15. 06. 2019 19:25

#	Program:	/corina/corina34_cracker 3.40 0067  02.08.2006

@<TRIPOS>MOLECULE
ASD01810762
  66   69    0    0    0
SMALL
NO_CHARGES


@<TRIPOS>ATOM
   1 N1            -0.0298     1.2782    -0.2234 N.ar    
   2 C2            -0.0022    -0.0006     0.1349 C.ar    
   3 C3            -1.2704    -0.7071     0.4322 C.2     
   4 N4            -2.4217    -0.0131     0.5290 N.am    
   5 O5            -1.2723    -1.9121     0.5887 O.2     
   6 C6            -2.4138     1.4561     0.5127 C.3     
   7 C7             1.2054    -0.6826     0.2333 C.ar    
   8 C8             2.3896    -0.0033    -0.0503 C.ar    
   9 C9             2.3104     1.3371    -0.4221 C.ar    
  10 C10            1.0707     1.9459    -0.4973 C.ar    
  11 C11            3.5617     2.1151    -0.7382 C.3     
  12 N12            3.6226    -0.6495     0.0364 N.am    
  13 C13            3.7630    -1.7298     0.8299 C.2     
  14 C14           -3.1634     1.9669     1.7471 C.3     
  15 C15           -4.5619     1.3462     1.7828 C.3     
  16 C16           -4.4437    -0.1762     1.8852 C.3     
  17 C17           -3.7090    -0.7113     0.6467 C.3     
  18 C18           -5.3145     1.8728     2.9775 C.ar    
  19 C19           -6.4975     2.5669     2.7949 C.ar    
  20 C20           -7.1918     3.0513     3.8841 C.ar    
  21 C21           -6.6982     2.8397     5.1730 C.ar    
  22 C22           -5.5038     2.1385     5.3499 C.ar    
  23 C23           -4.8224     1.6551     4.2522 C.ar    
  24 C24           -7.4134     3.3401     6.3082 C.1     
  25 N25           -7.9807     3.7371     7.2088 N.1     
  26 O26            2.7975    -2.1875     1.4102 O.2     
  27 C27            5.0879    -2.3569     0.9943 C.ar    
  28 C28            6.2029    -1.8398     0.3329 C.ar    
  29 N29            7.3859    -2.3993     0.4788 N.ar    
  30 C30            7.5619    -3.4629     1.2509 C.ar    
  31 C31            6.4928    -4.0320     1.9411 C.ar    
  32 C32            5.2466    -3.4789     1.8228 C.ar    
  33 N33            8.8252    -4.0163     1.3729 N.pl3   
  34 C34            8.7130    -6.4588     1.4274 C.3     
  35 C35            9.0312    -5.1914     2.2232 C.3     
  36 C36           10.4877    -5.2343     2.6898 C.3     
  37 H37           -1.3852     1.8162     0.5348 H       
  38 H38           -2.9092     1.8142    -0.3898 H       
  39 H39            1.2259    -1.7222     0.5251 H       
  40 H40            1.0048     2.9847    -0.7854 H       
  41 H41            3.7870     2.0247    -1.8008 H       
  42 H42            3.4100     3.1649    -0.4871 H       
  43 H43            4.3931     1.7186    -0.1554 H       
  44 H44            4.3791    -0.3213    -0.4744 H       
  45 H45           -2.6171     1.6848     2.6471 H       
  46 H46           -3.2484     3.0525     1.6978 H       
  47 H47           -5.0989     1.6083     0.8712 H       
  48 H48           -3.8853    -0.4381     2.7839 H       
  49 H49           -5.4398    -0.6159     1.9341 H       
  50 H50           -4.3121    -0.5295    -0.2429 H       
  51 H51           -3.5340    -1.7813     0.7596 H       
  52 H52           -6.8779     2.7301     1.7974 H       
  53 H53           -8.1148     3.5932     3.7402 H       
  54 H54           -5.1162     1.9717     6.3441 H       
  55 H55           -3.8985     1.1125     4.3875 H       
  56 H56            6.0945    -0.9742    -0.3037 H       
  57 H57            6.6473    -4.8984     2.5670 H       
  58 H58            4.4026    -3.9017     2.3475 H       
  59 H59            9.5739    -3.6259     0.8954 H       
  60 H60            8.8662    -7.3331     2.0600 H       
  61 H61            7.6754    -6.4282     1.0950 H       
  62 H62            9.3707    -6.5180     0.5602 H       
  63 H63            8.3734    -5.1321     3.0904 H       
  64 H64           11.1454    -5.2935     1.8226 H       
  65 H65           10.7143    -4.3314     3.2568 H       
  66 H66           10.6409    -6.1086     3.3224 H       
@<TRIPOS>BOND
   1    1    2 ar
   2    1   10 ar
   3    2    3 1
   4    2    7 ar
   5    3    4 am
   6    3    5 2
   7    4    6 1
   8    4   17 1
   9    6   14 1
  10    6   37 1
  11    6   38 1
  12    7    8 ar
  13    7   39 1
  14    8    9 ar
  15    8   12 1
  16    9   10 ar
  17    9   11 1
  18   10   40 1
  19   11   41 1
  20   11   42 1
  21   11   43 1
  22   12   13 am
  23   12   44 1
  24   13   26 2
  25   13   27 1
  26   14   15 1
  27   14   45 1
  28   14   46 1
  29   15   16 1
  30   15   18 1
  31   15   47 1
  32   16   17 1
  33   16   48 1
  34   16   49 1
  35   17   50 1
  36   17   51 1
  37   18   19 ar
  38   18   23 ar
  39   19   20 ar
  40   19   52 1
  41   20   21 ar
  42   20   53 1
  43   21   22 ar
  44   21   24 1
  45   22   23 ar
  46   22   54 1
  47   23   55 1
  48   24   25 3
  49   27   28 ar
  50   27   32 ar
  51   28   29 ar
  52   28   56 1
  53   29   30 ar
  54   30   31 ar
  55   30   33 1
  56   31   32 ar
  57   31   57 1
  58   32   58 1
  59   33   35 1
  60   33   59 1
  61   34   35 1
  62   34   60 1
  63   34   61 1
  64   34   62 1
  65   35   36 1
  66   35   63 1
  67   36   64 1
  68   36   65 1
  69   36   66 1

#	End of record

