#	Name: ASD03740179
#	Creating user name:	WinNT
#	Creation time:	15. 06. 2019 20:46

#	Modifying user name:	WinNT
#	Modification time:	15. 06. 2019 20:46

#	Program:	/corina/corina34_cracker 3.40 0067  02.08.2006

@<TRIPOS>MOLECULE
ASD03740179
  72   76    0    0    0
SMALL
NO_CHARGES


@<TRIPOS>ATOM
   1 C1            -0.0261     1.4479    -0.6600 C.ar    
   2 C2            -0.0107     0.0824    -0.9145 C.ar    
   3 C3            -1.1763    -0.6218    -1.0259 C.ar    
   4 C4            -2.3975     0.0322    -0.8830 C.ar    
   5 C5            -2.4145     1.4165    -0.6245 C.ar    
   6 C6            -1.2084     2.1140    -0.5098 C.ar    
   7 N7            -3.7045    -0.3766    -0.9368 N.pl3   
   8 N8            -4.5393     0.7239    -0.7173 N.2     
   9 C9            -3.8232     1.7987    -0.5291 C.2     
  10 O10           -4.3005     3.0483    -0.2874 O.3     
  11 C11           -4.1555    -1.7480    -1.1857 C.3     
  12 C12           -4.2860    -2.4796     0.1254 C.ar    
  13 C13           -5.4848    -2.4562     0.8133 C.ar    
  14 C14           -5.6051    -3.1269     2.0158 C.ar    
  15 C15           -4.5254    -3.8219     2.5309 C.ar    
  16 C16           -3.3258    -3.8449     1.8420 C.ar    
  17 C17           -3.2085    -3.1785     0.6368 C.ar    
  18 C18           -5.7203     3.2015    -0.2347 C.3     
  19 C19           -6.0652     4.6657     0.0448 C.3     
  20 Cl20          -4.6755    -4.6641     4.0415 Cl      
  21 C21           -7.5853     4.8297     0.1014 C.3     
  22 N22           -7.9196     6.2540     0.2338 N.3     
  23 C23           -7.2535     6.8471     1.4129 C.3     
  24 C24           -9.3751     6.4446     0.3715 C.3     
  25 C25           -9.6130     7.2136     1.6882 C.3     
  26 C26           -8.2498     7.9115     1.9364 C.3     
  27 C27           -5.9351     7.5071     1.0040 C.3     
  28 C28            1.2745     2.2000    -0.5425 C.3     
  29 C29            1.6901     2.7185    -1.9207 C.3     
  30 C30            2.9427     3.5863    -1.7826 C.3     
  31 C31            3.3583     4.1048    -3.1608 C.3     
  32 C32            3.6573     2.9206    -4.0823 C.3     
  33 C33            2.4048     2.0528    -4.2203 C.3     
  34 C34            1.9891     1.5343    -2.8422 C.3     
  35 H35            0.9341    -0.4289    -1.0260 H       
  36 H36           -1.1506    -1.6830    -1.2246 H       
  37 H37           -1.2120     3.1757    -0.3117 H       
  38 H38           -5.1227    -1.7270    -1.6878 H       
  39 H39           -3.4295    -2.2604    -1.8169 H       
  40 H40           -6.3275    -1.9134     0.4113 H       
  41 H41           -6.5416    -3.1083     2.5533 H       
  42 H42           -2.4826    -4.3873     2.2436 H       
  43 H43           -2.2721    -3.1964     0.0989 H       
  44 H44           -6.1538     2.9018    -1.1888 H       
  45 H45           -6.1240     2.5749     0.5606 H       
  46 H46           -5.6317     4.9653     0.9990 H       
  47 H47           -5.6615     5.2923    -0.7505 H       
  48 H48           -8.0275     4.4363    -0.8140 H       
  49 H49           -7.9781     4.2831     0.9587 H       
  50 H50           -7.0762     6.0851     2.1719 H       
  51 H51           -9.7545     7.0241    -0.4701 H       
  52 H52           -9.8737     5.4761     0.4125 H       
  53 H53          -10.4067     7.9506     1.5660 H       
  54 H54           -9.8468     6.5248     2.4999 H       
  55 H55           -8.0960     8.1013     2.9987 H       
  56 H56           -8.1732     8.8343     1.3614 H       
  57 H57           -6.1330     8.2930     0.2751 H       
  58 H58           -5.4570     7.9390     1.8832 H       
  59 H59           -5.2761     6.7595     0.5625 H       
  60 H60            1.1476     3.0411     0.1390 H       
  61 H61            2.0461     1.5334    -0.1572 H       
  62 H62            0.8809     3.3133    -2.3443 H       
  63 H63            2.7296     4.4299    -1.1261 H       
  64 H64            3.7519     2.9915    -1.3590 H       
  65 H65            2.5490     4.6995    -3.5844 H       
  66 H66            4.2506     4.7230    -3.0625 H       
  67 H67            3.9534     3.2900    -5.0642 H       
  68 H68            4.4665     2.3258    -3.6587 H       
  69 H69            1.5955     2.6476    -4.6440 H       
  70 H70            2.6178     1.2092    -4.8769 H       
  71 H71            2.7984     0.9395    -2.4185 H       
  72 H72            1.0968     0.9161    -2.9405 H       
@<TRIPOS>BOND
   1    1    2 ar
   2    1   28 1
   3    1    6 ar
   4    2    3 ar
   5    2   35 1
   6    3    4 ar
   7    3   36 1
   8    4    5 ar
   9    4    7 1
  10    5    6 ar
  11    5    9 1
  12    6   37 1
  13    7    8 1
  14    7   11 1
  15    8    9 2
  16    9   10 1
  17   10   18 1
  18   11   12 1
  19   11   38 1
  20   11   39 1
  21   12   13 ar
  22   12   17 ar
  23   13   14 ar
  24   13   40 1
  25   14   15 ar
  26   14   41 1
  27   15   16 ar
  28   15   20 1
  29   16   17 ar
  30   16   42 1
  31   17   43 1
  32   18   19 1
  33   18   44 1
  34   18   45 1
  35   19   21 1
  36   19   46 1
  37   19   47 1
  38   21   22 1
  39   21   48 1
  40   21   49 1
  41   22   24 1
  42   22   23 1
  43   23   27 1
  44   23   26 1
  45   23   50 1
  46   24   25 1
  47   24   51 1
  48   24   52 1
  49   25   26 1
  50   25   53 1
  51   25   54 1
  52   26   55 1
  53   26   56 1
  54   27   57 1
  55   27   58 1
  56   27   59 1
  57   28   29 1
  58   28   60 1
  59   28   61 1
  60   29   30 1
  61   29   34 1
  62   29   62 1
  63   30   31 1
  64   30   63 1
  65   30   64 1
  66   31   32 1
  67   31   65 1
  68   31   66 1
  69   32   33 1
  70   32   67 1
  71   32   68 1
  72   33   34 1
  73   33   69 1
  74   33   70 1
  75   34   71 1
  76   34   72 1

#	End of record

