#	Name: ASD01680021
#	Creating user name:	WinNT
#	Creation time:	15. 06. 2019 19:22

#	Modifying user name:	WinNT
#	Modification time:	15. 06. 2019 19:22

#	Program:	/corina/corina34_cracker 3.40 0067  02.08.2006

@<TRIPOS>MOLECULE
ASD01680021
  85   89    0    0    0
SMALL
NO_CHARGES


@<TRIPOS>ATOM
   1 N1             0.7581     1.0539     2.3407 N.am    
   2 C2             0.6261    -0.4068     2.1912 C.3     
   3 C3             2.0524    -0.9607     2.4329 C.3     
   4 C4             2.9283     0.1321     1.7652 C.3     
   5 C5             2.1534     1.4311     2.0717 C.3     
   6 C6            -0.2368     1.9034     2.6647 C.2     
   7 O7            -1.3760     1.4936     2.7684 O.2     
   8 O8             0.0317     3.2062     2.8733 O.3     
   9 C9            -0.3451    -0.9632     3.2344 C.3     
  10 N10            0.0741    -0.5327     4.5705 N.pl3   
  11 C11           -0.7126    -0.8335     5.6763 C.ar    
  12 C12           -1.8970    -1.5439     5.5072 C.ar    
  13 C13           -2.6700    -1.8363     6.6160 C.ar    
  14 C14           -2.2312    -1.4071     7.8618 C.ar    
  15 C15           -1.0457    -0.7065     7.9566 C.ar    
  16 N16           -0.3256    -0.4462     6.8817 N.ar    
  17 O17            4.2291     0.1681     2.3557 O.3     
  18 C18            5.2619     0.5872     1.4614 C.3     
  19 C19            6.5835     0.5882     2.1855 C.2     
  20 N20            7.7074     0.9515     1.5363 N.am    
  21 O21            6.6358     0.2621     3.3525 O.2     
  22 C22            8.9922     0.9524     2.2402 C.3     
  23 C23           10.0980     1.4011     1.2828 C.3     
  24 C24           11.4345     1.2850     1.9692 C.2     
  25 O25           12.2894     0.5655     1.5093 O.2     
  26 O26           11.6753     1.9807     3.0916 O.3     
  27 N27           10.0860     0.5506     0.0900 N.am    
  28 C28           10.5795     1.0161    -1.0746 C.2     
  29 O29           11.0345     2.1419    -1.1353 O.2     
  30 C30           10.5208     0.7374    -3.5578 C.ar    
  31 C31           10.5674     0.1590    -2.2765 C.ar    
  32 C32           10.6027    -1.2294    -2.1488 C.ar    
  33 C33           10.5917    -2.0257    -3.2756 C.ar    
  34 C34           10.5458    -1.4552    -4.5365 C.ar    
  35 C35           10.5104    -0.0826    -4.6822 C.ar    
  36 C36           10.4768     2.2109    -3.7094 C.ar    
  37 C37           11.4446     2.8654    -4.4705 C.ar    
  38 C38           11.3981     4.2377    -4.6084 C.ar    
  39 C39           10.3943     4.9639    -3.9930 C.ar    
  40 C40            9.4317     4.3201    -3.2363 C.ar    
  41 C41            9.4641     2.9477    -3.0963 C.ar    
  42 C42           -1.0886     4.0629     3.2187 C.3     
  43 C43           -0.5997     5.4751     3.4131 C.ar    
  44 C44           -0.5619     6.3472     2.3412 C.ar    
  45 C45           -0.1134     7.6425     2.5195 C.ar    
  46 C46            0.2969     8.0660     3.7698 C.ar    
  47 C47            0.2582     7.1942     4.8419 C.ar    
  48 C48           -0.1943     5.9001     4.6645 C.ar    
  49 H49            0.2876    -0.6562     1.1856 H       
  50 H50            2.2669    -1.0360     3.4990 H       
  51 H51            2.1862    -1.9237     1.9402 H       
  52 H52            2.9961    -0.0318     0.6898 H       
  53 H53            2.1974     2.1004     1.2126 H       
  54 H54            2.5807     1.9198     2.9473 H       
  55 H55           -1.3492    -0.5910     3.0311 H       
  56 H56           -0.3447    -2.0522     3.1868 H       
  57 H57            0.9006    -0.0377     4.6835 H       
  58 H58           -2.2086    -1.8622     4.5233 H       
  59 H59           -3.5943    -2.3859     6.5154 H       
  60 H60           -2.8118    -1.6190     8.7475 H       
  61 H61           -0.7008    -0.3709     8.9234 H       
  62 H62            5.3112    -0.0992     0.6161 H       
  63 H63            5.0444     1.5926     1.1008 H       
  64 H64            7.6655     1.2123     0.6030 H       
  65 H65            8.9428     1.6388     3.0855 H       
  66 H66            9.2096    -0.0530     2.6008 H       
  67 H67            9.9279     2.4377     0.9916 H       
  68 H68           12.5472     1.8737     3.4959 H       
  69 H69            9.7230    -0.3476     0.1384 H       
  70 H70           10.6390    -1.6810    -1.1685 H       
  71 H71           10.6195    -3.1005    -3.1735 H       
  72 H72           10.5379    -2.0880    -5.4117 H       
  73 H73           10.4746     0.3548    -5.6690 H       
  74 H74           12.2291     2.2996    -4.9508 H       
  75 H75           12.1472     4.7457    -5.1976 H       
  76 H76           10.3622     6.0377    -4.1035 H       
  77 H77            8.6508     4.8924    -2.7576 H       
  78 H78            8.7093     2.4457    -2.5092 H       
  79 H79           -1.8244     4.0406     2.4149 H       
  80 H80           -1.5473     3.7070     4.1412 H       
  81 H81           -0.8824     6.0163     1.3644 H       
  82 H82           -0.0832     8.3236     1.6819 H       
  83 H83            0.6479     9.0778     3.9089 H       
  84 H84            0.5791     7.5249     5.8187 H       
  85 H85           -0.2280     5.2201     5.5029 H       
@<TRIPOS>BOND
   1    1    2 1
   2    1    5 1
   3    1    6 am
   4    2    3 1
   5    2    9 1
   6    2   49 1
   7    3    4 1
   8    3   50 1
   9    3   51 1
  10    4    5 1
  11    4   17 1
  12    4   52 1
  13    5   53 1
  14    5   54 1
  15    6    7 2
  16    6    8 1
  17    8   42 1
  18    9   10 1
  19    9   55 1
  20    9   56 1
  21   10   11 1
  22   10   57 1
  23   11   12 ar
  24   11   16 ar
  25   12   13 ar
  26   12   58 1
  27   13   14 ar
  28   13   59 1
  29   14   15 ar
  30   14   60 1
  31   15   16 ar
  32   15   61 1
  33   17   18 1
  34   18   19 1
  35   18   62 1
  36   18   63 1
  37   19   20 am
  38   19   21 2
  39   20   22 1
  40   20   64 1
  41   22   23 1
  42   22   65 1
  43   22   66 1
  44   23   24 1
  45   23   27 1
  46   23   67 1
  47   24   25 2
  48   24   26 1
  49   26   68 1
  50   27   28 am
  51   27   69 1
  52   28   29 2
  53   28   31 1
  54   30   31 ar
  55   30   35 ar
  56   30   36 1
  57   31   32 ar
  58   32   33 ar
  59   32   70 1
  60   33   34 ar
  61   33   71 1
  62   34   35 ar
  63   34   72 1
  64   35   73 1
  65   36   37 ar
  66   36   41 ar
  67   37   38 ar
  68   37   74 1
  69   38   39 ar
  70   38   75 1
  71   39   40 ar
  72   39   76 1
  73   40   41 ar
  74   40   77 1
  75   41   78 1
  76   42   43 1
  77   42   79 1
  78   42   80 1
  79   43   44 ar
  80   43   48 ar
  81   44   45 ar
  82   44   81 1
  83   45   46 ar
  84   45   82 1
  85   46   47 ar
  86   46   83 1
  87   47   48 ar
  88   47   84 1
  89   48   85 1

#	End of record

