#	Name: ASD00460017
#	Creating user name:	WinNT
#	Creation time:	15. 06. 2019 18:36

#	Modifying user name:	WinNT
#	Modification time:	15. 06. 2019 18:36

#	Program:	/corina/corina34_cracker 3.40 0067  02.08.2006

@<TRIPOS>MOLECULE
ASD00460017
  81   86    0    0    0
SMALL
NO_CHARGES


@<TRIPOS>ATOM
   1 C1             1.5528     2.5983    -0.2385 C.ar    
   2 C2             1.2832     1.2145    -0.7709 C.3     
   3 O3             2.3845     0.3600    -0.4559 O.3     
   4 C4             2.0235    -1.0108    -0.2755 C.3     
   5 C5             3.2737    -1.8281     0.0558 C.3     
   6 C6             2.8715    -3.2702     0.3712 C.3     
   7 N7             4.0548    -4.0248     0.8051 N.3     
   8 C8             3.7060    -5.4173     1.1171 C.3     
   9 C9             1.1049     1.2779    -2.2892 C.3     
  10 O10            4.1618    -1.8152    -1.0636 O.3     
  11 C11            4.9610    -6.1696     1.5643 C.3     
  12 C12            5.5704    -5.4678     2.7796 C.3     
  13 C13            2.6681    -5.4434     2.2411 C.3     
  14 C14            3.1254    -6.0891    -0.1288 C.3     
  15 C15            2.8537     3.0220    -0.0424 C.ar    
  16 C16            3.1010     4.2915     0.4461 C.ar    
  17 C17            2.0474     5.1371     0.7378 C.ar    
  18 C18            0.7461     4.7137     0.5407 C.ar    
  19 C19            0.4990     3.4461     0.0483 C.ar    
  20 C20           -0.9194     2.9845    -0.1666 C.3     
  21 C21           -1.8317     3.4995     0.9700 C.3     
  22 C22           -2.8852     4.3983     0.2533 C.3     
  23 C23           -2.0806     5.6527    -0.2055 C.3     
  24 C24           -1.1683     5.1377    -1.3421 C.3     
  25 C25           -1.5075     3.6206    -1.4630 C.3     
  26 C26           -2.2922     6.1312    -1.6432 C.3     
  27 C27           -3.0368     3.6363    -1.1104 C.3     
  28 C28            6.7503    -6.2834     3.3496 C.3     
  29 C29            7.7482    -5.2524     3.8319 C.ar    
  30 C30            7.4613    -4.0242     3.2666 C.ar    
  31 C31            6.2510    -4.1458     2.3656 C.3     
  32 C32            8.8224    -5.3791     4.6968 C.ar    
  33 C33            9.6069    -4.2826     4.9960 C.ar    
  34 C34            9.3200    -3.0541     4.4304 C.ar    
  35 C35            8.2494    -2.9258     3.5675 C.ar    
  36 C36           -1.8971     7.5487    -1.9684 C.2     
  37 O37           -0.7311     7.8655    -1.9702 O.2     
  38 O38           -2.8405     8.4592    -2.2560 O.3     
  39 H39            0.3753     0.8202    -0.3146 H       
  40 H40            1.3080    -1.0935     0.5426 H       
  41 H41            1.5729    -1.3915    -1.1921 H       
  42 H42            3.7736    -1.3928     0.9212 H       
  43 H43            2.1264    -3.2739     1.1667 H       
  44 H44            2.4522    -3.7340    -0.5217 H       
  45 H45            4.7856    -3.9821     0.1107 H       
  46 H46            2.0129     1.6722    -2.7455 H       
  47 H47            0.9099     0.2770    -2.6742 H       
  48 H48            0.2649     1.9297    -2.5294 H       
  49 H49            3.7824    -2.1886    -1.8709 H       
  50 H50            4.6957    -7.1927     1.8307 H       
  51 H51            5.6861    -6.1824     0.7506 H       
  52 H52            4.8137    -5.2945     3.5447 H       
  53 H53            1.7333    -5.0127     1.8824 H       
  54 H54            2.4972    -6.4734     2.5539 H       
  55 H55            3.0346    -4.8626     3.0875 H       
  56 H56            3.8648    -6.0705    -0.9295 H       
  57 H57            2.8665    -7.1223     0.1027 H       
  58 H58            2.2313    -5.5532    -0.4474 H       
  59 H59            3.6770     2.3612    -0.2703 H       
  60 H60            4.1175     4.6223     0.6001 H       
  61 H61            2.2406     6.1286     1.1200 H       
  62 H62           -0.0772     5.3743     0.7690 H       
  63 H63           -0.9597     1.8967    -0.2229 H       
  64 H64           -2.3222     2.6651     1.4712 H       
  65 H65           -1.2543     4.0866     1.6842 H       
  66 H66           -3.8004     4.5970     0.8110 H       
  67 H67           -1.7287     6.3428     0.5614 H       
  68 H68           -0.1246     5.4373    -1.4372 H       
  69 H69           -1.2230     3.1419    -2.4001 H       
  70 H70           -3.1664     5.7545    -2.1743 H       
  71 H71           -3.4354     2.6309    -0.9748 H       
  72 H72           -3.6176     4.2069    -1.8351 H       
  73 H73            6.4149    -6.9031     4.1812 H       
  74 H74            7.1935    -6.9029     2.5699 H       
  75 H75            6.5599    -4.1903     1.3212 H       
  76 H76            5.5747    -3.3060     2.5253 H       
  77 H77            9.0472    -6.3384     5.1390 H       
  78 H78           10.4435    -4.3846     5.6714 H       
  79 H79            9.9323    -2.1955     4.6634 H       
  80 H80            8.0259    -1.9658     3.1261 H       
  81 H81           -2.5386     9.3553    -2.4582 H       
@<TRIPOS>BOND
   1    1    2 1
   2    1   15 ar
   3    1   19 ar
   4    2    3 1
   5    2    9 1
   6    2   39 1
   7    3    4 1
   8    4    5 1
   9    4   40 1
  10    4   41 1
  11    5    6 1
  12    5   10 1
  13    5   42 1
  14    6    7 1
  15    6   43 1
  16    6   44 1
  17    7    8 1
  18    7   45 1
  19    8   11 1
  20    8   13 1
  21    8   14 1
  22    9   46 1
  23    9   47 1
  24    9   48 1
  25   10   49 1
  26   11   12 1
  27   11   50 1
  28   11   51 1
  29   12   28 1
  30   12   31 1
  31   12   52 1
  32   13   53 1
  33   13   54 1
  34   13   55 1
  35   14   56 1
  36   14   57 1
  37   14   58 1
  38   15   16 ar
  39   15   59 1
  40   16   17 ar
  41   16   60 1
  42   17   18 ar
  43   17   61 1
  44   18   19 ar
  45   18   62 1
  46   19   20 1
  47   20   21 1
  48   20   25 1
  49   20   63 1
  50   21   22 1
  51   21   64 1
  52   21   65 1
  53   22   23 1
  54   22   27 1
  55   22   66 1
  56   23   24 1
  57   23   26 1
  58   23   67 1
  59   24   25 1
  60   24   26 1
  61   24   68 1
  62   25   27 1
  63   25   69 1
  64   26   36 1
  65   26   70 1
  66   27   71 1
  67   27   72 1
  68   28   29 1
  69   28   73 1
  70   28   74 1
  71   29   30 ar
  72   29   32 ar
  73   30   31 1
  74   30   35 ar
  75   31   75 1
  76   31   76 1
  77   32   33 ar
  78   32   77 1
  79   33   34 ar
  80   33   78 1
  81   34   35 ar
  82   34   79 1
  83   35   80 1
  84   36   37 2
  85   36   38 1
  86   38   81 1

#	End of record

