#	Name: ASD08170170
#	Creating user name:	WinNT
#	Creation time:	15. 06. 2019 21:17

#	Modifying user name:	WinNT
#	Modification time:	15. 06. 2019 21:17

#	Program:	/corina/corina34_cracker 3.40 0067  02.08.2006

@<TRIPOS>MOLECULE
ASD08170170
  64   65    0    0    0
SMALL
NO_CHARGES


@<TRIPOS>ATOM
   1 Cl1            0.0000     0.0000     0.0000 Cl      
   2 H2             0.0000     1.3700     0.0000 H       
   3 Cl3            5.0000     6.3700     5.0000 Cl      
   4 H4             5.0000     7.7400     5.0000 H       
   5 C5            11.8733    21.9237    14.4943 C.3     
   6 C6            13.2879    23.9831    14.4918 C.3     
   7 C7            14.7233    24.5127    14.4810 C.3     
   8 C8            14.7028    26.0195    14.4892 C.2     
   9 C9            11.8937    20.4168    14.4860 C.2     
  10 S10           14.6751    27.0675    13.0706 S.3     
  11 C11           14.6657    28.4337    14.1040 C.2     
  12 N12           14.6828    28.0237    15.3364 N.2     
  13 N13           14.6968    26.7777    15.5394 N.2     
  14 S14           11.8942    19.3842    13.0559 S.3     
  15 N15           11.9197    19.6474    15.5276 N.2     
  16 N16           11.9339    18.4038    15.3110 N.2     
  17 C17           11.9233    18.0069    14.0742 C.2     
  18 N18           11.9355    16.6833    13.6474 N.am    
  19 C19           11.9610    15.6840    14.5514 C.2     
  20 O20           11.9733    15.9390    15.7371 O.2     
  21 N21           14.6438    29.7618    13.6918 N.am    
  22 C22           14.6384    30.7514    14.6068 C.2     
  23 C23           14.6147    32.1905    14.1601 C.3     
  24 O24           14.6527    30.4837    15.7896 O.2     
  25 C25           11.9743    14.2498    14.0890 C.3     
  26 C26           13.2560    13.9733    13.3463 C.ar    
  27 C27           13.3086    22.4533    14.4834 C.3     
  28 C28           14.3356    13.4232    14.0118 C.ar    
  29 C29           13.3166    32.4745    13.4493 C.ar    
  30 C30           13.1901    32.1921    12.1004 C.ar    
  31 C31           11.9950    32.4541    11.4478 C.ar    
  32 C32           10.9312    32.9974    12.1467 C.ar    
  33 C33           11.0608    33.2783    13.4940 C.ar    
  34 C34           12.2503    33.0118    14.1459 C.ar    
  35 C35           15.5122    13.1695    13.3320 C.ar    
  36 C36           15.6118    13.4652    11.9854 C.ar    
  37 C37           14.5327    14.0155    11.3161 C.ar    
  38 C38           13.3505    14.2648    11.9967 C.ar    
  39 O39           11.8836    13.3832    15.2216 O.3     
  40 O40           14.7306    33.0449    15.2997 O.3     
  41 F41           14.2301    31.6623    11.4200 F       
  42 F42           12.2955    14.8016    11.3454 F       
  43 F43           14.6292    14.3048    10.0000 F       
  44 F44           11.8693    32.1797    10.1309 F       
  45 H45           11.3461    22.2848    13.6112 H       
  46 H46           11.3631    22.2752    15.3911 H       
  47 H47           12.7777    24.3346    15.3886 H       
  48 H48           12.7607    24.3442    13.6088 H       
  49 H49           15.2505    24.1516    15.3640 H       
  50 H50           15.2335    24.1612    13.5842 H       
  51 H51           11.9256    16.4794    12.6992 H       
  52 H52           14.6324    29.9759    12.7458 H       
  53 H53           15.4480    32.3742    13.4819 H       
  54 H54           11.1259    14.0734    13.4277 H       
  55 H55           13.8358    22.0922    15.3665 H       
  56 H56           13.8188    22.1017    13.5866 H       
  57 H57           14.2598    13.1918    15.0639 H       
  58 H58           10.0000    33.2022    11.6395 H       
  59 H59           10.2302    33.7022    14.0390 H       
  60 H60           12.3496    33.2319    15.1986 H       
  61 H61           16.3547    12.7400    13.8537 H       
  62 H62           16.5319    13.2671    11.4556 H       
  63 H63           12.6077    13.4858    15.8542 H       
  64 H64           14.0209    32.9354    15.9472 H       
@<TRIPOS>BOND
   1    1    2 1
   2    3    4 1
   3    5    9 1
   4    5   27 1
   5    5   45 1
   6    5   46 1
   7    6    7 1
   8    6   27 1
   9    6   47 1
  10    6   48 1
  11    7    8 1
  12    7   49 1
  13    7   50 1
  14    8   10 1
  15    8   13 2
  16    9   14 1
  17    9   15 2
  18   10   11 1
  19   11   12 2
  20   11   21 1
  21   12   13 1
  22   14   17 1
  23   15   16 1
  24   16   17 2
  25   17   18 1
  26   18   19 am
  27   18   51 1
  28   19   20 2
  29   19   25 1
  30   21   22 am
  31   21   52 1
  32   22   23 1
  33   22   24 2
  34   23   29 1
  35   23   40 1
  36   23   53 1
  37   25   26 1
  38   25   39 1
  39   25   54 1
  40   26   28 ar
  41   26   38 ar
  42   27   55 1
  43   27   56 1
  44   28   35 ar
  45   28   57 1
  46   29   30 ar
  47   29   34 ar
  48   30   31 ar
  49   30   41 1
  50   31   32 ar
  51   31   44 1
  52   32   33 ar
  53   32   58 1
  54   33   34 ar
  55   33   59 1
  56   34   60 1
  57   35   36 ar
  58   35   61 1
  59   36   37 ar
  60   36   62 1
  61   37   38 ar
  62   37   43 1
  63   38   42 1
  64   39   63 1
  65   40   64 1

#	End of record

