#	Name: ASD01910329
#	Creating user name:	WinNT
#	Creation time:	15. 06. 2019 19:55

#	Modifying user name:	WinNT
#	Modification time:	15. 06. 2019 19:55

#	Program:	/corina/corina34_cracker 3.40 0067  02.08.2006

@<TRIPOS>MOLECULE
ASD01910329
  45   47    0    0    0
SMALL
NO_CHARGES


@<TRIPOS>ATOM
   1 C1            -0.0986     1.1930     0.3708 C.ar    
   2 C2            -0.0414    -0.0747    -0.1808 C.ar    
   3 C3            -1.1827    -0.6654    -0.6948 C.ar    
   4 C4            -2.3862     0.0068    -0.6609 C.ar    
   5 C5            -2.4518     1.2878    -0.1052 C.ar    
   6 C6            -1.2964     1.8752     0.4174 C.ar    
   7 C7            -3.6979     1.9923    -0.0663 C.1     
   8 C8            -4.7195     2.5699    -0.0344 C.1     
   9 C9            -5.9656     3.2744     0.0044 C.ar    
  10 C10           -6.0277     4.5566     0.5615 C.ar    
  11 C11           -7.2164     5.2282     0.5978 C.ar    
  12 C12           -8.3709     4.6349     0.0786 C.ar    
  13 C13           -8.3097     3.3537    -0.4777 C.ar    
  14 C14           -7.1206     2.6833    -0.5198 C.ar    
  15 C15           -9.6555     5.3614     0.1182 C.2     
  16 O16           -9.7224     6.5011    -0.2999 O.2     
  17 N17          -10.7539     4.7613     0.6179 N.am    
  18 C18          -12.0191     5.4981     0.7406 C.3     
  19 C19          -12.5176     5.3849     2.1848 C.3     
  20 C20          -12.6102     3.9077     2.5739 C.3     
  21 C21          -11.2223     3.2684     2.4904 C.3     
  22 C22          -10.7106     3.3560     1.0445 C.3     
  23 O23          -13.1057     3.7974     3.9097 O.3     
  24 C24            1.1498     1.8273     0.9278 C.3     
  25 F25            2.2277     0.9488     0.7739 F       
  26 F26            1.4154     3.0163     0.2401 F       
  27 F27            0.9653     2.1055     2.2864 F       
  28 H28            0.8985    -0.6057    -0.2108 H       
  29 H29           -1.1305    -1.6551    -1.1239 H       
  30 H30           -3.2758    -0.4550    -1.0630 H       
  31 H31           -1.3396     2.8644     0.8486 H       
  32 H32           -5.1360     5.0149     0.9629 H       
  33 H33           -7.2645     6.2176     1.0280 H       
  34 H34           -9.2021     2.8958    -0.8782 H       
  35 H35           -7.0733     1.6938    -0.9499 H       
  36 H36          -11.8570     6.5467     0.4912 H       
  37 H37          -12.7587     5.0696     0.0642 H       
  38 H38          -11.8209     5.8936     2.8510 H       
  39 H39          -13.5022     5.8452     2.2669 H       
  40 H40          -13.2881     3.3943     1.8918 H       
  41 H41          -10.5378     3.7970     3.1538 H       
  42 H42          -11.2850     2.2223     2.7901 H       
  43 H43          -11.3444     2.7518     0.3954 H       
  44 H44           -9.6841     2.9926     0.9975 H       
  45 H45          -13.1905     2.8868     4.2238 H       
@<TRIPOS>BOND
   1    1    2 ar
   2    1   24 1
   3    1    6 ar
   4    2    3 ar
   5    2   28 1
   6    3    4 ar
   7    3   29 1
   8    4    5 ar
   9    4   30 1
  10    5    6 ar
  11    5    7 1
  12    6   31 1
  13    7    8 3
  14    8    9 1
  15    9   10 ar
  16    9   14 ar
  17   10   11 ar
  18   10   32 1
  19   11   12 ar
  20   11   33 1
  21   12   13 ar
  22   12   15 1
  23   13   14 ar
  24   13   34 1
  25   14   35 1
  26   15   16 2
  27   15   17 am
  28   17   18 1
  29   17   22 1
  30   18   19 1
  31   18   36 1
  32   18   37 1
  33   19   20 1
  34   19   38 1
  35   19   39 1
  36   20   21 1
  37   20   23 1
  38   20   40 1
  39   21   22 1
  40   21   41 1
  41   21   42 1
  42   22   43 1
  43   22   44 1
  44   23   45 1
  45   24   25 1
  46   24   26 1
  47   24   27 1

#	End of record

