#	Name: ASD02500248
#	Creating user name:	WinNT
#	Creation time:	15. 06. 2019 20:22

#	Modifying user name:	WinNT
#	Modification time:	15. 06. 2019 20:22

#	Program:	/corina/corina34_cracker 3.40 0067  02.08.2006

@<TRIPOS>MOLECULE
ASD02500248
  67   71    0    0    0
SMALL
NO_CHARGES


@<TRIPOS>ATOM
   1 N1            -1.8769     4.6548     1.8939 N.ar    
   2 C2            -2.9821     5.2846     2.2102 C.ar    
   3 C3            -3.7710     4.8853     3.2871 C.ar    
   4 C4            -3.3984     3.8111     4.0438 C.ar    
   5 C5            -2.2110     3.1370     3.7008 C.ar    
   6 C6            -1.7641     2.0252     4.4323 C.ar    
   7 C7            -0.6100     1.4004     4.0690 C.ar    
   8 C8             0.1343     1.8501     2.9806 C.ar    
   9 C9            -0.2696     2.9248     2.2495 C.ar    
  10 C10           -1.4556     3.5962     2.5933 C.ar    
  11 S11            0.6911     3.4728     0.8779 S.o2    
  12 O12            0.8346     4.8789     1.0248 O.2     
  13 O13            1.7962     2.5847     0.7816 O.2     
  14 N14           -0.2196     3.2355    -0.4847 N.am    
  15 C15           -0.5669     1.9462    -0.8730 C.ar    
  16 C16           -1.8780     1.6617    -1.2355 C.ar    
  17 C17           -2.2234     0.3791    -1.6224 C.ar    
  18 C18           -1.2443    -0.6270    -1.6456 C.ar    
  19 C19            0.0708    -0.3247    -1.2779 C.ar    
  20 C20            0.4022     0.9453    -0.9029 C.ar    
  21 C21           -1.6009    -1.9955    -2.0551 C.2     
  22 O22           -2.5060    -2.5821    -1.4930 O.2     
  23 N23           -0.9243    -2.5982    -3.0529 N.am    
  24 C24           -1.3326    -3.9234    -3.5395 C.3     
  25 C25           -1.5702    -3.8382    -5.0523 C.3     
  26 N26           -0.4113    -3.1816    -5.6734 N.am    
  27 C27           -0.0030    -1.8564    -5.1868 C.3     
  28 C28            0.2312    -1.9392    -3.6778 C.3     
  29 C29            0.2653    -3.7843    -6.6712 C.2     
  30 C30            1.3564    -3.0633    -7.3675 C.ar    
  31 C31            2.4753    -3.7491    -7.8529 C.ar    
  32 C32            3.4702    -3.0414    -8.4964 C.ar    
  33 N33            3.3786    -1.7357    -8.6578 N.ar    
  34 C34            2.3403    -1.0469    -8.2158 C.ar    
  35 C35            1.2930    -1.6823    -7.5622 C.ar    
  36 O36           -0.0196    -4.9190    -6.9997 O.2     
  37 O37            2.2954     0.2956    -8.4074 O.3     
  38 C38            3.4003     0.8907    -9.0909 C.3     
  39 O39           -3.5017     0.0949    -1.9769 O.3     
  40 C40           -4.4426     1.1693    -1.9282 C.3     
  41 H41           -3.2892     6.1358     1.6207 H       
  42 H42           -4.6762     5.4249     3.5234 H       
  43 H43           -3.9977     3.4881     4.8822 H       
  44 H44           -2.3321     1.6677     5.2785 H       
  45 H45           -0.2669     0.5452     4.6323 H       
  46 H46            1.0466     1.3380     2.7128 H       
  47 H47           -0.5109     3.9959    -1.0119 H       
  48 H48           -2.6260     2.4404    -1.2149 H       
  49 H49            0.8262    -1.0964    -1.2947 H       
  50 H50            1.4201     1.1748    -0.6241 H       
  51 H51           -0.5445    -4.6477    -3.3333 H       
  52 H52           -2.2528    -4.2286    -3.0413 H       
  53 H53           -1.6849    -4.8418    -5.4618 H       
  54 H54           -2.4698    -3.2551    -5.2490 H       
  55 H55            0.9172    -1.5512    -5.6850 H       
  56 H56           -0.7911    -1.1322    -5.3930 H       
  57 H57            0.3434    -0.9343    -3.2708 H       
  58 H58            1.1332    -2.5189    -3.4816 H       
  59 H59            2.5595    -4.8183    -7.7252 H       
  60 H60            4.3368    -3.5645    -8.8732 H       
  61 H61            0.4446    -1.1166    -7.2064 H       
  62 H62            4.3167     0.7053    -8.5306 H       
  63 H63            3.4888     0.4556   -10.0864 H       
  64 H64            3.2382     1.9651    -9.1771 H       
  65 H65           -4.1217     1.9641    -2.6015 H       
  66 H66           -5.4238     0.8071    -2.2351 H       
  67 H67           -4.5000     1.5561    -0.9107 H       
@<TRIPOS>BOND
   1    1    2 ar
   2    1   10 ar
   3    2    3 ar
   4    2   41 1
   5    3    4 ar
   6    3   42 1
   7    4    5 ar
   8    4   43 1
   9    5    6 ar
  10    5   10 ar
  11    6    7 ar
  12    6   44 1
  13    7    8 ar
  14    7   45 1
  15    8    9 ar
  16    8   46 1
  17    9   10 ar
  18    9   11 1
  19   11   12 2
  20   11   13 2
  21   11   14 am
  22   14   15 1
  23   14   47 1
  24   15   16 ar
  25   15   20 ar
  26   16   17 ar
  27   16   48 1
  28   17   18 ar
  29   17   39 1
  30   18   19 ar
  31   18   21 1
  32   19   20 ar
  33   19   49 1
  34   20   50 1
  35   21   22 2
  36   21   23 am
  37   23   24 1
  38   23   28 1
  39   24   25 1
  40   24   51 1
  41   24   52 1
  42   25   26 1
  43   25   53 1
  44   25   54 1
  45   26   27 1
  46   26   29 am
  47   27   28 1
  48   27   55 1
  49   27   56 1
  50   28   57 1
  51   28   58 1
  52   29   30 1
  53   29   36 2
  54   30   31 ar
  55   30   35 ar
  56   31   32 ar
  57   31   59 1
  58   32   33 ar
  59   32   60 1
  60   33   34 ar
  61   34   35 ar
  62   34   37 1
  63   35   61 1
  64   37   38 1
  65   38   62 1
  66   38   63 1
  67   38   64 1
  68   39   40 1
  69   40   65 1
  70   40   66 1
  71   40   67 1

#	End of record

