#	Name: ASD01913924
#	Creating user name:	WinNT
#	Creation time:	15. 06. 2019 20:02

#	Modifying user name:	WinNT
#	Modification time:	15. 06. 2019 20:02

#	Program:	/corina/corina34_cracker 3.40 0067  02.08.2006

@<TRIPOS>MOLECULE
ASD01913924
  39   41    0    0    0
SMALL
NO_CHARGES


@<TRIPOS>ATOM
   1 C1            -0.0173     1.4278     0.0099 C.ar    
   2 C2             0.0021    -0.0041     0.0020 C.1     
   3 C3             0.0180    -1.1779    -0.0044 C.1     
   4 C4             0.0374    -2.6098    -0.0123 C.ar    
   5 C5            -1.1656    -3.3304    -0.0047 C.ar    
   6 C6             0.1700    -5.3027    -0.0279 C.ar    
   7 N7             1.2564    -4.5438    -0.0400 N.ar    
   8 N8             1.1961    -3.2617    -0.0324 N.ar    
   9 C9            -1.0938    -4.7114    -0.0128 C.ar    
  10 C10            1.1547     3.5252     0.0099 C.ar    
  11 C11           -1.2349     2.1134     0.0310 C.ar    
  12 C12           -0.0549     4.1972     0.0251 C.ar    
  13 N13            0.2897    -6.6910    -0.0375 N.am    
  14 C14            1.1812     2.1463     0.0023 C.ar    
  15 C15           -1.2457     3.4925     0.0385 C.ar    
  16 C16           -0.7479    -7.5411    -0.1239 C.2     
  17 C17           -0.2532    -8.9705    -0.0966 C.3     
  18 C18            1.1941    -8.8606     0.4366 C.3     
  19 C19            1.5653    -7.4128     0.0393 C.3     
  20 C20            1.2338    -9.0450     1.9549 C.3     
  21 C21            2.1119    -9.8678    -0.2593 C.3     
  22 O22           -1.9115    -7.2104    -0.2107 O.2     
  23 H23           -2.1187    -2.8226     0.0074 H       
  24 H24           -1.9896    -5.3146    -0.0071 H       
  25 H25            2.0801     4.0818    -0.0005 H       
  26 H26           -2.1651     1.5646     0.0412 H       
  27 H27           -0.0696     5.2771     0.0313 H       
  28 H28            2.1260     1.6231    -0.0091 H       
  29 H29           -2.1860     4.0237     0.0502 H       
  30 H30           -0.8631    -9.5725     0.5769 H       
  31 H31           -0.2587    -9.3953    -1.1003 H       
  32 H32            2.0692    -7.4043    -0.9272 H       
  33 H33            2.2022    -6.9639     0.8015 H       
  34 H34            0.8641   -10.0381     2.2102 H       
  35 H35            2.2596    -8.9375     2.3073 H       
  36 H36            0.6058    -8.2906     2.4290 H       
  37 H37            2.0984    -9.6892    -1.3345 H       
  38 H38            3.1289    -9.7520     0.1155 H       
  39 H39            1.7623   -10.8797    -0.0546 H       
@<TRIPOS>BOND
   1    1    2 1
   2    1   14 ar
   3    1   11 ar
   4    2    3 3
   5    3    4 1
   6    4    5 ar
   7    4    8 ar
   8    5    9 ar
   9    5   23 1
  10    6    7 ar
  11    6   13 1
  12    6    9 ar
  13    7    8 ar
  14    9   24 1
  15   10   12 ar
  16   10   14 ar
  17   10   25 1
  18   11   15 ar
  19   11   26 1
  20   12   15 ar
  21   12   27 1
  22   13   16 am
  23   13   19 1
  24   14   28 1
  25   15   29 1
  26   16   17 1
  27   16   22 2
  28   17   18 1
  29   17   30 1
  30   17   31 1
  31   18   19 1
  32   18   20 1
  33   18   21 1
  34   19   32 1
  35   19   33 1
  36   20   34 1
  37   20   35 1
  38   20   36 1
  39   21   37 1
  40   21   38 1
  41   21   39 1

#	End of record

