#	Name: ASD01920076
#	Creating user name:	WinNT
#	Creation time:	15. 06. 2019 20:11

#	Modifying user name:	WinNT
#	Modification time:	15. 06. 2019 20:11

#	Program:	/corina/corina34_cracker 3.40 0067  02.08.2006

@<TRIPOS>MOLECULE
ASD01920076
  40   42    0    0    0
SMALL
NO_CHARGES


@<TRIPOS>ATOM
   1 C1            -0.0169     1.3978     0.0097 C.2     
   2 C2             0.0021    -0.0041     0.0020 C.2     
   3 N3             1.1454    -0.6498    -0.0119 N.2     
   4 C4             2.3064     0.0125    -0.0194 C.2     
   5 N5             2.3291     1.3834    -0.0128 N.pl3   
   6 C6             1.1545     2.0800     0.0022 C.2     
   7 C7            -1.2942    -0.7726     0.0103 C.3     
   8 C8             3.6401    -0.4137    -0.0340 C.2     
   9 C9             4.4414     0.7322    -0.0358 C.2     
  10 N10            3.6675     1.7911    -0.0232 N.2     
  11 C11            5.9483     0.7480    -0.0490 C.3     
  12 C12            4.1141    -1.8178    -0.0455 C.ar    
  13 C13            3.8446    -2.6375    -1.1411 C.ar    
  14 C14            4.2878    -3.9437    -1.1486 C.ar    
  15 C15            5.0006    -4.4427    -0.0672 C.ar    
  16 C16            5.2702    -3.6298     1.0251 C.ar    
  17 C17            4.8356    -2.3208     1.0367 C.ar    
  18 O18            5.4355    -5.7306    -0.0777 O.3     
  19 C19            6.1631    -6.1791     1.0675 C.3     
  20 C20            6.4455     0.7601    -1.4960 C.3     
  21 C21            1.1605     3.5869     0.0097 C.3     
  22 F22           -0.1565     4.0585     0.0244 F       
  23 F23            1.8325     4.0449     1.1481 F       
  24 F24            1.8112     4.0564    -1.1363 F       
  25 H25           -0.9569     1.9297     0.0171 H       
  26 H26           -1.6165    -0.9524    -1.0154 H       
  27 H27           -1.1480    -1.7262     0.5176 H       
  28 H28           -2.0556    -0.1951     0.5345 H       
  29 H29            6.3068     1.6394     0.4658 H       
  30 H30            6.3254    -0.1405     0.4573 H       
  31 H31            3.2894    -2.2502    -1.9826 H       
  32 H32            4.0795    -4.5791    -1.9967 H       
  33 H33            5.8246    -4.0215     1.8651 H       
  34 H34            5.0457    -1.6889     1.8870 H       
  35 H35            6.4504    -7.2215     0.9301 H       
  36 H36            7.0578    -5.5689     1.1913 H       
  37 H37            5.5361    -6.0889     1.9545 H       
  38 H38            6.0683     1.6486    -2.0023 H       
  39 H39            7.5354     0.7716    -1.5055 H       
  40 H40            6.0869    -0.1312    -2.0108 H       
@<TRIPOS>BOND
   1    1    2 1
   2    1    6 2
   3    1   25 1
   4    2    3 2
   5    2    7 1
   6    3    4 1
   7    4    5 1
   8    4    8 2
   9    5    6 1
  10    5   10 1
  11    6   21 1
  12    7   26 1
  13    7   27 1
  14    7   28 1
  15    8    9 1
  16    8   12 1
  17    9   10 2
  18    9   11 1
  19   11   20 1
  20   11   29 1
  21   11   30 1
  22   12   13 ar
  23   12   17 ar
  24   13   14 ar
  25   13   31 1
  26   14   15 ar
  27   14   32 1
  28   15   16 ar
  29   15   18 1
  30   16   17 ar
  31   16   33 1
  32   17   34 1
  33   18   19 1
  34   19   35 1
  35   19   36 1
  36   19   37 1
  37   20   38 1
  38   20   39 1
  39   20   40 1
  40   21   22 1
  41   21   23 1
  42   21   24 1

#	End of record

