#	Name: ASD08170558
#	Creating user name:	WinNT
#	Creation time:	15. 06. 2019 21:17

#	Modifying user name:	WinNT
#	Modification time:	15. 06. 2019 21:17

#	Program:	/corina/corina34_cracker 3.40 0067  02.08.2006

@<TRIPOS>MOLECULE
ASD08170558
  86   89    0    0    0
SMALL
NO_CHARGES


@<TRIPOS>ATOM
   1 N1            -0.0159     1.3151     0.0224 N.ar    
   2 C2             0.0017    -0.0034     0.0128 C.ar    
   3 C3            -1.2931    -0.7743     0.0248 C.3     
   4 C4            -4.2986    -0.6738     2.4295 C.3     
   5 C5            -5.5934    -1.4447     2.4415 C.2     
   6 N6            -5.8036    -2.5758     3.0366 N.2     
   7 N7            -6.9628    -3.0642     2.9283 N.2     
   8 C8            -7.8361    -2.3968     2.2362 C.2     
   9 S9            -7.0971    -0.9652     1.6538 S.3     
  10 N10           -9.1542    -2.7784     2.0101 N.am    
  11 C11           -3.4532    -1.1154     1.2332 C.3     
  12 C12           -2.1386    -0.3327     1.2211 C.3     
  13 C13            1.2122    -0.6808    -0.0088 C.ar    
  14 C14            2.3785     0.0690    -0.0197 C.ar    
  15 C15            2.2616     1.4575    -0.0082 C.ar    
  16 N16            1.0600     2.0148     0.0125 N.ar    
  17 N17            3.4043     2.2567    -0.0179 N.am    
  18 C18           -9.6208    -3.9309     2.5303 C.2     
  19 O19           -8.8912    -4.6351     3.1956 O.2     
  20 C20          -11.0491    -4.3444     2.2853 C.3     
  21 C21          -11.3157    -5.6600     2.9703 C.ar    
  22 C22          -11.7764    -5.6799     4.2732 C.ar    
  23 C23            3.2889     3.5963    -0.1113 C.2     
  24 C24            4.5141     4.4673    -0.0047 C.3     
  25 O25            2.1992     4.1007    -0.2812 O.2     
  26 C26            5.2372     4.1619     1.2817 C.ar    
  27 C27          -12.0210    -6.8869     4.9016 C.ar    
  28 C28          -11.8051    -8.0736     4.2267 C.ar    
  29 C29          -11.3451    -8.0537     2.9231 C.ar    
  30 C30          -11.1047    -6.8470     2.2934 C.ar    
  31 C31            6.2135     3.1837     1.3104 C.ar    
  32 C32            6.8768     2.9035     2.4904 C.ar    
  33 C33            6.5640     3.6018     3.6417 C.ar    
  34 C34            5.5883     4.5807     3.6128 C.ar    
  35 C35            4.9281     4.8638     2.4318 C.ar    
  36 O36            5.3805     4.2082    -1.1112 O.3     
  37 C37            6.5787     4.9868    -1.1060 C.3     
  38 C38          -11.1092    -9.3476     2.1874 C.3     
  39 N39          -12.3352    -9.7431     1.4898 N.am    
  40 C40          -12.3601   -10.8766     0.7610 C.2     
  41 O41          -11.3656   -11.5705     0.6827 O.2     
  42 O42          -13.4868   -11.2401     0.1199 O.3     
  43 C43          -13.4409   -12.4728    -0.6461 C.3     
  44 C44          -13.1029   -13.6393     0.2845 C.3     
  45 C45          -14.8029   -12.7189    -1.2984 C.3     
  46 C46          -12.3687   -12.3592    -1.7316 C.3     
  47 O47            4.1238     5.8419    -0.0170 O.3     
  48 H48           -1.8400    -0.5804    -0.8980 H       
  49 H49           -1.0805    -1.8404     0.1039 H       
  50 H50           -4.5112     0.3923     2.3504 H       
  51 H51           -3.7517    -0.8677     3.3522 H       
  52 H52           -9.7377    -2.2152     1.4780 H       
  53 H53           -3.2405    -2.1815     1.3123 H       
  54 H54           -4.0000    -0.9215     0.3105 H       
  55 H55           -1.5917    -0.5266     2.1438 H       
  56 H56           -2.3512     0.7334     1.1419 H       
  57 H57            1.2451    -1.7603    -0.0166 H       
  58 H58            3.3472    -0.4082    -0.0361 H       
  59 H59            4.2821     1.8485     0.0426 H       
  60 H60          -11.7209    -3.5844     2.6842 H       
  61 H61          -11.2175    -4.4520     1.2138 H       
  62 H62          -11.9451    -4.7526     4.8005 H       
  63 H63          -12.3804    -6.9024     5.9199 H       
  64 H64          -11.9955    -9.0164     4.7178 H       
  65 H65          -10.7454    -6.8314     1.2751 H       
  66 H66            6.4579     2.6381     0.4109 H       
  67 H67            7.6391     2.1388     2.5130 H       
  68 H68            7.0817     3.3825     4.5638 H       
  69 H69            5.3438     5.1260     4.5123 H       
  70 H70            4.1658     5.6286     2.4092 H       
  71 H71            7.1446     4.7767    -0.1983 H       
  72 H72            7.1817     4.7315    -1.9773 H       
  73 H73            6.3239     6.0461    -1.1382 H       
  74 H74          -10.3063    -9.2124     1.4628 H       
  75 H75          -10.8294   -10.1244     2.8991 H       
  76 H76          -13.1291    -9.1893     1.5523 H       
  77 H77          -13.8668   -13.7202     1.0578 H       
  78 H78          -13.0685   -14.5646    -0.2905 H       
  79 H79          -12.1327   -13.4639     0.7492 H       
  80 H80          -15.0437   -11.8879    -1.9614 H       
  81 H81          -14.7684   -13.6443    -1.8734 H       
  82 H82          -15.5668   -12.7999    -0.5251 H       
  83 H83          -11.3984   -12.1838    -1.2669 H       
  84 H84          -12.3342   -13.2845    -2.3066 H       
  85 H85          -12.6095   -11.5282    -2.3946 H       
  86 H86            3.5336     6.0897     0.7078 H       
@<TRIPOS>BOND
   1    1    2 ar
   2    1   16 ar
   3    2    3 1
   4    2   13 ar
   5    3   12 1
   6    3   48 1
   7    3   49 1
   8    4    5 1
   9    4   11 1
  10    4   50 1
  11    4   51 1
  12    5    6 2
  13    5    9 1
  14    6    7 1
  15    7    8 2
  16    8    9 1
  17    8   10 1
  18   10   18 am
  19   10   52 1
  20   11   12 1
  21   11   53 1
  22   11   54 1
  23   12   55 1
  24   12   56 1
  25   13   14 ar
  26   13   57 1
  27   14   15 ar
  28   14   58 1
  29   15   16 ar
  30   15   17 1
  31   17   23 am
  32   17   59 1
  33   18   19 2
  34   18   20 1
  35   20   21 1
  36   20   60 1
  37   20   61 1
  38   21   22 ar
  39   21   30 ar
  40   22   27 ar
  41   22   62 1
  42   23   24 1
  43   23   25 2
  44   24   26 1
  45   24   36 1
  46   24   47 1
  47   26   31 ar
  48   26   35 ar
  49   27   28 ar
  50   27   63 1
  51   28   29 ar
  52   28   64 1
  53   29   30 ar
  54   29   38 1
  55   30   65 1
  56   31   32 ar
  57   31   66 1
  58   32   33 ar
  59   32   67 1
  60   33   34 ar
  61   33   68 1
  62   34   35 ar
  63   34   69 1
  64   35   70 1
  65   36   37 1
  66   37   71 1
  67   37   72 1
  68   37   73 1
  69   38   39 1
  70   38   74 1
  71   38   75 1
  72   39   40 am
  73   39   76 1
  74   40   41 2
  75   40   42 1
  76   42   43 1
  77   43   44 1
  78   43   45 1
  79   43   46 1
  80   44   77 1
  81   44   78 1
  82   44   79 1
  83   45   80 1
  84   45   81 1
  85   45   82 1
  86   46   83 1
  87   46   84 1
  88   46   85 1
  89   47   86 1

#	End of record

