#	Name: ASD09740097
#	Creating user name:	WinNT
#	Creation time:	15. 06. 2019 21:22

#	Modifying user name:	WinNT
#	Modification time:	15. 06. 2019 21:22

#	Program:	/corina/corina34_cracker 3.40 0067  02.08.2006

@<TRIPOS>MOLECULE
ASD09740097
  44   46    0    0    0
SMALL
NO_CHARGES


@<TRIPOS>ATOM
   1 O1            -0.0144     1.2085     0.0087 O.3     
   2 N2             0.0021    -0.0041     0.0020 N.2     
   3 C3             1.2413     1.6828    -0.0008 C.2     
   4 N4             2.0459     0.6359    -0.0141 N.2     
   5 C5             1.2348    -0.4424    -0.0121 C.2     
   6 C6             1.6623    -1.8639    -0.0229 C.ar    
   7 C7             1.6455     3.1033     0.0026 C.ar    
   8 C8             0.7143    -2.8902    -0.0194 C.ar    
   9 C9             3.0150    -2.1961    -0.0424 C.ar    
  10 N10            3.3957    -3.4570    -0.0529 N.ar    
  11 C11            2.5243    -4.4474    -0.0450 C.ar    
  12 C12            1.1641    -4.1997    -0.0303 C.ar    
  13 C13            2.9990     3.4455    -0.0090 C.ar    
  14 C14            3.3748     4.7723    -0.0059 C.ar    
  15 C15            2.4105     5.7696     0.0083 C.ar    
  16 C16            1.0574     5.4348     0.0199 C.ar    
  17 C17            0.6742     4.1075     0.0115 C.ar    
  18 O18            2.7857     7.0754     0.0113 O.3     
  19 O19            0.1145     6.4147     0.0342 O.3     
  20 C20            0.1818    -5.3425    -0.0215 C.3     
  21 C21           -1.2528     5.9993     0.0455 C.3     
  22 C22           -2.1600     7.2313     0.0607 C.3     
  23 C23            4.1886     7.3473    -0.0006 C.3     
  24 C24            4.4149     8.8604     0.0048 C.3     
  25 O25           -0.1145    -5.7055     1.3285 O.3     
  26 H26           -0.3425    -2.6678    -0.0082 H       
  27 H27            3.7584    -1.4127    -0.0494 H       
  28 H28            2.8788    -5.4676    -0.0541 H       
  29 H29            3.7517     2.6711    -0.0200 H       
  30 H30            4.4222     5.0356    -0.0141 H       
  31 H31           -0.3738     3.8466     0.0201 H       
  32 H32           -0.7353    -5.0373    -0.5253 H       
  33 H33            0.6144    -6.1975    -0.5410 H       
  34 H34           -1.4598     5.4067    -0.8456 H       
  35 H35           -1.4423     5.3975     0.9343 H       
  36 H36           -1.9529     7.8240     0.9518 H       
  37 H37           -1.9704     7.8331    -0.8281 H       
  38 H38           -3.2029     6.9144     0.0693 H       
  39 H39            4.6514     6.9075     0.8828 H       
  40 H40            4.6346     6.9164    -0.8970 H       
  41 H41            3.9520     9.3002    -0.8786 H       
  42 H42            3.9689     9.2913     0.9013 H       
  43 H43            5.4849     9.0678    -0.0042 H       
  44 H44           -0.7421    -6.4366     1.4105 H       
@<TRIPOS>BOND
   1    1    2 1
   2    1    3 1
   3    2    5 2
   4    3    4 2
   5    3    7 1
   6    4    5 1
   7    5    6 1
   8    6    8 ar
   9    6    9 ar
  10    7   13 ar
  11    7   17 ar
  12    8   12 ar
  13    8   26 1
  14    9   10 ar
  15    9   27 1
  16   10   11 ar
  17   11   12 ar
  18   11   28 1
  19   12   20 1
  20   13   14 ar
  21   13   29 1
  22   14   15 ar
  23   14   30 1
  24   15   16 ar
  25   15   18 1
  26   16   17 ar
  27   16   19 1
  28   17   31 1
  29   18   23 1
  30   19   21 1
  31   20   25 1
  32   20   32 1
  33   20   33 1
  34   21   22 1
  35   21   34 1
  36   21   35 1
  37   22   36 1
  38   22   37 1
  39   22   38 1
  40   23   24 1
  41   23   39 1
  42   23   40 1
  43   24   41 1
  44   24   42 1
  45   24   43 1
  46   25   44 1

#	End of record

