#	Name: ASD01884111
#	Creating user name:	WinNT
#	Creation time:	15. 06. 2019 19:47

#	Modifying user name:	WinNT
#	Modification time:	15. 06. 2019 19:47

#	Program:	/corina/corina34_cracker 3.40 0067  02.08.2006

@<TRIPOS>MOLECULE
ASD01884111
  53   57    0    0    0
SMALL
NO_CHARGES


@<TRIPOS>ATOM
   1 C1            -0.3993     0.7126    -1.0932 C.2     
   2 C2             0.0021    -0.0041     0.0020 C.2     
   3 C3            -0.8216    -0.0452     1.1477 C.2     
   4 C4            -1.9957     0.6158     1.1645 C.2     
   5 N5            -2.4055     1.3327     0.0782 N.pl3   
   6 C6            -1.6255     1.3990    -1.0507 C.2     
   7 C7            -3.5130     2.0819    -0.1906 C.2     
   8 N8            -3.3858     2.5498    -1.4044 N.2     
   9 N9            -2.2761     2.1548    -1.9222 N.2     
  10 N10            1.2151    -0.6886    -0.0142 N.pl3   
  11 C11            1.2491    -2.1539     0.0878 C.3     
  12 C12            2.1821    -2.5465     1.2376 C.3     
  13 C13            3.5521    -1.8995     1.0214 C.3     
  14 C14            3.4039    -0.3763     1.0182 C.3     
  15 C15            2.4844     0.0406    -0.1397 C.3     
  16 C16           -4.6717     2.3257     0.7416 C.3     
  17 Cl17           0.5965     0.7788    -2.5137 Cl      
  18 C18            4.4828    -2.3111     2.1328 C.ar    
  19 C19            5.6519    -2.9980     1.8406 C.ar    
  20 C20            6.5070    -3.3752     2.8661 C.ar    
  21 C21            6.1924    -3.0660     4.1750 C.ar    
  22 C22            5.0260    -2.3815     4.4638 C.ar    
  23 C23            4.1752    -1.9996     3.4433 C.ar    
  24 C24           -4.3990     3.5777     1.5776 C.3     
  25 C25           -5.5133     4.0632     2.5070 C.3     
  26 C26           -4.2640     3.4009     3.0914 C.3     
  27 O27            5.9591    -3.3015     0.5520 O.3     
  28 C28            7.1791    -4.0103     0.3255 C.3     
  29 H29           -0.5095    -0.6091     2.0143 H       
  30 H30           -2.6185     0.5775     2.0460 H       
  31 H31            0.2456    -2.5298     0.2869 H       
  32 H32            1.6214    -2.5766    -0.8454 H       
  33 H33            1.7614    -2.2007     2.1818 H       
  34 H34            2.2918    -3.6307     1.2631 H       
  35 H35            3.9613    -2.2265     0.0655 H       
  36 H36            2.9717    -0.0509     1.9645 H       
  37 H37            4.3832     0.0842     0.8875 H       
  38 H38            2.9598    -0.2035    -1.0898 H       
  39 H39            2.2952     1.1128    -0.0883 H       
  40 H40           -5.5823     2.4685     0.1598 H       
  41 H41           -4.7935     1.4672     1.4021 H       
  42 H42            7.4177    -3.9104     2.6412 H       
  43 H43            6.8576    -3.3593     4.9736 H       
  44 H44            4.7814    -2.1413     5.4879 H       
  45 H45            3.2648    -1.4651     3.6714 H       
  46 H46           -3.7755     4.3344     1.1014 H       
  47 H47           -5.6225     5.1392     2.6424 H       
  48 H48           -6.4406     3.4906     2.5228 H       
  49 H49           -4.3695     2.3925     3.4916 H       
  50 H50           -3.5514     4.0411     3.6113 H       
  51 H51            8.0168    -3.4188     0.6948 H       
  52 H52            7.1480    -4.9643     0.8517 H       
  53 H53            7.3029    -4.1883    -0.7427 H       
@<TRIPOS>BOND
   1    1    2 2
   2    1   17 1
   3    1    6 1
   4    2    3 1
   5    2   10 1
   6    3    4 2
   7    3   29 1
   8    4    5 1
   9    4   30 1
  10    5    6 1
  11    5    7 1
  12    6    9 2
  13    7    8 2
  14    7   16 1
  15    8    9 1
  16   10   11 1
  17   10   15 1
  18   11   12 1
  19   11   31 1
  20   11   32 1
  21   12   13 1
  22   12   33 1
  23   12   34 1
  24   13   14 1
  25   13   18 1
  26   13   35 1
  27   14   15 1
  28   14   36 1
  29   14   37 1
  30   15   38 1
  31   15   39 1
  32   16   24 1
  33   16   40 1
  34   16   41 1
  35   18   19 ar
  36   18   23 ar
  37   19   20 ar
  38   19   27 1
  39   20   21 ar
  40   20   42 1
  41   21   22 ar
  42   21   43 1
  43   22   23 ar
  44   22   44 1
  45   23   45 1
  46   24   25 1
  47   24   26 1
  48   24   46 1
  49   25   26 1
  50   25   47 1
  51   25   48 1
  52   26   49 1
  53   26   50 1
  54   27   28 1
  55   28   51 1
  56   28   52 1
  57   28   53 1

#	End of record

