#	Name: ASD05213014
#	Creating user name:	WinNT
#	Creation time:	15. 06. 2019 20:57

#	Modifying user name:	WinNT
#	Modification time:	15. 06. 2019 20:57

#	Program:	/corina/corina34_cracker 3.40 0067  02.08.2006

@<TRIPOS>MOLECULE
ASD05213014
  24   26    0    0    0
SMALL
NO_CHARGES


@<TRIPOS>ATOM
   1 S1            -0.0218     1.7577     0.0117 S.3     
   2 C2             0.0021    -0.0041     0.0020 C.2     
   3 S3            -1.3858    -1.0024     0.0099 S.3     
   4 C4            -0.3659    -2.4388    -0.0087 C.2     
   5 C5             0.9077    -2.0421    -0.0190 C.2     
   6 N6             1.0751    -0.7325    -0.0178 N.2     
   7 C7             1.7090     2.0873    -0.0030 C.2     
   8 N8             2.2713     3.3326    -0.0017 N.pl3   
   9 C9             3.6456     3.1623    -0.0149 C.ar    
  10 C10            3.8676     1.7753    -0.0240 C.ar    
  11 N11            2.6491     1.1748    -0.0112 N.2     
  12 C12            4.7225     4.0358    -0.0201 C.ar    
  13 C13            6.0096     3.5392    -0.0342 C.ar    
  14 C14            6.2346     2.1705    -0.0436 C.ar    
  15 C15            5.1774     1.2885    -0.0382 C.ar    
  16 N16           -0.8402    -3.8431    -0.0118 N.pl3   
  17 O17           -0.0358    -4.7575    -0.0248 O.2     
  18 O18           -2.0344    -4.0825    -0.0014 O.2     
  19 H19            1.7351    -2.7362    -0.0307 H       
  20 H20            1.7963     4.1783     0.0064 H       
  21 H21            4.5541     5.1026    -0.0135 H       
  22 H22            6.8475     4.2206    -0.0382 H       
  23 H23            7.2467     1.7938    -0.0550 H       
  24 H24            5.3598     0.2240    -0.0457 H       
@<TRIPOS>BOND
   1    1    2 1
   2    1    7 1
   3    2    3 1
   4    2    6 2
   5    3    4 1
   6    4    5 2
   7    4   16 1
   8    5    6 1
   9    5   19 1
  10    7    8 1
  11    7   11 2
  12    8    9 1
  13    8   20 1
  14    9   10 ar
  15    9   12 ar
  16   10   11 1
  17   10   15 ar
  18   12   13 ar
  19   12   21 1
  20   13   14 ar
  21   13   22 1
  22   14   15 ar
  23   14   23 1
  24   15   24 1
  25   16   17 2
  26   16   18 2

#	End of record

