#	Name: ASD01870578
#	Creating user name:	WinNT
#	Creation time:	15. 06. 2019 19:39

#	Modifying user name:	WinNT
#	Modification time:	15. 06. 2019 19:39

#	Program:	/corina/corina34_cracker 3.40 0067  02.08.2006

@<TRIPOS>MOLECULE
ASD01870578
  44   47    0    0    0
SMALL
NO_CHARGES


@<TRIPOS>ATOM
   1 C1            -0.0107     1.3944     0.0268 C.ar    
   2 C2             0.0041     0.0062     0.0172 C.ar    
   3 C3             1.2070    -0.6715    -0.0036 C.ar    
   4 C4             2.4025     0.0350    -0.0145 C.ar    
   5 C5             2.3887     1.4241    -0.0044 C.ar    
   6 C6             1.1858     2.1023     0.0155 C.ar    
   7 N7             3.6216    -0.6526    -0.0351 N.am    
   8 C8             4.6706    -0.1442    -0.7115 C.2     
   9 C9             5.9789    -0.8021    -0.6377 C.2     
  10 O10            6.2661    -1.9194     0.0618 O.3     
  11 C11            7.1188    -0.3946    -1.2698 C.2     
  12 C12            8.1232    -1.3111    -0.9211 C.2     
  13 C13            7.5587    -2.2283    -0.1049 C.2     
  14 C14            7.2691     0.8058    -2.1683 C.3     
  15 O15            4.5320     0.8611    -1.3836 O.2     
  16 Cl16           1.1678     3.8381     0.0275 Cl      
  17 N17           -1.2309     2.0817     0.0421 N.am    
  18 C18           -1.9033     2.4589     1.1432 C.2     
  19 C19           -3.1459     3.1603     0.7688 C.ar    
  20 C20           -1.9830     2.5144    -1.1412 C.3     
  21 C21           -5.2350     4.3382     0.8973 C.ar    
  22 C22           -5.2991     4.3768    -0.4845 C.ar    
  23 C23           -4.2894     3.8107    -1.2446 C.ar    
  24 C24           -3.2206     3.2050    -0.6253 C.ar    
  25 C25           -4.1671     3.7348     1.5283 C.ar    
  26 O26           -1.5397     2.2513     2.2846 O.2     
  27 C27           -4.3631     3.8549    -2.7491 C.3     
  28 H28           -0.9253    -0.5437     0.0264 H       
  29 H29            1.2181    -1.7514    -0.0110 H       
  30 H30            3.3184     1.9735    -0.0122 H       
  31 H31            3.7114    -1.4949     0.4374 H       
  32 H32            9.1527    -1.2893    -1.2468 H       
  33 H33            8.0658    -3.0727     0.3382 H       
  34 H34            7.5497     1.6736    -1.5714 H       
  35 H35            8.0430     0.6097    -2.9104 H       
  36 H36            6.3233     1.0026    -2.6731 H       
  37 H37           -1.3844     3.2069    -1.7329 H       
  38 H38           -2.2623     1.6503    -1.7441 H       
  39 H39           -6.0256     4.7815     1.4845 H       
  40 H40           -6.1385     4.8507    -0.9716 H       
  41 H41           -4.1211     3.7065     2.6070 H       
  42 H42           -3.8774     4.7614    -3.1102 H       
  43 H43           -3.8581     2.9823    -3.1634 H       
  44 H44           -5.4073     3.8529    -3.0619 H       
@<TRIPOS>BOND
   1    1    2 ar
   2    1    6 ar
   3    1   17 1
   4    2    3 ar
   5    2   28 1
   6    3    4 ar
   7    3   29 1
   8    4    5 ar
   9    4    7 1
  10    5    6 ar
  11    5   30 1
  12    6   16 1
  13    7    8 am
  14    7   31 1
  15    8    9 1
  16    8   15 2
  17    9   11 2
  18    9   10 1
  19   10   13 1
  20   11   12 1
  21   11   14 1
  22   12   13 2
  23   12   32 1
  24   13   33 1
  25   14   34 1
  26   14   35 1
  27   14   36 1
  28   17   18 am
  29   17   20 1
  30   18   19 1
  31   18   26 2
  32   19   25 ar
  33   19   24 ar
  34   20   24 1
  35   20   37 1
  36   20   38 1
  37   21   22 ar
  38   21   25 ar
  39   21   39 1
  40   22   23 ar
  41   22   40 1
  42   23   24 ar
  43   23   27 1
  44   25   41 1
  45   27   42 1
  46   27   43 1
  47   27   44 1

#	End of record

