#	Name: ASD05143058
#	Creating user name:	WinNT
#	Creation time:	15. 06. 2019 20:57

#	Modifying user name:	WinNT
#	Modification time:	15. 06. 2019 20:57

#	Program:	/corina/corina34_cracker 3.40 0067  02.08.2006

@<TRIPOS>MOLECULE
ASD05143058
 148  151    0    0    0
SMALL
NO_CHARGES


@<TRIPOS>ATOM
   1 C1            -2.0933     5.4484     7.5657 C.2     
   2 C2            -1.6062     4.7166     8.7898 C.3     
   3 N3            -1.2065     5.9796     6.7009 N.am    
   4 O4            -3.2831     5.5549     7.3562 O.2     
   5 C5            -1.6800     6.6910     5.5109 C.3     
   6 C6            -2.5149     5.7426     4.6482 C.3     
   7 C7            -2.5268     7.8647     5.9310 C.2     
   8 C8            -1.6240     4.6169     4.1191 C.3     
   9 C9            -2.4590     3.6684     3.2564 C.3     
  10 N10           -1.6059     2.5905     2.7498 N.pl3   
  11 C11           -2.1399     1.6116     1.9456 C.2     
  12 N12           -1.3394     0.6001     1.4701 N.pl3   
  13 N13           -3.4051     1.6426     1.6339 N.2     
  14 O14           -3.0179     7.8921     7.0396 O.2     
  15 N15           -2.7383     8.8838     5.0748 N.am    
  16 C16           -3.5615    10.0248     5.4833 C.3     
  17 C17           -2.6579    11.2174     5.8024 C.3     
  18 C18           -1.5005    10.7578     6.6911 C.3     
  19 C19           -0.3608    10.2831     5.8270 C.2     
  20 O20           -0.5652     9.5476     4.8846 O.2     
  21 N21            0.9068    10.6970     6.1245 N.am    
  22 C22            1.9686    10.1803     5.2311 C.3     
  23 C23            2.1172    11.1341     4.0440 C.3     
  24 C24            2.7787    10.3968     2.8779 C.3     
  25 C25            3.7362    11.3440     2.1521 C.3     
  26 N26            3.6824    11.0587     0.7043 N.am    
  27 C27            5.1395    11.1284     2.6575 C.2     
  28 N28            5.5290    11.6834     3.8223 N.am    
  29 O29            5.9183    10.4554     2.0161 O.2     
  30 C30            2.8552    11.8427    -0.0397 C.2     
  31 O31            2.2123    12.7276     0.4843 O.2     
  32 C32            2.7487    11.5978    -1.5228 C.3     
  33 N33            1.5334    12.2779    -2.0267 N.am    
  34 C34            3.9835    12.1636    -2.2271 C.3     
  35 C35            0.4797    11.4569    -2.3134 C.2     
  36 O36            0.5713    10.2574    -2.1596 O.2     
  37 C37           -0.7988    12.0701    -2.8242 C.3     
  38 N38           -1.9252    11.1792    -2.4815 N.am    
  39 C39           -1.0088    13.4370    -2.1697 C.3     
  40 C40           -3.0289    11.7706    -1.9470 C.2     
  41 O41           -3.0578    12.9696    -1.7665 O.2     
  42 C42           -4.2142    10.9140    -1.5834 C.3     
  43 C43            3.9331    11.8098    -3.6911 C.2     
  44 C44            3.2333    12.5511    -4.7431 C.ar    
  45 C45            3.4692    11.8467    -5.9376 C.ar    
  46 N46            4.2547    10.7611    -5.6207 N.pl3   
  47 C47            4.5256    10.7588    -4.2795 C.2     
  48 C48            2.4567    13.7114    -4.7603 C.ar    
  49 C49            1.9292    14.1571    -5.9391 C.ar    
  50 C50            2.1588    13.4652    -7.1207 C.ar    
  51 C51            2.9226    12.3189    -7.1266 C.ar    
  52 N52           -4.7979    11.4227    -0.3212 N.am    
  53 C53           -3.7611     9.4652    -1.3921 C.3     
  54 C54           -4.9596     8.5978    -1.1051 C.ar    
  55 C55           -5.9900     8.5207    -2.0253 C.ar    
  56 C56           -7.0897     7.7283    -1.7693 C.ar    
  57 C57           -7.1615     7.0031    -0.5783 C.ar    
  58 C58           -6.1181     7.0855     0.3459 C.ar    
  59 C59           -5.0218     7.8777     0.0747 C.ar    
  60 C60           -4.5015    10.3924     4.3639 C.2     
  61 O61           -5.6996    10.2615     4.4988 O.2     
  62 C62           -1.0162    13.2781    -0.6480 C.3     
  63 C63           -1.3730    14.6161     0.0027 C.3     
  64 N64           -1.3801    14.4640     1.4598 N.pl3   
  65 C65           -1.6758    15.5408     2.2619 C.2     
  66 N66           -1.9649    16.7602     1.6966 N.pl3   
  67 N67           -1.6822    15.4054     3.5582 N.2     
  68 N68           -3.9862    10.8731     3.1992 N.am    
  69 C69           -4.9555    11.2165     2.1395 C.3     
  70 C70           -4.4030    10.7682     0.8111 C.2     
  71 O71           -3.6218     9.8426     0.7483 O.2     
  72 C72           -8.3003     6.1788    -0.3056 C.1     
  73 N73           -9.2037     5.5249    -0.0893 N.1     
  74 C74           -5.1769    12.7302     2.1182 C.3     
  75 C75           -5.8381    13.1674     3.4269 C.3     
  76 C76           -6.0561    14.6584     3.4059 C.2     
  77 O77           -5.7163    15.3074     2.4394 O.2     
  78 N78           -6.6289    15.2706     4.4612 N.am    
  79 H79           -1.0114     5.3923     9.4044 H       
  80 H80           -2.4613     4.3605     9.3644 H       
  81 H81           -0.9938     3.8677     8.4859 H       
  82 H82           -0.2549     5.8910     6.8663 H       
  83 H83           -0.8249     7.0471     4.9363 H       
  84 H84           -3.3189     5.3176     5.2492 H       
  85 H85           -2.9404     6.2938     3.8097 H       
  86 H86           -0.8200     5.0418     3.5182 H       
  87 H87           -1.1985     4.0656     4.9577 H       
  88 H88           -3.2630     3.2435     3.8574 H       
  89 H89           -2.8845     4.2196     2.4179 H       
  90 H90           -0.6643     2.5675     2.9817 H       
  91 H91           -0.3978     0.5770     1.7020 H       
  92 H92           -1.7161    -0.0906     0.9027 H       
  93 H93           -3.7819     0.9519     1.0665 H       
  94 H94           -2.3455     8.8618     4.1882 H       
  95 H95           -4.1380     9.7583     6.3691 H       
  96 H96           -2.2617    11.6313     4.8751 H       
  97 H97           -3.2350    11.9812     6.3236 H       
  98 H98           -1.1650    11.5900     7.3099 H       
  99 H99           -1.8357     9.9415     7.3309 H       
 100 H100           1.0979    11.2885     6.8691 H       
 101 H101           2.9108    10.1256     5.7765 H       
 102 H102           1.6935     9.1888     4.8714 H       
 103 H103           1.1333    11.4895     3.7380 H       
 104 H104           2.7360    11.9829     4.3351 H       
 105 H105           3.3344     9.5398     3.2583 H       
 106 H106           2.0119    10.0532     2.1836 H       
 107 H107           3.4356    12.3761     2.3324 H       
 108 H108           4.2090    10.3490     0.3042 H       
 109 H109           4.9061    12.2217     4.3353 H       
 110 H110           6.4322    11.5446     4.1476 H       
 111 H111           2.6742    10.5270    -1.7126 H       
 112 H112           1.4887    13.2396    -2.1451 H       
 113 H113           4.0004    13.2478    -2.1157 H       
 114 H114           4.8827    11.7385    -1.7813 H       
 115 H115          -0.7412    12.1862    -3.9064 H       
 116 H116          -1.8810    10.2215    -2.6292 H       
 117 H117          -0.2003    14.1074    -2.4611 H       
 118 H118          -1.9617    13.8535    -2.4962 H       
 119 H119          -4.9593    10.9648    -2.3774 H       
 120 H120           4.5718    10.0988    -6.2544 H       
 121 H121           5.1215    10.0169    -3.7686 H       
 122 H122           2.2734    14.2544    -3.8449 H       
 123 H123           1.3286    15.0546    -5.9519 H       
 124 H124           1.7347    13.8298    -8.0446 H       
 125 H125           3.0956    11.7880    -8.0511 H       
 126 H126          -5.4173    12.1689    -0.2998 H       
 127 H127          -3.2685     9.1158    -2.2995 H       
 128 H128          -3.0640     9.4100    -0.5559 H       
 129 H129          -5.9333     9.0825    -2.9460 H       
 130 H130          -7.8935     7.6693    -2.4882 H       
 131 H131          -6.1674     6.5274     1.2692 H       
 132 H132          -4.2140     7.9424     0.7886 H       
 133 H133          -1.7545    12.5280    -0.3646 H       
 134 H134          -0.0291    12.9619    -0.3109 H       
 135 H135          -0.6347    15.3663    -0.2807 H       
 136 H136          -2.3601    14.9324    -0.3344 H       
 137 H137          -1.1761    13.6037     1.8586 H       
 138 H138          -1.9602    16.8609     0.7319 H       
 139 H139          -2.1736    17.5199     2.2625 H       
 140 H140          -1.8908    16.1651     4.1242 H       
 141 H141          -3.0311    10.9846     3.0719 H       
 142 H142          -5.9013    10.7097     2.3315 H       
 143 H143          -4.2177    13.2362     2.0090 H       
 144 H144          -5.8229    12.9912     1.2799 H       
 145 H145          -6.7973    12.6614     3.5362 H       
 146 H146          -5.1921    12.9065     4.2652 H       
 147 H147          -6.9007    14.7515     5.2342 H       
 148 H148          -6.7693    16.2303     4.4477 H       
@<TRIPOS>BOND
   1    1    2 1
   2    1    3 am
   3    1    4 2
   4    2   79 1
   5    2   80 1
   6    2   81 1
   7    3    5 1
   8    3   82 1
   9    5    6 1
  10    5    7 1
  11    5   83 1
  12    6    8 1
  13    6   84 1
  14    6   85 1
  15    7   14 2
  16    7   15 am
  17    8    9 1
  18    8   86 1
  19    8   87 1
  20    9   10 1
  21    9   88 1
  22    9   89 1
  23   10   11 1
  24   10   90 1
  25   11   12 1
  26   11   13 2
  27   12   91 1
  28   12   92 1
  29   13   93 1
  30   15   16 1
  31   15   94 1
  32   16   17 1
  33   16   60 1
  34   16   95 1
  35   17   18 1
  36   17   96 1
  37   17   97 1
  38   18   19 1
  39   18   98 1
  40   18   99 1
  41   19   20 2
  42   19   21 am
  43   21   22 1
  44   21  100 1
  45   22   23 1
  46   22  101 1
  47   22  102 1
  48   23   24 1
  49   23  103 1
  50   23  104 1
  51   24   25 1
  52   24  105 1
  53   24  106 1
  54   25   26 1
  55   25   27 1
  56   25  107 1
  57   26   30 am
  58   26  108 1
  59   27   28 am
  60   27   29 2
  61   28  109 1
  62   28  110 1
  63   30   31 2
  64   30   32 1
  65   32   33 1
  66   32   34 1
  67   32  111 1
  68   33   35 am
  69   33  112 1
  70   34   43 1
  71   34  113 1
  72   34  114 1
  73   35   36 2
  74   35   37 1
  75   37   38 1
  76   37   39 1
  77   37  115 1
  78   38   40 am
  79   38  116 1
  80   39   62 1
  81   39  117 1
  82   39  118 1
  83   40   41 2
  84   40   42 1
  85   42   52 1
  86   42   53 1
  87   42  119 1
  88   43   44 1
  89   43   47 2
  90   44   45 ar
  91   44   48 ar
  92   45   46 1
  93   45   51 ar
  94   46   47 1
  95   46  120 1
  96   47  121 1
  97   48   49 ar
  98   48  122 1
  99   49   50 ar
 100   49  123 1
 101   50   51 ar
 102   50  124 1
 103   51  125 1
 104   52   70 am
 105   52  126 1
 106   53   54 1
 107   53  127 1
 108   53  128 1
 109   54   55 ar
 110   54   59 ar
 111   55   56 ar
 112   55  129 1
 113   56   57 ar
 114   56  130 1
 115   57   58 ar
 116   57   72 1
 117   58   59 ar
 118   58  131 1
 119   59  132 1
 120   60   61 2
 121   60   68 am
 122   62   63 1
 123   62  133 1
 124   62  134 1
 125   63   64 1
 126   63  135 1
 127   63  136 1
 128   64   65 1
 129   64  137 1
 130   65   66 1
 131   65   67 2
 132   66  138 1
 133   66  139 1
 134   67  140 1
 135   68   69 1
 136   68  141 1
 137   69   70 1
 138   69   74 1
 139   69  142 1
 140   70   71 2
 141   72   73 3
 142   74   75 1
 143   74  143 1
 144   74  144 1
 145   75   76 1
 146   75  145 1
 147   75  146 1
 148   76   77 2
 149   76   78 am
 150   78  147 1
 151   78  148 1

#	End of record

