#	Name: ASD01411005
#	Creating user name:	WinNT
#	Creation time:	15. 06. 2019 19:19

#	Modifying user name:	WinNT
#	Modification time:	15. 06. 2019 19:19

#	Program:	/corina/corina34_cracker 3.40 0067  02.08.2006

@<TRIPOS>MOLECULE
ASD01411005
  70   75    0    0    0
SMALL
NO_CHARGES


@<TRIPOS>ATOM
   1 C1            -0.0289     1.4258    -0.0528 C.ar    
   2 C2            -0.0260     0.0328     0.1525 C.ar    
   3 C3            -1.2224    -0.6453     0.3552 C.ar    
   4 C4            -2.4055     0.0355     0.3559 C.ar    
   5 C5            -2.4277     1.4217     0.1533 C.ar    
   6 C6            -1.2401     2.1189    -0.0462 C.ar    
   7 N7             1.2607     1.8103    -0.2197 N.2     
   8 C8             2.0465     0.7617    -0.1322 C.2     
   9 N9             1.2946    -0.3622     0.0979 N.pl3   
  10 C10            1.8000    -1.7280     0.2569 C.3     
  11 C11            1.3987    -2.2633     1.6328 C.3     
  12 C12            1.9266    -3.6897     1.7989 C.3     
  13 C13            1.3306    -4.5841     0.7100 C.3     
  14 C14            1.7319    -4.0488    -0.6660 C.3     
  15 C15            1.2040    -2.6224    -0.8320 C.3     
  16 C16           -3.7148     2.1456     0.1565 C.2     
  17 O17           -3.7361     3.3485    -0.0191 O.2     
  18 N18           -4.8659     1.4729     0.3541 N.am    
  19 C19           -6.1427     2.1912     0.3573 C.3     
  20 C20           -7.2700     1.2290    -0.0229 C.3     
  21 C21           -6.4015     2.7497     1.7328 C.2     
  22 O22           -5.6015     2.5666     2.6195 O.2     
  23 O23           -7.5208     3.4505     1.9729 O.3     
  24 C24           -7.0769     0.7654    -1.4438 C.2     
  25 C25           -7.6409     1.2960    -2.5403 C.2     
  26 N26           -7.2323     0.6123    -3.6525 N.pl3   
  27 C27           -6.3721    -0.4023    -3.2886 C.ar    
  28 C28           -6.2332    -0.3457    -1.8905 C.ar    
  29 C29           -5.6830    -1.3738    -4.0072 C.ar    
  30 C30           -4.8769    -2.2748    -3.3484 C.ar    
  31 C31           -4.7421    -2.2253    -1.9631 C.ar    
  32 C32           -5.4120    -1.2644    -1.2327 C.ar    
  33 O33           -3.9418    -3.1229    -1.3281 O.3     
  34 C34            3.5113     0.7884    -0.2622 C.2     
  35 C35            4.2540     0.0653    -1.1523 C.2     
  36 C36            5.5993     0.3914    -0.9341 C.2     
  37 C37            5.6471     1.2947     0.0716 C.2     
  38 N38            4.3770     1.5493     0.4860 N.pl3   
  39 C39            3.9962     2.4733     1.5573 C.3     
  40 H40           -1.2158    -1.7138     0.5123 H       
  41 H41           -3.3311    -0.4983     0.5134 H       
  42 H42           -1.2563     3.1874    -0.2024 H       
  43 H43            2.8866    -1.7256     0.1707 H       
  44 H44            1.8233    -1.6262     2.4086 H       
  45 H45            0.3121    -2.2657     1.7190 H       
  46 H46            3.0132    -3.6874     1.7127 H       
  47 H47            1.6407    -4.0711     2.7792 H       
  48 H48            1.7067    -5.6003     0.8283 H       
  49 H49            0.2440    -4.5865     0.7961 H       
  50 H50            2.8185    -4.0464    -0.7521 H       
  51 H51            1.3073    -4.6860    -1.4417 H       
  52 H52            0.1175    -2.6247    -0.7459 H       
  53 H53            1.4900    -2.2410    -1.8123 H       
  54 H54           -4.8489     0.5133     0.4942 H       
  55 H55           -6.1025     3.0070    -0.3645 H       
  56 H56           -7.2539     0.3682     0.6455 H       
  57 H57           -8.2289     1.7398     0.0655 H       
  58 H58           -7.6429     3.7887     2.8706 H       
  59 H59           -8.3176     2.1378    -2.5439 H       
  60 H60           -7.5070     0.8111    -4.5613 H       
  61 H61           -5.7805    -1.4214    -5.0817 H       
  62 H62           -4.3444    -3.0272    -3.9111 H       
  63 H63           -5.3063    -1.2268    -0.1586 H       
  64 H64           -3.0247    -2.8322    -1.2308 H       
  65 H65            3.8747    -0.6292    -1.8872 H       
  66 H66            6.4464    -0.0072    -1.4725 H       
  67 H67            6.5434     1.7423     0.4748 H       
  68 H68            3.9126     3.4825     1.1540 H       
  69 H69            3.0370     2.1686     1.9759 H       
  70 H70            4.7557     2.4561     2.3389 H       
@<TRIPOS>BOND
   1    1    2 ar
   2    1    7 1
   3    1    6 ar
   4    2    3 ar
   5    2    9 1
   6    3    4 ar
   7    3   40 1
   8    4    5 ar
   9    4   41 1
  10    5    6 ar
  11    5   16 1
  12    6   42 1
  13    7    8 2
  14    8    9 1
  15    8   34 1
  16    9   10 1
  17   10   11 1
  18   10   15 1
  19   10   43 1
  20   11   12 1
  21   11   44 1
  22   11   45 1
  23   12   13 1
  24   12   46 1
  25   12   47 1
  26   13   14 1
  27   13   48 1
  28   13   49 1
  29   14   15 1
  30   14   50 1
  31   14   51 1
  32   15   52 1
  33   15   53 1
  34   16   17 2
  35   16   18 am
  36   18   19 1
  37   18   54 1
  38   19   20 1
  39   19   21 1
  40   19   55 1
  41   20   24 1
  42   20   56 1
  43   20   57 1
  44   21   22 2
  45   21   23 1
  46   23   58 1
  47   24   25 2
  48   24   28 1
  49   25   26 1
  50   25   59 1
  51   26   27 1
  52   26   60 1
  53   27   28 ar
  54   27   29 ar
  55   28   32 ar
  56   29   30 ar
  57   29   61 1
  58   30   31 ar
  59   30   62 1
  60   31   32 ar
  61   31   33 1
  62   32   63 1
  63   33   64 1
  64   34   35 2
  65   34   38 1
  66   35   36 1
  67   35   65 1
  68   36   37 2
  69   36   66 1
  70   37   38 1
  71   37   67 1
  72   38   39 1
  73   39   68 1
  74   39   69 1
  75   39   70 1

#	End of record

