#	Name: ASD05490129
#	Creating user name:	WinNT
#	Creation time:	15. 06. 2019 21:01

#	Modifying user name:	WinNT
#	Modification time:	15. 06. 2019 21:01

#	Program:	/corina/corina34_cracker 3.40 0067  02.08.2006

@<TRIPOS>MOLECULE
ASD05490129
  39   40    0    0    0
SMALL
NO_CHARGES


@<TRIPOS>ATOM
   1 N1             0.0628     1.2607     0.1885 N.ar    
   2 C2             1.1689     1.9828     0.1592 C.ar    
   3 C3             2.4073     1.3791     0.0799 C.ar    
   4 C4             2.4846    -0.0130     0.0308 C.ar    
   5 C5             1.3006    -0.7427     0.0641 C.ar    
   6 C6             0.0925    -0.0636     0.1439 C.ar    
   7 Cl7            1.0628     3.7144     0.2207 Cl      
   8 N8            -1.0984    -0.7801     0.1783 N.pl3   
   9 N9             3.7198    -0.6579    -0.0501 N.am    
  10 C10            4.2451    -1.0737    -1.3530 C.3     
  11 C11            5.0082     0.0677    -1.9743 C.ar    
  12 C12            6.3728     0.1738    -1.7798 C.ar    
  13 C13            4.3445     1.0052    -2.7434 C.ar    
  14 C14            7.0729     1.2207    -2.3492 C.ar    
  15 C15            6.4082     2.1619    -3.1140 C.ar    
  16 C16            5.0442     2.0519    -3.3139 C.ar    
  17 I17            7.4688     3.7494    -3.9767 I       
  18 N18            1.3286    -2.2218     0.0140 N.pl3   
  19 O19            1.4728    -2.8632     1.0394 O.2     
  20 O20            1.2073    -2.7975    -1.0524 O.2     
  21 C21            4.4293    -0.8982     1.0704 C.2     
  22 O22            5.5045    -1.4596     0.9999 O.2     
  23 O23            3.9465    -0.5161     2.2677 O.3     
  24 C24            4.0571    -0.3028     4.6911 C.3     
  25 C25            4.7643    -0.8074     3.4316 C.3     
  26 H26            3.3061     1.9774     0.0558 H       
  27 H27           -1.0824    -1.7494     0.1466 H       
  28 H28           -1.9454    -0.3106     0.2341 H       
  29 H29            4.9108    -1.9266    -1.2209 H       
  30 H30            3.4183    -1.3555    -2.0049 H       
  31 H31            6.8918    -0.5613    -1.1825 H       
  32 H32            3.2792     0.9196    -2.8989 H       
  33 H33            8.1388     1.3039    -2.1966 H       
  34 H34            4.5248     2.7868    -3.9111 H       
  35 H35            3.0928    -0.8012     4.7906 H       
  36 H36            4.6710    -0.5214     5.5648 H       
  37 H37            3.9036     0.7737     4.6150 H       
  38 H38            4.9178    -1.8838     3.5077 H       
  39 H39            5.7286    -0.3090     3.3321 H       
@<TRIPOS>BOND
   1    1    2 ar
   2    1    6 ar
   3    2    3 ar
   4    2    7 1
   5    3    4 ar
   6    3   26 1
   7    4    5 ar
   8    4    9 1
   9    5    6 ar
  10    5   18 1
  11    6    8 1
  12    8   27 1
  13    8   28 1
  14    9   10 1
  15    9   21 am
  16   10   11 1
  17   10   29 1
  18   10   30 1
  19   11   12 ar
  20   11   13 ar
  21   12   14 ar
  22   12   31 1
  23   13   16 ar
  24   13   32 1
  25   14   15 ar
  26   14   33 1
  27   15   16 ar
  28   15   17 1
  29   16   34 1
  30   18   19 2
  31   18   20 2
  32   21   22 2
  33   21   23 1
  34   23   25 1
  35   24   25 1
  36   24   35 1
  37   24   36 1
  38   24   37 1
  39   25   38 1
  40   25   39 1

#	End of record

