#	Name: ASD01882927
#	Creating user name:	WinNT
#	Creation time:	15. 06. 2019 19:45

#	Modifying user name:	WinNT
#	Modification time:	15. 06. 2019 19:45

#	Program:	/corina/corina34_cracker 3.40 0067  02.08.2006

@<TRIPOS>MOLECULE
ASD01882927
  42   44    0    0    0
SMALL
NO_CHARGES


@<TRIPOS>ATOM
   1 C1            -0.0181     1.4807     0.0102 C.2     
   2 C2             0.0021    -0.0041     0.0020 C.2     
   3 C3             1.1569    -0.6159    -0.5063 C.2     
   4 C4             2.2268     0.1950    -0.9493 C.2     
   5 C5             2.2426     1.5224    -0.7167 C.2     
   6 N6             1.2335     2.1149     0.0016 N.pl3   
   7 C7            -1.1663     2.1755     0.0195 C.2     
   8 C8            -1.1031    -0.7731     0.4896 C.1     
   9 C9             1.4556     3.3649     0.7326 C.3     
  10 C10            1.9150     3.0528     2.1336 C.ar    
  11 N11           -1.9798    -1.3832     0.8764 N.1     
  12 C12            1.2543    -2.0888    -0.5775 C.ar    
  13 C13            1.3363    -2.7261    -1.8179 C.ar    
  14 C14            1.4270    -4.0993    -1.8801 C.ar    
  15 C15            1.4365    -4.8504    -0.7111 C.ar    
  16 C16            1.3551    -4.2203     0.5247 C.ar    
  17 C17            1.2704    -2.8471     0.5955 C.ar    
  18 O18            1.5251    -6.2038    -0.7766 O.3     
  19 C19            1.5296    -6.9144     0.4632 C.3     
  20 C20            2.7563     2.4790     4.7048 C.ar    
  21 C21            1.4072     2.6035     4.4303 C.ar    
  22 C22            0.9866     2.8898     3.1452 C.ar    
  23 C23            3.2637     2.9239     2.4057 C.ar    
  24 C24            3.6853     2.6368     3.6920 C.ar    
  25 Cl25           5.3797     2.4813     4.0360 Cl      
  26 H26            3.0481    -0.2583    -1.4844 H       
  27 H27            3.0544     2.1241    -1.0979 H       
  28 H28           -2.1125     1.6548     0.0212 H       
  29 H29           -1.1441     3.2552     0.0252 H       
  30 H30            2.2184     3.9534     0.2228 H       
  31 H31            0.5258     3.9323     0.7731 H       
  32 H32            1.3283    -2.1430    -2.7269 H       
  33 H33            1.4904    -4.5927    -2.8387 H       
  34 H34            1.3628    -4.8077     1.4310 H       
  35 H35            1.2117    -2.3579     1.5565 H       
  36 H36            1.6044    -7.9842     0.2685 H       
  37 H37            2.3817    -6.5938     1.0626 H       
  38 H38            0.6063    -6.7072     1.0042 H       
  39 H39            3.0848     2.2556     5.7090 H       
  40 H40            0.6818     2.4800     5.2208 H       
  41 H41           -0.0675     2.9866     2.9311 H       
  42 H42            3.9885     3.0468     1.6146 H       
@<TRIPOS>BOND
   1    1    2 1
   2    1    6 1
   3    1    7 2
   4    2    3 2
   5    2    8 1
   6    3    4 1
   7    3   12 1
   8    4    5 2
   9    4   26 1
  10    5    6 1
  11    5   27 1
  12    6    9 1
  13    7   28 1
  14    7   29 1
  15    8   11 3
  16    9   10 1
  17    9   30 1
  18    9   31 1
  19   10   23 ar
  20   10   22 ar
  21   12   13 ar
  22   12   17 ar
  23   13   14 ar
  24   13   32 1
  25   14   15 ar
  26   14   33 1
  27   15   16 ar
  28   15   18 1
  29   16   17 ar
  30   16   34 1
  31   17   35 1
  32   18   19 1
  33   19   36 1
  34   19   37 1
  35   19   38 1
  36   20   21 ar
  37   20   24 ar
  38   20   39 1
  39   21   22 ar
  40   21   40 1
  41   22   41 1
  42   23   24 ar
  43   23   42 1
  44   24   25 1

#	End of record

