#	Name: ASD01890046
#	Creating user name:	WinNT
#	Creation time:	15. 06. 2019 19:50

#	Modifying user name:	WinNT
#	Modification time:	15. 06. 2019 19:50

#	Program:	/corina/corina34_cracker 3.40 0067  02.08.2006

@<TRIPOS>MOLECULE
ASD01890046
  16   16    0    0    0
SMALL
NO_CHARGES


@<TRIPOS>ATOM
   1 C1            -0.0168     1.3909     0.0097 C.ar    
   2 C2             0.0021    -0.0041     0.0020 C.ar    
   3 C3             1.2140    -0.6768    -0.0132 C.ar    
   4 C4             2.4003     0.0352    -0.0207 C.ar    
   5 C5             2.3812     1.4177    -0.0126 C.ar    
   6 C6             1.1763     2.0965     0.0021 C.ar    
   7 N7            -1.2380     2.0765     0.0192 N.pl3   
   8 N8            -1.1997    -0.7225     0.0101 N.pl3   
   9 I9             4.2304    -0.9842    -0.0436 I       
  10 H10            1.2322    -1.7567    -0.0188 H       
  11 H11            3.3099     1.9690    -0.0182 H       
  12 H12            1.1650     3.1764     0.0080 H       
  13 H13           -2.0721     1.5814     0.0205 H       
  14 H14           -1.2496     3.0464     0.0245 H       
  15 H15           -2.0469    -0.2504     0.0210 H       
  16 H16           -1.1849    -1.6924     0.0047 H       
@<TRIPOS>BOND
   1    1    2 ar
   2    1    6 ar
   3    1    7 1
   4    2    3 ar
   5    2    8 1
   6    3    4 ar
   7    3   10 1
   8    4    5 ar
   9    4    9 1
  10    5    6 ar
  11    5   11 1
  12    6   12 1
  13    7   13 1
  14    7   14 1
  15    8   15 1
  16    8   16 1

#	End of record

