#	Name: ASD01883247
#	Creating user name:	WinNT
#	Creation time:	15. 06. 2019 19:46

#	Modifying user name:	WinNT
#	Modification time:	15. 06. 2019 19:46

#	Program:	/corina/corina34_cracker 3.40 0067  02.08.2006

@<TRIPOS>MOLECULE
ASD01883247
  45   46    0    0    0
SMALL
NO_CHARGES


@<TRIPOS>ATOM
   1 N1             0.0268     1.2628     0.1138 N.am    
   2 C2             0.0307    -0.0825     0.0742 C.2     
   3 C3            -1.1951    -0.7927     0.0639 C.2     
   4 C4            -2.3974    -0.0642     0.0958 C.2     
   5 C5            -2.3349     1.3428     0.1366 C.2     
   6 C6            -1.1347     1.9654     0.1497 C.2     
   7 O7             1.0879    -0.6892     0.0467 O.2     
   8 C8            -1.2094    -2.2240     0.0214 C.1     
   9 N9            -1.2208    -3.3595    -0.0123 N.1     
  10 C10            1.3020     1.9839     0.1244 C.3     
  11 C11            1.7340     2.2773    -1.3137 C.3     
  12 C12            3.0658     3.0304    -1.3026 C.3     
  13 C13            4.1582     2.1261    -0.7283 C.3     
  14 C14            3.4360     3.4331    -2.7315 C.3     
  15 C15           -3.7006    -0.7603     0.0861 C.ar    
  16 C16           -4.5492    -0.6723     1.1920 C.ar    
  17 C17           -5.7642    -1.3219     1.1807 C.ar    
  18 C18           -6.1468    -2.0654     0.0703 C.ar    
  19 C19           -5.3036    -2.1560    -1.0351 C.ar    
  20 C20           -4.0891    -1.5035    -1.0318 C.ar    
  21 N21           -7.3788    -2.7232     0.0628 N.am    
  22 C22           -8.3911    -2.2668     0.8266 C.2     
  23 O23           -8.2116    -1.3283     1.5737 O.2     
  24 C24           -9.7459    -2.9224     0.7523 C.3     
  25 F25           -5.6782    -2.8798    -2.1126 F       
  26 H26           -3.2451     1.9235     0.1616 H       
  27 H27           -1.0991     3.0444     0.1815 H       
  28 H28            1.1845     2.9219     0.6671 H       
  29 H29            2.0606     1.3733     0.6142 H       
  30 H30            1.8515     1.3394    -1.8563 H       
  31 H31            0.9755     2.8879    -1.8035 H       
  32 H32            2.9726     3.9243    -0.6858 H       
  33 H33            4.2514     1.2323    -1.3451 H       
  34 H34            5.1070     2.6626    -0.7204 H       
  35 H35            3.8946     1.8393     0.2896 H       
  36 H36            2.6577     4.0773    -3.1406 H       
  37 H37            4.3847     3.9696    -2.7235 H       
  38 H38            3.5291     2.5392    -3.3483 H       
  39 H39           -4.2530    -0.0956     2.0558 H       
  40 H40           -6.4201    -1.2536     2.0360 H       
  41 H41           -3.4352    -1.5735    -1.8886 H       
  42 H42           -7.5058    -3.5087    -0.4920 H       
  43 H43           -9.7998    -3.7290     1.4836 H       
  44 H44          -10.5189    -2.1846     0.9676 H       
  45 H45           -9.8990    -3.3279    -0.2478 H       
@<TRIPOS>BOND
   1    1    2 am
   2    1   10 1
   3    1    6 1
   4    2    3 1
   5    2    7 2
   6    3    4 2
   7    3    8 1
   8    4    5 1
   9    4   15 1
  10    5    6 2
  11    5   26 1
  12    6   27 1
  13    8    9 3
  14   10   11 1
  15   10   28 1
  16   10   29 1
  17   11   12 1
  18   11   30 1
  19   11   31 1
  20   12   13 1
  21   12   14 1
  22   12   32 1
  23   13   33 1
  24   13   34 1
  25   13   35 1
  26   14   36 1
  27   14   37 1
  28   14   38 1
  29   15   16 ar
  30   15   20 ar
  31   16   17 ar
  32   16   39 1
  33   17   18 ar
  34   17   40 1
  35   18   19 ar
  36   18   21 1
  37   19   20 ar
  38   19   25 1
  39   20   41 1
  40   21   22 am
  41   21   42 1
  42   22   23 2
  43   22   24 1
  44   24   43 1
  45   24   44 1
  46   24   45 1

#	End of record

