#	Name: ASD03090200
#	Creating user name:	WinNT
#	Creation time:	15. 06. 2019 20:28

#	Modifying user name:	WinNT
#	Modification time:	15. 06. 2019 20:28

#	Program:	/corina/corina34_cracker 3.40 0067  02.08.2006

@<TRIPOS>MOLECULE
ASD03090200
  58   60    0    0    0
SMALL
NO_CHARGES


@<TRIPOS>ATOM
   1 N1             0.4488     1.5145     1.4699 N.ar    
   2 C2             0.4106     0.1962     1.4355 C.ar    
   3 C3             1.5369    -0.5372     1.1242 C.ar    
   4 C4             2.7298     0.1378     0.8429 C.ar    
   5 C5             2.7244     1.5358     0.8911 C.ar    
   6 C6             1.5521     2.1897     1.2115 C.ar    
   7 C7             3.9633    -0.6068     0.5044 C.2     
   8 N8             5.7411    -3.4558    -0.5330 N.pl3   
   9 C9             4.8141    -4.4453    -0.8766 C.ar    
  10 C10            3.5972    -4.0911    -1.4442 C.ar    
  11 C11            2.6832    -5.0699    -1.7827 C.ar    
  12 C12            2.9793    -6.4032    -1.5559 C.ar    
  13 C13            4.1922    -6.7588    -0.9899 C.ar    
  14 C14            5.1115    -5.7841    -0.6557 C.ar    
  15 N15            4.0272    -1.8628     0.1105 N.2     
  16 C16            5.2984    -2.2021    -0.1070 C.2     
  17 N17            6.0671    -1.1671     0.1449 N.2     
  18 N18            5.2225    -0.1167     0.5390 N.pl3   
  19 C19            5.6267     1.2390     0.9198 C.3     
  20 C20            5.7310     2.1110    -0.3330 C.3     
  21 C21            6.1468     3.5055     0.0587 C.2     
  22 F22            2.0835    -7.3588    -1.8869 F       
  23 N23            6.3032     4.4528    -0.8871 N.am    
  24 O24            6.3406     3.7753     1.2251 O.2     
  25 C25            6.7074     5.8084    -0.5063 C.3     
  26 C26            6.0691     4.1268    -2.2961 C.3     
  27 C27           -0.8806    -0.5182     1.7410 C.3     
  28 N28           -1.0136    -0.6883     3.1900 N.am    
  29 C29           -2.0981    -1.3055     3.6993 C.2     
  30 O30           -2.9639    -1.7201     2.9581 O.2     
  31 C31            4.5114    -8.2109    -0.7439 C.3     
  32 F32            5.7826    -8.3182    -0.1697 F       
  33 F33            3.5600    -8.7569     0.1243 F       
  34 F34            4.4880    -8.9057    -1.9580 F       
  35 C35           -2.2349    -1.4806     5.1899 C.3     
  36 F36           -3.4336    -2.1437     5.4735 F       
  37 F37           -1.1595    -2.2347     5.6715 F       
  38 F38           -2.2386    -0.2257     5.8084 F       
  39 H39            1.4984    -1.6162     1.0982 H       
  40 H40            3.6241     2.0950     0.6810 H       
  41 H41            1.5377     3.2688     1.2509 H       
  42 H42            6.6916    -3.6407    -0.5907 H       
  43 H43            3.3655    -3.0510    -1.6206 H       
  44 H44            1.7367    -4.7948    -2.2242 H       
  45 H45            6.0575    -6.0618    -0.2147 H       
  46 H46            4.8848     1.6627     1.5967 H       
  47 H47            6.5951     1.2027     1.4189 H       
  48 H48            6.4729     1.6873    -1.0099 H       
  49 H49            4.7626     2.1472    -0.8321 H       
  50 H50            7.7951     5.8791    -0.5145 H       
  51 H51            6.2915     6.5243    -1.2153 H       
  52 H52            6.3365     6.0306     0.4942 H       
  53 H53            5.0236     4.3115    -2.5429 H       
  54 H54            6.7061     4.7498    -2.9239 H       
  55 H55            6.3033     3.0765    -2.4698 H       
  56 H56           -1.7185     0.0694     1.3658 H       
  57 H57           -0.8778    -1.4958     1.2591 H       
  58 H58           -0.3211    -0.3568     3.7829 H       
@<TRIPOS>BOND
   1    1    2 ar
   2    1    6 ar
   3    2    3 ar
   4    2   27 1
   5    3    4 ar
   6    3   39 1
   7    4    5 ar
   8    4    7 1
   9    5    6 ar
  10    5   40 1
  11    6   41 1
  12    7   15 2
  13    7   18 1
  14    8    9 1
  15    8   16 1
  16    8   42 1
  17    9   10 ar
  18    9   14 ar
  19   10   11 ar
  20   10   43 1
  21   11   12 ar
  22   11   44 1
  23   12   13 ar
  24   12   22 1
  25   13   14 ar
  26   13   31 1
  27   14   45 1
  28   15   16 1
  29   16   17 2
  30   17   18 1
  31   18   19 1
  32   19   20 1
  33   19   46 1
  34   19   47 1
  35   20   21 1
  36   20   48 1
  37   20   49 1
  38   21   23 am
  39   21   24 2
  40   23   25 1
  41   23   26 1
  42   25   50 1
  43   25   51 1
  44   25   52 1
  45   26   53 1
  46   26   54 1
  47   26   55 1
  48   27   28 1
  49   27   56 1
  50   27   57 1
  51   28   29 am
  52   28   58 1
  53   29   30 2
  54   29   35 1
  55   31   32 1
  56   31   33 1
  57   31   34 1
  58   35   36 1
  59   35   37 1
  60   35   38 1

#	End of record

