#	Name: ASD01885363
#	Creating user name:	WinNT
#	Creation time:	15. 06. 2019 19:49

#	Modifying user name:	WinNT
#	Modification time:	15. 06. 2019 19:49

#	Program:	/corina/corina34_cracker 3.40 0067  02.08.2006

@<TRIPOS>MOLECULE
ASD01885363
  51   54    0    0    0
SMALL
NO_CHARGES


@<TRIPOS>ATOM
   1 C1             0.0658     1.4151    -0.5762 C.ar    
   2 C2             0.2141     0.0631    -0.6158 C.ar    
   3 C3             1.4507    -0.5164    -0.8915 C.ar    
   4 C4             2.5475     0.2567    -1.1295 C.ar    
   5 C5             2.4324     1.6522    -1.0975 C.ar    
   6 C6             1.1758     2.2469    -0.8173 C.ar    
   7 C7             3.5513     2.4887    -1.3401 C.ar    
   8 C8             3.3582     3.8625    -1.2910 C.ar    
   9 C9             2.0850     4.3700    -1.0081 C.ar    
  10 N10            1.0563     3.5744    -0.7847 N.ar    
  11 C11            4.8839     1.9149    -1.6359 C.ar    
  12 C12            1.8873     5.8387    -0.9571 C.2     
  13 O13            2.8243     6.5852    -1.1596 O.2     
  14 N14            0.6683     6.3456    -0.6861 N.am    
  15 C15           -0.9781    -0.8215    -0.3567 C.3     
  16 N16           -1.6644    -1.1022    -1.6249 N.3     
  17 C17           -2.7883    -2.0270    -1.4221 C.3     
  18 C18           -3.4256    -2.3554    -2.7743 C.3     
  19 N19           -3.8789    -1.1125    -3.4141 N.3     
  20 C20           -2.7550    -0.1877    -3.6169 C.3     
  21 C21           -2.1177     0.1407    -2.2647 C.3     
  22 C22            5.6093     2.3629    -2.7402 C.ar    
  23 C23            6.8500     1.8252    -3.0116 C.ar    
  24 C24            7.3764     0.8416    -2.1893 C.ar    
  25 C25            6.6597     0.3932    -1.0910 C.ar    
  26 C26            5.4206     0.9286    -0.8079 C.ar    
  27 F27            8.5920     0.3177    -2.4594 F       
  28 C28           -2.2788    -3.3147    -0.7717 C.3     
  29 F29           -1.8322    -3.0372     0.5248 F       
  30 F30           -3.3163    -4.2516    -0.7170 F       
  31 F31           -1.2221    -3.8327    -1.5281 F       
  32 H32           -0.9007     1.8484    -0.3650 H       
  33 H33            1.5414    -1.5923    -0.9166 H       
  34 H34            3.5009    -0.2045    -1.3415 H       
  35 H35            4.1844     4.5347    -1.4695 H       
  36 H36           -0.0798     5.7496    -0.5244 H       
  37 H37            0.5389     7.3063    -0.6527 H       
  38 H38           -0.6453    -1.7578     0.0912 H       
  39 H39           -1.6641    -0.3168     0.3236 H       
  40 H40           -3.5304    -1.5608    -0.7740 H       
  41 H41           -2.6911    -2.8462    -3.4128 H       
  42 H42           -4.2776    -3.0184    -2.6233 H       
  43 H43           -4.3503    -1.3053    -4.2851 H       
  44 H44           -2.0129    -0.6539    -4.2650 H       
  45 H45           -3.1180     0.7297    -4.0802 H       
  46 H46           -2.8522     0.6315    -1.6261 H       
  47 H47           -1.2658     0.8037    -2.4156 H       
  48 H48            5.1997     3.1291    -3.3818 H       
  49 H49            7.4121     2.1711    -3.8664 H       
  50 H50            7.0740    -0.3738    -0.4534 H       
  51 H51            4.8649     0.5818     0.0507 H       
@<TRIPOS>BOND
   1    1    2 ar
   2    1    6 ar
   3    1   32 1
   4    2    3 ar
   5    2   15 1
   6    3    4 ar
   7    3   33 1
   8    4    5 ar
   9    4   34 1
  10    5    7 ar
  11    5    6 ar
  12    6   10 ar
  13    7    8 ar
  14    7   11 1
  15    8    9 ar
  16    8   35 1
  17    9   10 ar
  18    9   12 1
  19   11   22 ar
  20   11   26 ar
  21   12   13 2
  22   12   14 am
  23   14   36 1
  24   14   37 1
  25   15   16 1
  26   15   38 1
  27   15   39 1
  28   16   17 1
  29   16   21 1
  30   17   18 1
  31   17   28 1
  32   17   40 1
  33   18   19 1
  34   18   41 1
  35   18   42 1
  36   19   20 1
  37   19   43 1
  38   20   21 1
  39   20   44 1
  40   20   45 1
  41   21   46 1
  42   21   47 1
  43   22   23 ar
  44   22   48 1
  45   23   24 ar
  46   23   49 1
  47   24   25 ar
  48   24   27 1
  49   25   26 ar
  50   25   50 1
  51   26   51 1
  52   28   29 1
  53   28   30 1
  54   28   31 1

#	End of record

