#	Name: ASD01913350
#	Creating user name:	WinNT
#	Creation time:	15. 06. 2019 20:01

#	Modifying user name:	WinNT
#	Modification time:	15. 06. 2019 20:01

#	Program:	/corina/corina34_cracker 3.40 0067  02.08.2006

@<TRIPOS>MOLECULE
ASD01913350
  39   41    0    0    0
SMALL
NO_CHARGES


@<TRIPOS>ATOM
   1 C1            -0.0166     1.3764     0.0096 C.2     
   2 C2             0.0021    -0.0041     0.0020 C.2     
   3 C3             1.2499    -0.6727    -0.0135 C.2     
   4 N4             2.3635     0.0159    -0.0204 N.2     
   5 C5             2.3516     1.3566    -0.0131 C.2     
   6 N6             1.1688     2.0507     0.0019 N.pl3   
   7 C7             3.3715     2.2994    -0.0168 C.2     
   8 C8             2.7836     3.5556    -0.0039 C.2     
   9 N9             1.4772     3.4160     0.0073 N.2     
  10 C10            3.5237     4.8683    -0.0028 C.3     
  11 C11           -1.2215    -0.7480     0.0102 C.1     
  12 C12           -2.2246    -1.3579     0.0169 C.1     
  13 C13           -3.4482    -2.1018     0.0250 C.ar    
  14 C14           -3.4287    -3.4974     0.0173 C.ar    
  15 N15           -4.5528    -4.1844     0.0248 N.ar    
  16 C16           -5.7353    -3.5876     0.0402 C.ar    
  17 C17           -5.8364    -2.1984     0.0492 C.ar    
  18 C18           -4.6849    -1.4384     0.0468 C.ar    
  19 C19            4.0865     5.1377    -1.3997 C.3     
  20 C20            2.5639     5.9946     0.3862 C.3     
  21 C21            4.6720     4.8056     1.0064 C.3     
  22 N22           -6.8911    -4.3582     0.0471 N.pl3   
  23 H23           -0.9538     1.9130     0.0170 H       
  24 H24            1.2833    -1.7522    -0.0192 H       
  25 H25            4.4313     2.0917    -0.0273 H       
  26 H26           -2.4831    -4.0190     0.0048 H       
  27 H27           -6.8053    -1.7215     0.0617 H       
  28 H28           -4.7340    -0.3596     0.0539 H       
  29 H29            3.2685     5.1824    -2.1187 H       
  30 H30            4.6218     6.0872    -1.3989 H       
  31 H31            4.7703     4.3353    -1.6768 H       
  32 H32            2.1629     5.8027     1.3814 H       
  33 H33            3.0992     6.9441     0.3870 H       
  34 H34            1.7458     6.0393    -0.3327 H       
  35 H35            5.3558     4.0033     0.7293 H       
  36 H36            5.2073     5.7551     1.0072 H       
  37 H37            4.2710     4.6137     2.0016 H       
  38 H38           -6.8287    -5.3262     0.0406 H       
  39 H39           -7.7606    -3.9283     0.0584 H       
@<TRIPOS>BOND
   1    1    2 2
   2    1    6 1
   3    1   23 1
   4    2    3 1
   5    2   11 1
   6    3    4 2
   7    3   24 1
   8    4    5 1
   9    5    6 1
  10    5    7 2
  11    6    9 1
  12    7    8 1
  13    7   25 1
  14    8    9 2
  15    8   10 1
  16   10   19 1
  17   10   20 1
  18   10   21 1
  19   11   12 3
  20   12   13 1
  21   13   14 ar
  22   13   18 ar
  23   14   15 ar
  24   14   26 1
  25   15   16 ar
  26   16   17 ar
  27   16   22 1
  28   17   18 ar
  29   17   27 1
  30   18   28 1
  31   19   29 1
  32   19   30 1
  33   19   31 1
  34   20   32 1
  35   20   33 1
  36   20   34 1
  37   21   35 1
  38   21   36 1
  39   21   37 1
  40   22   38 1
  41   22   39 1

#	End of record

