#	Name: ASD08150975
#	Creating user name:	WinNT
#	Creation time:	15. 06. 2019 21:16

#	Modifying user name:	WinNT
#	Modification time:	15. 06. 2019 21:16

#	Program:	/corina/corina34_cracker 3.40 0067  02.08.2006

@<TRIPOS>MOLECULE
ASD08150975
  62   67    0    0    0
SMALL
NO_CHARGES


@<TRIPOS>ATOM
   1 N1            -0.1003     1.4986    -0.4275 N.2     
   2 C2            -0.0678     0.2038    -0.5546 C.2     
   3 N3             1.2208    -0.2182    -0.6945 N.pl3   
   4 C4             2.0247     0.8927    -0.6496 C.ar    
   5 N5             3.3336     1.1079    -0.7302 N.ar    
   6 C6             3.8190     2.3290    -0.6506 C.ar    
   7 N7             3.0483     3.3889    -0.4888 N.ar    
   8 C8             1.7274     3.2721    -0.3978 C.ar    
   9 C9             1.1618     1.9884    -0.4777 C.ar    
  10 N10            0.9279     4.3888    -0.2279 N.pl3   
  11 C11            1.5357     5.7193    -0.1462 C.3     
  12 C12            1.8441     6.2266    -1.5564 C.3     
  13 N13            0.6218     9.7042     2.5297 N.ar    
  14 C14           -0.2056    10.5319     3.1203 C.ar    
  15 C15           -1.5856    10.3458     3.0736 C.ar    
  16 C16           -2.1069     9.2785     2.3994 C.ar    
  17 C17           -1.2147     8.3923     1.7667 C.ar    
  18 C18           -1.6792     7.2735     1.0548 C.ar    
  19 C19           -0.7897     6.4344     0.4527 C.ar    
  20 C20            0.5800     6.6675     0.5309 C.ar    
  21 C21            1.0735     7.7540     1.2198 C.ar    
  22 C22            0.1768     8.6413     1.8541 C.ar    
  23 N23            2.4492     7.9754     1.2905 N.3     
  24 C24            2.9270     7.8819     2.6765 C.3     
  25 C25            4.4578     7.9498     2.6913 C.3     
  26 N26            4.8788     9.1597     1.9686 N.am    
  27 C27            4.3318     9.3924     0.6233 C.3     
  28 C28            2.8060     9.2677     0.6899 C.3     
  29 C29            5.7425    10.0322     2.5247 C.2     
  30 O30            6.2420     9.7877     3.6058 O.2     
  31 N31            6.1886    12.7806     0.3029 N.pl3   
  32 N32            5.7187    11.6223     0.5992 N.2     
  33 C33            6.0824    11.2854     1.8205 C.2     
  34 C34            6.8599    12.3527     2.3290 C.2     
  35 C35            6.9010    13.2743     1.3384 C.2     
  36 C36            5.9860    13.4648    -0.9766 C.3     
  37 Cl37          -3.3830     6.9601     0.9429 Cl      
  38 H38           -0.9340    -0.4412    -0.5495 H       
  39 H39            1.5154    -1.1358    -0.8052 H       
  40 H40            4.8876     2.4690    -0.7198 H       
  41 H41           -0.0349     4.2907    -0.1628 H       
  42 H42            2.4596     5.6620     0.4294 H       
  43 H43            0.9360     6.1999    -2.1587 H       
  44 H44            2.2137     7.2505    -1.5015 H       
  45 H45            2.6021     5.5906    -2.0136 H       
  46 H46            0.1928    11.3799     3.6574 H       
  47 H47           -2.2424    11.0446     3.5704 H       
  48 H48           -3.1740     9.1188     2.3533 H       
  49 H49           -1.1532     5.5762    -0.0929 H       
  50 H50            2.5206     8.7094     3.2579 H       
  51 H51            2.6006     6.9369     3.1107 H       
  52 H52            4.8123     7.9963     3.7209 H       
  53 H53            4.8682     7.0680     2.1992 H       
  54 H54            4.6030    10.3927     0.2858 H       
  55 H55            4.7301     8.6493    -0.0675 H       
  56 H56            2.3918     9.3278    -0.3165 H       
  57 H57            2.4012    10.0760     1.2991 H       
  58 H58            7.3224    12.4185     3.3027 H       
  59 H59            7.4087    14.2270     1.3704 H       
  60 H60            5.0844    14.0750    -0.9235 H       
  61 H61            6.8445    14.1025    -1.1875 H       
  62 H62            5.8785    12.7259    -1.7706 H       
@<TRIPOS>BOND
   1    1    2 2
   2    1    9 1
   3    2    3 1
   4    2   38 1
   5    3    4 1
   6    3   39 1
   7    4    5 ar
   8    4    9 ar
   9    5    6 ar
  10    6    7 ar
  11    6   40 1
  12    7    8 ar
  13    8    9 ar
  14    8   10 1
  15   10   11 1
  16   10   41 1
  17   11   12 1
  18   11   20 1
  19   11   42 1
  20   12   43 1
  21   12   44 1
  22   12   45 1
  23   13   14 ar
  24   13   22 ar
  25   14   15 ar
  26   14   46 1
  27   15   16 ar
  28   15   47 1
  29   16   17 ar
  30   16   48 1
  31   17   18 ar
  32   17   22 ar
  33   18   19 ar
  34   18   37 1
  35   19   20 ar
  36   19   49 1
  37   20   21 ar
  38   21   22 ar
  39   21   23 1
  40   23   24 1
  41   23   28 1
  42   24   25 1
  43   24   50 1
  44   24   51 1
  45   25   26 1
  46   25   52 1
  47   25   53 1
  48   26   27 1
  49   26   29 am
  50   27   28 1
  51   27   54 1
  52   27   55 1
  53   28   56 1
  54   28   57 1
  55   29   30 2
  56   29   33 1
  57   31   32 1
  58   31   35 1
  59   31   36 1
  60   32   33 2
  61   33   34 1
  62   34   35 2
  63   34   58 1
  64   35   59 1
  65   36   60 1
  66   36   61 1
  67   36   62 1

#	End of record

