#	Name: ASD01916026
#	Creating user name:	WinNT
#	Creation time:	15. 06. 2019 20:06

#	Modifying user name:	WinNT
#	Modification time:	15. 06. 2019 20:06

#	Program:	/corina/corina34_cracker 3.40 0067  02.08.2006

@<TRIPOS>MOLECULE
ASD01916026
  33   35    0    0    0
SMALL
NO_CHARGES


@<TRIPOS>ATOM
   1 C1            -0.0170     1.3998     0.0097 C.ar    
   2 C2             0.0021    -0.0041     0.0020 C.ar    
   3 N3            -1.1424    -0.6579     0.0090 N.ar    
   4 C4            -2.2987    -0.0085     0.0230 C.ar    
   5 C5            -3.5603    -0.7871     0.0309 C.2     
   6 N6            -4.7467    -0.1478     0.0452 N.am    
   7 O7            -3.5247    -2.0017     0.0245 O.2     
   8 C8             1.2016     2.1519     0.0021 C.1     
   9 C9             2.2006     2.7685    -0.0041 C.1     
  10 C10            3.4192     3.5206    -0.0117 C.ar    
  11 C11            3.3822     4.9179    -0.0038 C.ar    
  12 C12            5.8209     3.5922    -0.0285 C.ar    
  13 C13            4.5599     5.6354    -0.0113 C.ar    
  14 N14           -2.3608     1.3164     0.0307 N.ar    
  15 C15           -1.2633     2.0463     0.0192 C.ar    
  16 C16            4.6515     2.8611    -0.0212 C.ar    
  17 C17            5.7762     4.9754    -0.0269 C.ar    
  18 C18           -5.1948     1.2529     0.0498 C.3     
  19 C19           -6.1630    -0.5439     0.0564 C.3     
  20 F20           -7.6470     1.4088    -0.1623 F       
  21 C21           -6.4869     0.7852    -0.6340 C.3     
  22 F22           -6.4083     0.7405    -2.0301 F       
  23 H23            0.9398    -0.5398    -0.0098 H       
  24 H24            2.4337     5.4343     0.0077 H       
  25 H25            6.7738     3.0841    -0.0404 H       
  26 H26            4.5330     6.7150    -0.0052 H       
  27 H27           -1.3217     3.1247     0.0259 H       
  28 H28            4.6879     1.7817    -0.0225 H       
  29 H29            6.6952     5.5426    -0.0323 H       
  30 H30           -5.3541     1.6544     1.0506 H       
  31 H31           -4.5850     1.9058    -0.5746 H       
  32 H32           -6.3747    -1.4158    -0.5624 H       
  33 H33           -6.5828    -0.6260     1.0590 H       
@<TRIPOS>BOND
   1    1    2 ar
   2    1    8 1
   3    1   15 ar
   4    2    3 ar
   5    2   23 1
   6    3    4 ar
   7    4   14 ar
   8    4    5 1
   9    5    6 am
  10    5    7 2
  11    6   19 1
  12    6   18 1
  13    8    9 3
  14    9   10 1
  15   10   11 ar
  16   10   16 ar
  17   11   13 ar
  18   11   24 1
  19   12   17 ar
  20   12   16 ar
  21   12   25 1
  22   13   17 ar
  23   13   26 1
  24   14   15 ar
  25   15   27 1
  26   16   28 1
  27   17   29 1
  28   18   21 1
  29   18   30 1
  30   18   31 1
  31   19   21 1
  32   19   32 1
  33   19   33 1
  34   20   21 1
  35   21   22 1

#	End of record

