#	Name: ASD01910878
#	Creating user name:	WinNT
#	Creation time:	15. 06. 2019 19:56

#	Modifying user name:	WinNT
#	Modification time:	15. 06. 2019 19:56

#	Program:	/corina/corina34_cracker 3.40 0067  02.08.2006

@<TRIPOS>MOLECULE
ASD01910878
  51   54    0    0    0
SMALL
NO_CHARGES


@<TRIPOS>ATOM
   1 C1            -0.2876     1.1070     0.3923 C.ar    
   2 C2            -0.1940    -0.2688     0.3020 C.ar    
   3 N3             1.0022    -0.8333     0.2303 N.ar    
   4 C4             2.1034    -0.0971     0.2442 C.ar    
   5 N5             2.0547     1.2241     0.3297 N.ar    
   6 C6             0.8892     1.8547     0.4046 C.ar    
   7 N7             3.3350    -0.7236     0.1680 N.3     
   8 C8             3.1795    -2.1817     0.0804 C.3     
   9 C9             4.5460    -2.8229    -0.1837 C.3     
  10 N10            5.4869    -2.3587     0.8470 N.am    
  11 C11            5.5967    -0.9120     1.0882 C.3     
  12 C12            4.1888    -0.3460     1.3023 C.3     
  13 C13            6.2293    -3.2358     1.5514 C.2     
  14 C14            7.2576    -2.7447     2.4937 C.ar    
  15 C15            7.4420    -3.3822     3.7226 C.ar    
  16 C16            8.4018    -2.9255     4.6046 C.ar    
  17 C17            9.1854    -1.8369     4.2792 C.ar    
  18 C18            9.0115    -1.1884     3.0525 C.ar    
  19 C19            8.0482    -1.6488     2.1551 C.ar    
  20 C20            9.8246    -0.0587     2.7160 C.1     
  21 O21            6.0535    -4.4304     1.4121 O.2     
  22 C22           10.4912     0.8675     2.4401 C.1     
  23 C23           11.3043     1.9972     2.1036 C.ar    
  24 C24           11.1392     2.6526     0.8810 C.ar    
  25 N25           11.8874     3.6914     0.5723 N.ar    
  26 C26           12.8124     4.1523     1.3921 C.ar    
  27 C27           13.0384     3.5589     2.6214 C.ar    
  28 C28           12.2756     2.4681     2.9976 C.ar    
  29 O29            0.8437     3.2063     0.4915 O.3     
  30 C30            2.0938     3.8985     0.4977 C.3     
  31 H31           -1.2508     1.5924     0.4475 H       
  32 H32           -1.0863    -0.8772     0.2903 H       
  33 H33            2.7748    -2.5614     1.0186 H       
  34 H34            2.4991    -2.4265    -0.7352 H       
  35 H35            4.4566    -3.9082    -0.1359 H       
  36 H36            4.9058    -2.5255    -1.1687 H       
  37 H37            6.2019    -0.7339     1.9770 H       
  38 H38            6.0575    -0.4309     0.2255 H       
  39 H39            4.2404     0.7405     1.3728 H       
  40 H40            3.7701    -0.7512     2.2234 H       
  41 H41            6.8323    -4.2344     3.9841 H       
  42 H42            8.5396    -3.4223     5.5535 H       
  43 H43            9.9340    -1.4850     4.9736 H       
  44 H44            7.9093    -1.1521     1.2062 H       
  45 H45           10.3922     2.3043     0.1831 H       
  46 H46           13.4036     5.0072     1.0985 H       
  47 H47           13.7996     3.9463     3.2825 H       
  48 H48           12.4310     1.9859     3.9514 H       
  49 H49            2.6868     3.5700     1.3512 H       
  50 H50            2.6334     3.6823    -0.4244 H       
  51 H51            1.9148     4.9712     0.5709 H       
@<TRIPOS>BOND
   1    1    2 ar
   2    1    6 ar
   3    1   31 1
   4    2    3 ar
   5    2   32 1
   6    3    4 ar
   7    4    5 ar
   8    4    7 1
   9    5    6 ar
  10    6   29 1
  11    7    8 1
  12    7   12 1
  13    8    9 1
  14    8   33 1
  15    8   34 1
  16    9   10 1
  17    9   35 1
  18    9   36 1
  19   10   11 1
  20   10   13 am
  21   11   12 1
  22   11   37 1
  23   11   38 1
  24   12   39 1
  25   12   40 1
  26   13   14 1
  27   13   21 2
  28   14   15 ar
  29   14   19 ar
  30   15   16 ar
  31   15   41 1
  32   16   17 ar
  33   16   42 1
  34   17   18 ar
  35   17   43 1
  36   18   19 ar
  37   18   20 1
  38   19   44 1
  39   20   22 3
  40   22   23 1
  41   23   24 ar
  42   23   28 ar
  43   24   25 ar
  44   24   45 1
  45   25   26 ar
  46   26   27 ar
  47   26   46 1
  48   27   28 ar
  49   27   47 1
  50   28   48 1
  51   29   30 1
  52   30   49 1
  53   30   50 1
  54   30   51 1

#	End of record

