#	Name: ASD01914177
#	Creating user name:	WinNT
#	Creation time:	15. 06. 2019 20:03

#	Modifying user name:	WinNT
#	Modification time:	15. 06. 2019 20:03

#	Program:	/corina/corina34_cracker 3.40 0067  02.08.2006

@<TRIPOS>MOLECULE
ASD01914177
  35   37    0    0    0
SMALL
NO_CHARGES


@<TRIPOS>ATOM
   1 C1            -0.0168     1.3912     0.0097 C.ar    
   2 C2             0.0021    -0.0041     0.0020 C.ar    
   3 C3             1.2204    -0.6594    -0.0131 C.ar    
   4 C4             2.3820     0.1007    -0.0201 C.ar    
   5 C5             2.2905     1.4803    -0.0118 C.ar    
   6 N6             1.1180     2.0808     0.0026 N.ar    
   7 C7            -1.2697     2.0847     0.0194 C.1     
   8 C8            -2.2967     2.6533     0.0273 C.1     
   9 C9            -3.5846     3.3662     0.0372 C.3     
  10 C10           -3.3321     4.8752     0.0443 C.3     
  11 N11           -5.2451     5.9318     1.1186 N.2     
  12 N12           -4.6138     5.5848     0.0541 N.pl3   
  13 N13           -5.2558     5.9426    -1.0009 N.2     
  14 C14           -6.3660     6.5564    -0.6306 C.2     
  15 C15           -6.3532     6.5461     0.7762 C.2     
  16 C16           -7.4088     7.1358    -1.5145 C.ar    
  17 C17           -7.2715     7.0624    -2.9000 C.ar    
  18 C18           -8.2450     7.6033    -3.7171 C.ar    
  19 C19           -9.3539     8.2166    -3.1627 C.ar    
  20 C20           -9.4943     8.2922    -1.7889 C.ar    
  21 C21           -8.5305     7.7495    -0.9627 C.ar    
  22 Cl22          -5.8798     6.2934    -3.5967 Cl      
  23 H23           -0.9212    -0.5644     0.0082 H       
  24 H24            1.2668    -1.7384    -0.0190 H       
  25 H25            3.3484    -0.3812    -0.0315 H       
  26 H26            3.1928     2.0739    -0.0172 H       
  27 H27           -4.1555     3.0975    -0.8515 H       
  28 H28           -4.1471     3.0878     0.9284 H       
  29 H29           -2.7611     5.1440     0.9330 H       
  30 H30           -2.7695     5.1536    -0.8469 H       
  31 H31           -7.1008     6.9584     1.4376 H       
  32 H32           -8.1400     7.5476    -4.7905 H       
  33 H33          -10.1129     8.6383    -3.8050 H       
  34 H34          -10.3619     8.7728    -1.3616 H       
  35 H35           -8.6440     7.8051     0.1099 H       
@<TRIPOS>BOND
   1    1    2 ar
   2    1    6 ar
   3    1    7 1
   4    2    3 ar
   5    2   23 1
   6    3    4 ar
   7    3   24 1
   8    4    5 ar
   9    4   25 1
  10    5    6 ar
  11    5   26 1
  12    7    8 3
  13    8    9 1
  14    9   10 1
  15    9   27 1
  16    9   28 1
  17   10   12 1
  18   10   29 1
  19   10   30 1
  20   11   12 1
  21   11   15 2
  22   12   13 1
  23   13   14 2
  24   14   15 1
  25   14   16 1
  26   15   31 1
  27   16   17 ar
  28   16   21 ar
  29   17   18 ar
  30   17   22 1
  31   18   19 ar
  32   18   32 1
  33   19   20 ar
  34   19   33 1
  35   20   21 ar
  36   20   34 1
  37   21   35 1

#	End of record

