#	Name: ASD04590659
#	Creating user name:	WinNT
#	Creation time:	15. 06. 2019 20:51

#	Modifying user name:	WinNT
#	Modification time:	15. 06. 2019 20:51

#	Program:	/corina/corina34_cracker 3.40 0067  02.08.2006

@<TRIPOS>MOLECULE
ASD04590659
  69   74    0    0    0
SMALL
NO_CHARGES


@<TRIPOS>ATOM
   1 N1            -2.3802    -2.7060     0.0323 N.ar    
   2 C2            -1.2132    -2.0748     0.0101 C.ar    
   3 N3            -0.0593    -2.7211    -0.0123 N.ar    
   4 C4            -0.0279    -4.0508    -0.0129 C.ar    
   5 C5            -1.2515    -4.7528     0.0109 C.ar    
   6 C6            -2.4410    -4.0271     0.0335 C.ar    
   7 N7             0.9873    -4.9682    -0.0326 N.pl3   
   8 C8             0.4718    -6.2742    -0.0225 C.2     
   9 C9            -0.9106    -6.1722     0.0043 C.2     
  10 N10           -1.2030    -0.6888     0.0098 N.pl3   
  11 C11           -2.4024     0.0174    -0.0802 C.ar    
  12 C12            2.4134    -4.6343    -0.0603 C.3     
  13 C13            3.1156    -5.2179     1.1783 C.3     
  14 C14            4.1877    -6.1969     0.6567 C.3     
  15 C15            4.4826    -5.7058    -0.7824 C.3     
  16 C16            3.0833    -5.2790    -1.2914 C.3     
  17 C17           -2.3941     1.4030     0.0327 C.ar    
  18 C18           -3.5889     2.0942    -0.0580 C.ar    
  19 C19           -4.7616     1.3688    -0.2603 C.ar    
  20 C20           -4.6928    -0.0128    -0.3635 C.ar    
  21 N21           -3.5347    -0.6388    -0.2775 N.ar    
  22 N22           -5.9937     2.0262    -0.3579 N.3     
  23 C23           -7.0866     1.0677    -0.5694 C.3     
  24 C24           -8.4288     1.8028    -0.4895 C.3     
  25 C25           -7.2613     3.8599    -1.3718 C.3     
  26 C26           -5.9650     3.0439    -1.4169 C.3     
  27 C27            0.9103    -7.5974    -0.0310 C.2     
  28 N28            0.0321    -8.5488    -0.0139 N.2     
  29 S29           -1.5061    -7.8337     0.0155 S.3     
  30 N30           -8.4003     2.9313    -1.4323 N.am    
  31 O31           -9.3476     4.1493    -3.1824 O.3     
  32 C32          -10.4494     4.2797    -4.1190 C.3     
  33 C33          -11.7600     4.4388    -3.3457 C.3     
  34 C34          -10.2256     5.5092    -5.0018 C.3     
  35 C35          -10.5237     3.0285    -4.9965 C.3     
  36 C36           -9.3917     3.1101    -2.3276 C.2     
  37 O37          -10.3255     2.3333    -2.3632 O.2     
  38 H38           -3.3945    -4.5339     0.0524 H       
  39 H39           -0.3617    -0.2100     0.0723 H       
  40 H40            2.5428    -3.5523    -0.0877 H       
  41 H41            3.5865    -4.4193     1.7515 H       
  42 H42            2.3953    -5.7496     1.8000 H       
  43 H43            5.0866    -6.1407     1.2706 H       
  44 H44            3.7989    -7.2150     0.6402 H       
  45 H45            5.1644    -4.8555    -0.7683 H       
  46 H46            4.8850    -6.5149    -1.3918 H       
  47 H47            2.5161    -6.1489    -1.6225 H       
  48 H48            3.1762    -4.5530    -2.0991 H       
  49 H49           -1.4663     1.9332     0.1896 H       
  50 H50           -3.6125     3.1706     0.0264 H       
  51 H51           -5.5971    -0.5822    -0.5203 H       
  52 H52           -6.9818     0.6075    -1.5519 H       
  53 H53           -7.0480     0.2965     0.1999 H       
  54 H54           -9.2360     1.1214    -0.7584 H       
  55 H55           -8.5826     2.1754     0.5232 H       
  56 H56           -7.3028     4.4303    -0.4439 H       
  57 H57           -7.2965     4.5386    -2.2240 H       
  58 H58           -5.1130     3.7058    -1.2623 H       
  59 H59           -5.8758     2.5562    -2.3876 H       
  60 H60            1.9658    -7.8253    -0.0519 H       
  61 H61          -11.7071     5.3302    -2.7206 H       
  62 H62          -12.5872     4.5367    -4.0488 H       
  63 H63          -11.9195     3.5629    -2.7168 H       
  64 H64           -9.2920     5.3958    -5.5527 H       
  65 H65          -11.0528     5.6071    -5.7049 H       
  66 H66          -10.1727     6.4005    -4.3766 H       
  67 H67          -10.6831     2.1527    -4.3676 H       
  68 H68          -11.3508     3.1264    -5.6996 H       
  69 H69           -9.5900     2.9152    -5.5474 H       
@<TRIPOS>BOND
   1    1    2 ar
   2    1    6 ar
   3    2    3 ar
   4    2   10 1
   5    3    4 ar
   6    4    5 ar
   7    4    7 1
   8    5    6 ar
   9    5    9 1
  10    6   38 1
  11    7    8 1
  12    7   12 1
  13    8    9 2
  14    8   27 1
  15    9   29 1
  16   10   11 1
  17   10   39 1
  18   11   17 ar
  19   11   21 ar
  20   12   13 1
  21   12   16 1
  22   12   40 1
  23   13   14 1
  24   13   41 1
  25   13   42 1
  26   14   15 1
  27   14   43 1
  28   14   44 1
  29   15   16 1
  30   15   45 1
  31   15   46 1
  32   16   47 1
  33   16   48 1
  34   17   18 ar
  35   17   49 1
  36   18   19 ar
  37   18   50 1
  38   19   20 ar
  39   19   22 1
  40   20   21 ar
  41   20   51 1
  42   22   23 1
  43   22   26 1
  44   23   24 1
  45   23   52 1
  46   23   53 1
  47   24   30 1
  48   24   54 1
  49   24   55 1
  50   25   26 1
  51   25   30 1
  52   25   56 1
  53   25   57 1
  54   26   58 1
  55   26   59 1
  56   27   28 2
  57   27   60 1
  58   28   29 1
  59   30   36 am
  60   31   32 1
  61   31   36 1
  62   32   33 1
  63   32   34 1
  64   32   35 1
  65   33   61 1
  66   33   62 1
  67   33   63 1
  68   34   64 1
  69   34   65 1
  70   34   66 1
  71   35   67 1
  72   35   68 1
  73   35   69 1
  74   36   37 2

#	End of record

