#	Name: ASD01915003
#	Creating user name:	WinNT
#	Creation time:	15. 06. 2019 20:04

#	Modifying user name:	WinNT
#	Modification time:	15. 06. 2019 20:04

#	Program:	/corina/corina34_cracker 3.40 0067  02.08.2006

@<TRIPOS>MOLECULE
ASD01915003
  43   46    0    0    0
SMALL
NO_CHARGES


@<TRIPOS>ATOM
   1 C1            -0.2245     1.4623    -1.1233 C.ar    
   2 C2            -0.2360     0.0856    -1.2767 C.ar    
   3 C3             0.9606    -0.6054    -1.1406 C.ar    
   4 C4             2.1165     0.0942    -0.8589 C.ar    
   5 N5             2.0969     1.4064    -0.7180 N.ar    
   6 C6             0.9787     2.1009    -0.8398 C.ar    
   7 O7             1.0046     3.4493    -0.6869 O.3     
   8 C8             2.2707     4.0452    -0.3970 C.3     
   9 C9             2.1047     5.5369    -0.2624 C.2     
  10 C10            0.9038     6.2477    -0.3913 C.2     
  11 N11            3.0586     6.3991     0.0019 N.2     
  12 C12            1.2429     7.5558    -0.1921 C.2     
  13 C13            0.4371     8.7861    -0.1929 C.2     
  14 N14            2.5969     7.5867     0.0597 N.pl3   
  15 C15            3.2858     8.8490     0.3546 C.3     
  16 C16            2.5714     9.9927    -0.3640 C.3     
  17 N17            1.1233     9.9545    -0.1733 N.am    
  18 O18           -0.7789     8.7566    -0.2106 O.2     
  19 C19            0.4301    11.1513     0.0397 C.ar    
  20 C20           -0.8412    12.5866     1.4802 C.ar    
  21 C21           -0.1579    11.4046     1.2720 C.ar    
  22 C22            0.3339    12.0900    -0.9793 C.ar    
  23 C23           -0.3503    13.2707    -0.7668 C.ar    
  24 C24           -0.9399    13.5191     0.4613 C.ar    
  25 F25           -1.6088    14.6747     0.6670 F       
  26 C26            3.2654     9.1017     1.8635 C.3     
  27 F27           -1.3646     2.1755    -1.2526 F       
  28 H28           -1.1545    -0.4382    -1.4967 H       
  29 H29            0.9865    -1.6791    -1.2538 H       
  30 H30            3.0494    -0.4393    -0.7518 H       
  31 H31            2.6591     3.6371     0.5361 H       
  32 H32            2.9679     3.8287    -1.2064 H       
  33 H33           -0.0770     5.8479    -0.6024 H       
  34 H34            4.3177     8.7899     0.0087 H       
  35 H35            2.9518    10.9405     0.0169 H       
  36 H36            2.7899     9.9302    -1.4300 H       
  37 H37           -1.2988    12.7838     2.4384 H       
  38 H38           -0.0811    10.6775     2.0670 H       
  39 H39            0.7942    11.8970    -1.9370 H       
  40 H40           -0.4253    14.0010    -1.5590 H       
  41 H41            3.7716     8.2835     2.3758 H       
  42 H42            3.7770    10.0390     2.0818 H       
  43 H43            2.2330     9.1625     2.2078 H       
@<TRIPOS>BOND
   1    1    2 ar
   2    1    6 ar
   3    1   27 1
   4    2    3 ar
   5    2   28 1
   6    3    4 ar
   7    3   29 1
   8    4    5 ar
   9    4   30 1
  10    5    6 ar
  11    6    7 1
  12    7    8 1
  13    8    9 1
  14    8   31 1
  15    8   32 1
  16    9   11 2
  17    9   10 1
  18   10   12 2
  19   10   33 1
  20   11   14 1
  21   12   14 1
  22   12   13 1
  23   13   17 am
  24   13   18 2
  25   14   15 1
  26   15   16 1
  27   15   26 1
  28   15   34 1
  29   16   17 1
  30   16   35 1
  31   16   36 1
  32   17   19 1
  33   19   22 ar
  34   19   21 ar
  35   20   21 ar
  36   20   24 ar
  37   20   37 1
  38   21   38 1
  39   22   23 ar
  40   22   39 1
  41   23   24 ar
  42   23   40 1
  43   24   25 1
  44   26   41 1
  45   26   42 1
  46   26   43 1

#	End of record

