#	Name: ASD08170173
#	Creating user name:	WinNT
#	Creation time:	15. 06. 2019 21:17

#	Modifying user name:	WinNT
#	Modification time:	15. 06. 2019 21:17

#	Program:	/corina/corina34_cracker 3.40 0067  02.08.2006

@<TRIPOS>MOLECULE
ASD08170173
  48   50    0    0    0
SMALL
NO_CHARGES


@<TRIPOS>ATOM
   1 N1            -0.0150     1.2583     0.0090 N.2     
   2 N2             0.0021    -0.0041     0.0020 N.2     
   3 C3             1.1271     1.8769     0.0014 C.2     
   4 S4             2.3826     0.7116    -0.0169 S.3     
   5 C5             1.1681    -0.5677    -0.0121 C.2     
   6 C6             1.4387    -2.0502    -0.0217 C.3     
   7 C7             1.5173    -2.5450    -1.4674 C.3     
   8 S8             1.8430    -4.3295    -1.4789 S.3     
   9 C9             1.9004    -4.7224    -3.2489 C.3     
  10 C10            2.1718    -6.2170    -3.4310 C.3     
  11 C11            2.2195    -6.5434    -4.9015 C.2     
  12 N12            3.2720    -6.5210    -5.6525 N.2     
  13 S13            0.8503    -7.0315    -5.9023 S.3     
  14 C14            1.9435    -7.1404    -7.2837 C.2     
  15 N15            3.1369    -6.8239    -6.8691 N.2     
  16 N16            1.5954    -7.5027    -8.5765 N.pl3   
  17 N17            1.3017     3.2566     0.0071 N.am    
  18 C18            0.2284     4.0717     0.0222 C.2     
  19 O19           -0.8897     3.6019     0.0309 O.2     
  20 C20            0.4176     5.5667     0.0285 C.3     
  21 C21            0.7193     6.0635    -1.4011 C.3     
  22 C22           -0.0574     7.4048    -1.4740 C.3     
  23 C23           -1.3134     7.0833    -0.6262 C.3     
  24 N24           -0.8212     6.2257     0.4673 N.am    
  25 C25           -1.4097     6.0710     1.6698 C.2     
  26 C26           -2.6833     6.8118     1.9863 C.3     
  27 O27           -0.9143     5.3356     2.4973 O.2     
  28 F28           -3.0989     6.4919     3.2833 F       
  29 F29           -2.4564     8.1893     1.8958 F       
  30 F30           -3.6771     6.4420     1.0737 F       
  31 H31            2.3840    -2.2503     0.4827 H       
  32 H32            0.6331    -2.5700     0.4969 H       
  33 H33            0.5720    -2.3449    -1.9718 H       
  34 H34            2.3230    -2.0252    -1.9860 H       
  35 H35            0.9455    -4.4678    -3.7088 H       
  36 H36            2.6965    -4.1481    -3.7229 H       
  37 H37            3.1267    -6.4716    -2.9712 H       
  38 H38            1.3758    -6.7912    -2.9570 H       
  39 H39            0.6750    -7.7255    -8.7866 H       
  40 H40            2.2723    -7.5332    -9.2706 H       
  41 H41            2.1959     3.6323     0.0002 H       
  42 H42            1.2382     5.8336     0.6945 H       
  43 H43            1.7884     6.2292    -1.5343 H       
  44 H44            0.3420     5.3586    -2.1420 H       
  45 H45            0.5190     8.2148    -1.0270 H       
  46 H46           -0.3304     7.6427    -2.5021 H       
  47 H47           -1.7447     8.0002    -0.2244 H       
  48 H48           -2.0493     6.5481    -1.2262 H       
@<TRIPOS>BOND
   1    1    2 1
   2    1    3 2
   3    2    5 2
   4    3    4 1
   5    3   17 1
   6    4    5 1
   7    5    6 1
   8    6    7 1
   9    6   31 1
  10    6   32 1
  11    7    8 1
  12    7   33 1
  13    7   34 1
  14    8    9 1
  15    9   10 1
  16    9   35 1
  17    9   36 1
  18   10   11 1
  19   10   37 1
  20   10   38 1
  21   11   12 2
  22   11   13 1
  23   12   15 1
  24   13   14 1
  25   14   15 2
  26   14   16 1
  27   16   39 1
  28   16   40 1
  29   17   18 am
  30   17   41 1
  31   18   19 2
  32   18   20 1
  33   20   21 1
  34   20   24 1
  35   20   42 1
  36   21   22 1
  37   21   43 1
  38   21   44 1
  39   22   23 1
  40   22   45 1
  41   22   46 1
  42   23   24 1
  43   23   47 1
  44   23   48 1
  45   24   25 am
  46   25   26 1
  47   25   27 2
  48   26   28 1
  49   26   29 1
  50   26   30 1

#	End of record

