#	Name: ASD03731626
#	Creating user name:	WinNT
#	Creation time:	15. 06. 2019 20:46

#	Modifying user name:	WinNT
#	Modification time:	15. 06. 2019 20:46

#	Program:	/corina/corina34_cracker 3.40 0067  02.08.2006

@<TRIPOS>MOLECULE
ASD03731626
  38   39    0    0    0
SMALL
NO_CHARGES


@<TRIPOS>ATOM
   1 C1            -0.1364     1.4671     0.0333 C.2     
   2 C2            -0.0852    -0.0063     0.0191 C.ar    
   3 C3             1.1401    -0.6648    -0.1385 C.ar    
   4 C4             1.1828    -2.0444    -0.1511 C.ar    
   5 C5             0.0129    -2.7784    -0.0083 C.ar    
   6 C6            -1.2080    -2.1271     0.1487 C.ar    
   7 C7            -1.2596    -0.7503     0.1688 C.ar    
   8 O8             0.8868     2.1123    -0.0920 O.2     
   9 N9            -1.3178     2.0990     0.1796 N.am    
  10 S10           -1.3753     3.7539     0.1955 S.o2    
  11 O11           -2.7505     4.0549     0.3893 O.2     
  12 O12           -0.4004     4.1292     1.1587 O.2     
  13 C13           -0.8456     4.2413    -1.4696 C.3     
  14 F14           -2.3431    -2.8466     0.2872 F       
  15 F15            2.2787     0.0488    -0.2784 F       
  16 O16            0.0593    -4.1349    -0.0222 O.3     
  17 C17           -0.1521    -4.7687    -1.2064 C.ar    
  18 C18           -0.0454    -6.1570    -1.2830 C.ar    
  19 C19           -0.2605    -6.8070    -2.4900 C.ar    
  20 C20           -0.5811    -6.0834    -3.6188 C.ar    
  21 C21           -0.6897    -4.6924    -3.5495 C.ar    
  22 C22           -0.4782    -4.0378    -2.3327 C.ar    
  23 O23            0.2702    -6.8746    -0.1737 O.3     
  24 C24            0.3630    -8.2927    -0.3231 C.3     
  25 C25           -1.0221    -3.9392    -4.7212 C.1     
  26 N26           -1.2858    -3.3417    -5.6507 N.1     
  27 H27            2.1275    -2.5536    -0.2726 H       
  28 H28           -2.2065    -0.2464     0.2951 H       
  29 H29           -2.1344     1.5844     0.2755 H       
  30 H30           -1.5278     3.8175    -2.2065 H       
  31 H31           -0.8537     5.3283    -1.5498 H       
  32 H32            0.1630     3.8709    -1.6530 H       
  33 H33           -0.1763    -7.8823    -2.5452 H       
  34 H34           -0.7480    -6.5920    -4.5568 H       
  35 H35           -0.5652    -2.9629    -2.2740 H       
  36 H36           -0.5951    -8.6857    -0.6634 H       
  37 H37            1.1343    -8.5312    -1.0555 H       
  38 H38            0.6206    -8.7429     0.6355 H       
@<TRIPOS>BOND
   1    1    2 1
   2    1    8 2
   3    1    9 am
   4    2    3 ar
   5    2    7 ar
   6    3    4 ar
   7    3   15 1
   8    4    5 ar
   9    4   27 1
  10    5    6 ar
  11    5   16 1
  12    6    7 ar
  13    6   14 1
  14    7   28 1
  15    9   10 am
  16    9   29 1
  17   10   11 2
  18   10   12 2
  19   10   13 1
  20   13   30 1
  21   13   31 1
  22   13   32 1
  23   16   17 1
  24   17   18 ar
  25   17   22 ar
  26   18   19 ar
  27   18   23 1
  28   19   20 ar
  29   19   33 1
  30   20   21 ar
  31   20   34 1
  32   21   22 ar
  33   21   25 1
  34   22   35 1
  35   23   24 1
  36   24   36 1
  37   24   37 1
  38   24   38 1
  39   25   26 3

#	End of record

