#	Name: ASD01913371
#	Creating user name:	WinNT
#	Creation time:	15. 06. 2019 20:01

#	Modifying user name:	WinNT
#	Modification time:	15. 06. 2019 20:01

#	Program:	/corina/corina34_cracker 3.40 0067  02.08.2006

@<TRIPOS>MOLECULE
ASD01913371
  37   39    0    0    0
SMALL
NO_CHARGES


@<TRIPOS>ATOM
   1 C1            -0.0167     1.3789     0.0096 C.2     
   2 C2             0.0021    -0.0041     0.0020 C.2     
   3 C3             1.2506    -0.6673    -0.0135 C.2     
   4 N4             2.3633     0.0254    -0.0204 N.2     
   5 C5             2.3484     1.3645    -0.0130 C.2     
   6 N6             1.1653     2.0483     0.0019 N.pl3   
   7 N7             3.3232     2.2675    -0.0166 N.2     
   8 C8             2.8045     3.4879    -0.0045 C.2     
   9 N9             1.4952     3.4102     0.0071 N.2     
  10 C10           -1.2202    -0.7502     0.0101 C.1     
  11 C11           -2.2222    -1.3619     0.0168 C.1     
  12 C12           -3.4444    -2.1080     0.0249 C.ar    
  13 C13           -3.4142    -3.5068     0.0171 C.ar    
  14 C14           -4.5976    -4.2200     0.0255 C.ar    
  15 C15           -5.8476    -2.1690     0.0548 C.ar    
  16 C16           -4.6729    -1.4427     0.0466 C.ar    
  17 C17           -5.8098    -3.5546     0.0416 C.ar    
  18 C18            3.5984     4.7689    -0.0036 C.3     
  19 C19            5.0931     4.4425    -0.0194 C.3     
  20 C20            3.2426     5.5903    -1.2444 C.3     
  21 C21            3.2656     5.5743     1.2540 C.3     
  22 F22           -2.2309    -4.1585     0.0010 F       
  23 F23           -7.0363    -1.5274     0.0757 F       
  24 H24           -0.9534     1.9164     0.0170 H       
  25 H25            1.2876    -1.7467    -0.0192 H       
  26 H26           -4.5759    -5.2998     0.0192 H       
  27 H27           -4.7037    -0.3632     0.0575 H       
  28 H28           -6.7317    -4.1173     0.0478 H       
  29 H29            5.3303     3.8687    -0.9153 H       
  30 H30            5.6674     5.3690    -0.0188 H       
  31 H31            5.3467     3.8573     0.8645 H       
  32 H32            2.1777     5.8228    -1.2331 H       
  33 H33            3.8168     6.5167    -1.2437 H       
  34 H34            3.4797     5.0165    -2.1403 H       
  35 H35            3.5191     4.9891     2.1379 H       
  36 H36            3.8398     6.5008     1.2546 H       
  37 H37            2.2008     5.8068     1.2653 H       
@<TRIPOS>BOND
   1    1    2 2
   2    1    6 1
   3    1   24 1
   4    2    3 1
   5    2   10 1
   6    3    4 2
   7    3   25 1
   8    4    5 1
   9    5    6 1
  10    5    7 2
  11    6    9 1
  12    7    8 1
  13    8    9 2
  14    8   18 1
  15   10   11 3
  16   11   12 1
  17   12   13 ar
  18   12   16 ar
  19   13   14 ar
  20   13   22 1
  21   14   17 ar
  22   14   26 1
  23   15   16 ar
  24   15   23 1
  25   15   17 ar
  26   16   27 1
  27   17   28 1
  28   18   19 1
  29   18   20 1
  30   18   21 1
  31   19   29 1
  32   19   30 1
  33   19   31 1
  34   20   32 1
  35   20   33 1
  36   20   34 1
  37   21   35 1
  38   21   36 1
  39   21   37 1

#	End of record

