#	Name: ASD01918518
#	Creating user name:	WinNT
#	Creation time:	15. 06. 2019 20:11

#	Modifying user name:	WinNT
#	Modification time:	15. 06. 2019 20:11

#	Program:	/corina/corina34_cracker 3.40 0067  02.08.2006

@<TRIPOS>MOLECULE
ASD01918518
  48   51    0    0    0
SMALL
NO_CHARGES


@<TRIPOS>ATOM
   1 C1            -0.0178     1.4648     0.0101 C.3     
   2 N2             0.0021    -0.0041     0.0020 N.3     
   3 C3            -1.3620    -0.5491     0.0121 C.3     
   4 C4            -1.3578    -1.9661    -0.5766 C.3     
   5 C5            -2.7080    -2.6321    -0.2957 C.3     
   6 C6            -2.8365    -2.9192     1.2041 C.3     
   7 N7            -2.5226    -1.6957     1.9478 N.pl3   
   8 N8            -2.8291    -1.4069     3.2794 N.2     
   9 C9            -2.3735    -0.2090     3.5520 C.2     
  10 C10           -2.4877     0.4986     4.8776 C.3     
  11 O11           -1.8714     1.7846     4.7857 O.3     
  12 C12           -1.8872     2.5577     5.9033 C.ar    
  13 C13           -2.4787     2.0859     7.0661 C.ar    
  14 C14           -2.4931     2.8735     8.2010 C.ar    
  15 C15           -1.9191     4.1312     8.1784 C.ar    
  16 C16           -1.3294     4.6038     7.0206 C.ar    
  17 C17           -1.3069     3.8177     5.8849 C.ar    
  18 C18           -1.7621     0.3006     2.3996 C.2     
  19 C19           -1.8672    -0.6307     1.4314 C.2     
  20 C20            1.3960     1.9864    -0.0006 C.ar    
  21 C21            2.0578     2.2138     1.1915 C.ar    
  22 C22            3.3547     2.6923     1.1817 C.ar    
  23 C23            3.9898     2.9429    -0.0202 C.ar    
  24 C24            3.3283     2.7146    -1.2123 C.ar    
  25 C25            2.0330     2.2321    -1.2026 C.ar    
  26 H26           -0.5450     1.8259    -0.8730 H       
  27 H27           -0.5280     1.8163     0.9069 H       
  28 H28            0.5256    -0.3543    -0.7863 H       
  29 H29           -2.0187     0.0922    -0.5758 H       
  30 H30           -1.1950    -1.9127    -1.6530 H       
  31 H31           -0.5610    -2.5496    -0.1155 H       
  32 H32           -3.5130    -1.9668    -0.6082 H       
  33 H33           -2.7741    -3.5674    -0.8514 H       
  34 H34           -3.8556    -3.2329     1.4300 H       
  35 H35           -2.1385    -3.7075     1.4862 H       
  36 H36           -3.5398     0.6177     5.1365 H       
  37 H37           -1.9883    -0.0894     5.6476 H       
  38 H38           -2.9278     1.1039     7.0841 H       
  39 H39           -2.9534     2.5067     9.1065 H       
  40 H40           -1.9317     4.7455     9.0666 H       
  41 H41           -0.8820     5.5867     7.0054 H       
  42 H42           -0.8423     4.1856     4.9820 H       
  43 H43           -1.2903     1.2674     2.3040 H       
  44 H44            1.5615     2.0181     2.1306 H       
  45 H45            3.8715     2.8707     2.1131 H       
  46 H46            5.0028     3.3174    -0.0279 H       
  47 H47            3.8245     2.9107    -2.1514 H       
  48 H48            1.5175     2.0501    -2.1340 H       
@<TRIPOS>BOND
   1    1    2 1
   2    1   20 1
   3    1   26 1
   4    1   27 1
   5    2    3 1
   6    2   28 1
   7    3   19 1
   8    3    4 1
   9    3   29 1
  10    4    5 1
  11    4   30 1
  12    4   31 1
  13    5    6 1
  14    5   32 1
  15    5   33 1
  16    6    7 1
  17    6   34 1
  18    6   35 1
  19    7   19 1
  20    7    8 1
  21    8    9 2
  22    9   10 1
  23    9   18 1
  24   10   11 1
  25   10   36 1
  26   10   37 1
  27   11   12 1
  28   12   17 ar
  29   12   13 ar
  30   13   14 ar
  31   13   38 1
  32   14   15 ar
  33   14   39 1
  34   15   16 ar
  35   15   40 1
  36   16   17 ar
  37   16   41 1
  38   17   42 1
  39   18   19 2
  40   18   43 1
  41   20   25 ar
  42   20   21 ar
  43   21   22 ar
  44   21   44 1
  45   22   23 ar
  46   22   45 1
  47   23   24 ar
  48   23   46 1
  49   24   25 ar
  50   24   47 1
  51   25   48 1

#	End of record

