#	Name: ASD02408400
#	Creating user name:	WinNT
#	Creation time:	15. 06. 2019 20:21

#	Modifying user name:	WinNT
#	Modification time:	15. 06. 2019 20:21

#	Program:	/corina/corina34_cracker 3.40 0067  02.08.2006

@<TRIPOS>MOLECULE
ASD02408400
  25   26    0    0    0
SMALL
NO_CHARGES


@<TRIPOS>ATOM
   1 C1             0.0033     1.3724    -0.2999 C.2     
   2 C2             0.0108    -0.0147    -0.0201 C.2     
   3 C3             1.3127     1.8244    -0.1516 C.2     
   4 N4             2.0635     0.7571     0.1997 N.pl3   
   5 N5             1.2314    -0.3651     0.2730 N.2     
   6 C6             3.4430     0.7718     0.4477 C.ar    
   7 C7             3.9905     1.7417     1.2759 C.ar    
   8 C8             5.3506     1.7537     1.5185 C.ar    
   9 C9             6.1668     0.8010     0.9374 C.ar    
  10 C10            5.6252    -0.1671     0.1115 C.ar    
  11 C11            4.2648    -0.1882    -0.1307 C.ar    
  12 N12            1.7590     3.1179    -0.3304 N.pl3   
  13 C13           -1.1615     2.1801    -0.6803 C.2     
  14 N14           -2.3744     1.6032    -0.7912 N.am    
  15 O15           -1.0321     3.3708    -0.8954 O.2     
  16 Cl16           3.5852    -1.4039    -1.1670 Cl      
  17 H17           -0.8472    -0.6702    -0.0452 H       
  18 H18            3.3539     2.4866     1.7301 H       
  19 H19            5.7768     2.5085     2.1626 H       
  20 H20            7.2297     0.8131     1.1285 H       
  21 H21            6.2654    -0.9099    -0.3410 H       
  22 H22            1.1232     3.8322    -0.4930 H       
  23 H23            2.7085     3.3128    -0.2936 H       
  24 H24           -2.4776     0.6540    -0.6197 H       
  25 H25           -3.1443     2.1370    -1.0426 H       
@<TRIPOS>BOND
   1    1    2 1
   2    1    3 2
   3    1   13 1
   4    2    5 2
   5    2   17 1
   6    3    4 1
   7    3   12 1
   8    4    5 1
   9    4    6 1
  10    6    7 ar
  11    6   11 ar
  12    7    8 ar
  13    7   18 1
  14    8    9 ar
  15    8   19 1
  16    9   10 ar
  17    9   20 1
  18   10   11 ar
  19   10   21 1
  20   11   16 1
  21   12   22 1
  22   12   23 1
  23   13   14 am
  24   13   15 2
  25   14   24 1
  26   14   25 1

#	End of record

