#	Name: ASD01478125
#	Creating user name:	WinNT
#	Creation time:	15. 06. 2019 19:21

#	Modifying user name:	WinNT
#	Modification time:	15. 06. 2019 19:21

#	Program:	/corina/corina34_cracker 3.40 0067  02.08.2006

@<TRIPOS>MOLECULE
ASD01478125
  25   25    0    0    0
SMALL
NO_CHARGES


@<TRIPOS>ATOM
   1 C1            -0.0187     1.5258     0.0104 C.3     
   2 C2             0.0021    -0.0041     0.0020 C.3     
   3 O3            -0.4954    -0.4941     1.2488 O.3     
   4 C4             0.4451    -1.2831     1.9802 C.3     
   5 C5             0.8023    -0.5705     3.2861 C.3     
   6 O6             2.1262    -0.0407     3.1929 O.3     
   7 C7             2.1901     1.3839     3.2857 C.3     
   8 C8             2.7568     1.9548     1.9843 C.3     
   9 O9             1.7210     2.6329     1.2707 O.3     
  10 C10            1.4167     2.0554    -0.0004 C.3     
  11 O11           -0.7098     1.9991    -1.1473 O.3     
  12 H12           -0.5289     1.8773     0.9072 H       
  13 H13           -0.6261    -0.3715    -0.8095 H       
  14 H14            1.0245    -0.3528    -0.1435 H       
  15 H15            0.0067    -2.2554     2.2050 H       
  16 H16            1.3465    -1.4204     1.3828 H       
  17 H17            0.0973     0.2422     3.4612 H       
  18 H18            0.7520    -1.2795     4.1124 H       
  19 H19            1.1893     1.7824     3.4519 H       
  20 H20            2.8359     1.6652     4.1175 H       
  21 H21            3.5589     2.6563     2.2142 H       
  22 H22            3.1487     1.1430     1.3716 H       
  23 H23            2.1053     1.2345    -0.2007 H       
  24 H24            1.5186     2.8129    -0.7775 H       
  25 H25           -0.7617     2.9629    -1.2077 H       
@<TRIPOS>BOND
   1    1    2 1
   2    1   10 1
   3    1   11 1
   4    1   12 1
   5    2    3 1
   6    2   13 1
   7    2   14 1
   8    3    4 1
   9    4    5 1
  10    4   15 1
  11    4   16 1
  12    5    6 1
  13    5   17 1
  14    5   18 1
  15    6    7 1
  16    7    8 1
  17    7   19 1
  18    7   20 1
  19    8    9 1
  20    8   21 1
  21    8   22 1
  22    9   10 1
  23   10   23 1
  24   10   24 1
  25   11   25 1

#	End of record

