#	Name: ASD03730942
#	Creating user name:	WinNT
#	Creation time:	15. 06. 2019 20:44

#	Modifying user name:	WinNT
#	Modification time:	15. 06. 2019 20:44

#	Program:	/corina/corina34_cracker 3.40 0067  02.08.2006

@<TRIPOS>MOLECULE
ASD03730942
  66   73    0    0    0
SMALL
NO_CHARGES


@<TRIPOS>ATOM
   1 C1            -0.0181     1.4736     0.0142 C.2     
   2 C2             0.0015    -0.0044     0.0109 C.ar    
   3 C3             1.2180    -0.6894    -0.0002 C.ar    
   4 C4             1.2293    -2.0687    -0.0027 C.ar    
   5 C5             0.0384    -2.7734     0.0053 C.ar    
   6 C6            -1.1705    -2.1009     0.0163 C.ar    
   7 C7            -1.1959    -0.7214     0.0248 C.ar    
   8 O8             1.0264     2.0954     0.0072 O.2     
   9 N9            -1.1942     2.1319     0.0193 N.am    
  10 C10            2.5414    -2.8098    -0.0147 C.3     
  11 O11           -0.9065    -3.3019     6.2751 O.3     
  12 C12           -0.9496    -3.5517     7.6924 C.3     
  13 O13           -0.0450    -4.6572     7.8727 O.3     
  14 C14            0.8543    -4.5647     6.8492 C.ar    
  15 C15            0.3235    -3.7320     5.8667 C.ar    
  16 C16            2.1037    -5.1321     6.6740 C.ar    
  17 C17            2.8375    -4.8787     5.5190 C.ar    
  18 C18            2.2932    -4.0519     4.5410 C.ar    
  19 C19            1.0504    -3.4797     4.7154 C.ar    
  20 O20            4.0781    -5.3176     5.1604 O.3     
  21 C21            3.2965    -3.9955     3.4201 C.3     
  22 C22            4.2456    -5.1588     3.7384 C.3     
  23 N23            2.9778    -3.0524     1.3626 N.am    
  24 C24            2.6524    -4.1510     2.0727 C.2     
  25 C25            4.0192    -2.6822     3.3664 C.ar    
  26 C26            4.7899    -1.9828     4.2681 C.ar    
  27 C27            5.3364    -0.7625     3.9126 C.ar    
  28 C28            5.1062    -0.2468     2.6502 C.ar    
  29 C29            4.3341    -0.9431     1.7438 C.ar    
  30 C30            3.7804    -2.1724     2.0928 C.ar    
  31 O31            1.9729    -5.0826     1.6967 O.2     
  32 C32           -1.0594     7.7617     0.6402 C.3     
  33 C33            0.3775     7.8833     1.1901 C.3     
  34 C34            0.6183     6.4862     1.8003 C.3     
  35 C35           -0.2879     5.5538     1.0249 C.ar    
  36 C36           -0.2688     4.1747     0.9128 C.ar    
  37 C37           -1.2149     3.5256     0.1325 C.ar    
  38 C38           -2.1824     4.2648    -0.5362 C.ar    
  39 C39           -2.1978     5.6395    -0.4212 C.ar    
  40 C40           -1.2523     6.2868     0.3580 C.ar    
  41 H41            2.1481    -0.1405    -0.0071 H       
  42 H42            0.0527    -3.8533     0.0026 H       
  43 H43           -2.0964    -2.6569     0.0225 H       
  44 H44           -2.1402    -0.1975     0.0378 H       
  45 H45           -2.0262     1.6389    -0.0556 H       
  46 H46            2.4159    -3.7625    -0.5292 H       
  47 H47            3.2912    -2.2126    -0.5335 H       
  48 H48           -0.6030    -2.6790     8.2458 H       
  49 H49           -1.9577    -3.8273     8.0022 H       
  50 H50            2.5124    -5.7760     7.4387 H       
  51 H51            0.6429    -2.8336     3.9519 H       
  52 H52            5.2754    -4.8954     3.4970 H       
  53 H53            3.9417    -6.0621     3.2095 H       
  54 H54            4.9682    -2.3874     5.2534 H       
  55 H55            5.9416    -0.2141     4.6193 H       
  56 H56            5.5327     0.7059     2.3728 H       
  57 H57            4.1584    -0.5336     0.7600 H       
  58 H58           -1.7793     8.1016     1.3848 H       
  59 H59           -1.1630     8.3392    -0.2784 H       
  60 H60            1.0850     8.0816     0.3850 H       
  61 H61            0.4349     8.6560     1.9568 H       
  62 H62            1.6604     6.1927     1.6738 H       
  63 H63            0.3492     6.4834     2.8566 H       
  64 H64            0.4847     3.6023     1.4334 H       
  65 H65           -2.9208     3.7643    -1.1451 H       
  66 H66           -2.9501     6.2139    -0.9412 H       
@<TRIPOS>BOND
   1    1    2 1
   2    1    8 2
   3    1    9 am
   4    2    3 ar
   5    2    7 ar
   6    3    4 ar
   7    3   41 1
   8    4    5 ar
   9    4   10 1
  10    5    6 ar
  11    5   42 1
  12    6    7 ar
  13    6   43 1
  14    7   44 1
  15    9   37 1
  16    9   45 1
  17   10   23 1
  18   10   46 1
  19   10   47 1
  20   11   12 1
  21   11   15 1
  22   12   13 1
  23   12   48 1
  24   12   49 1
  25   13   14 1
  26   14   15 ar
  27   14   16 ar
  28   15   19 ar
  29   16   17 ar
  30   16   50 1
  31   17   18 ar
  32   17   20 1
  33   18   19 ar
  34   18   21 1
  35   19   51 1
  36   20   22 1
  37   21   22 1
  38   21   24 1
  39   21   25 1
  40   22   52 1
  41   22   53 1
  42   23   24 am
  43   23   30 1
  44   24   31 2
  45   25   26 ar
  46   25   30 ar
  47   26   27 ar
  48   26   54 1
  49   27   28 ar
  50   27   55 1
  51   28   29 ar
  52   28   56 1
  53   29   30 ar
  54   29   57 1
  55   32   33 1
  56   32   40 1
  57   32   58 1
  58   32   59 1
  59   33   34 1
  60   33   60 1
  61   33   61 1
  62   34   35 1
  63   34   62 1
  64   34   63 1
  65   35   36 ar
  66   35   40 ar
  67   36   37 ar
  68   36   64 1
  69   37   38 ar
  70   38   39 ar
  71   38   65 1
  72   39   40 ar
  73   39   66 1

#	End of record

