#	Name: ASD01811261
#	Creating user name:	WinNT
#	Creation time:	15. 06. 2019 19:26

#	Modifying user name:	WinNT
#	Modification time:	15. 06. 2019 19:26

#	Program:	/corina/corina34_cracker 3.40 0067  02.08.2006

@<TRIPOS>MOLECULE
ASD01811261
  55   58    0    0    0
SMALL
NO_CHARGES


@<TRIPOS>ATOM
   1 C1            -0.0421    -0.0202    -0.0672 C.1     
   2 C2            -0.0544     1.4115    -0.0442 C.ar    
   3 C3             1.1469     2.1231    -0.0311 C.ar    
   4 C4             1.1277     3.5023    -0.0089 C.ar    
   5 C5            -0.0783     4.1805     0.0007 C.ar    
   6 C6            -1.2724     3.4816    -0.0118 C.ar    
   7 C7            -1.2678     2.1025    -0.0408 C.ar    
   8 N8            -0.0323    -1.1561    -0.0854 N.1     
   9 N9            -1.3619     8.2139     0.0660 N.am    
  10 C10           -0.7965     7.7430    -1.2058 C.3     
  11 C11           -0.8155     6.2113    -1.2168 C.3     
  12 C12           -0.0912     5.6872     0.0254 C.3     
  13 C13           -0.8172     6.1703     1.2831 C.3     
  14 C14           -0.7982     7.7016     1.3224 C.3     
  15 C15           -2.3745     9.1031     0.0799 C.2     
  16 C16           -2.9944     9.4968     1.3620 C.ar    
  17 C17           -4.3726     9.3546     1.5458 C.ar    
  18 C18           -4.9537     9.7217     2.7413 C.ar    
  19 C19           -4.1769    10.2328     3.7669 C.ar    
  20 C20           -2.7966    10.3798     3.5949 C.ar    
  21 C21           -2.2049    10.0052     2.3919 C.ar    
  22 O22           -2.7779     9.5813    -0.9624 O.2     
  23 C23           -5.2257     8.7991     0.4346 C.3     
  24 F24           -4.7529    10.5904     4.9355 F       
  25 N25           -0.2792    11.6083     5.7897 N.2     
  26 N26           -0.6667    11.1185     4.6662 N.2     
  27 C27           -1.9669    10.9269     4.6906 C.2     
  28 N28           -2.4074    11.3300     5.9221 N.pl3   
  29 C29           -1.3005    11.7566     6.5899 C.2     
  30 C30           -1.2611    12.3008     7.9947 C.3     
  31 C31           -0.2596    11.4959     8.8255 C.3     
  32 H32            2.0889     1.5949    -0.0378 H       
  33 H33            2.0561     4.0539     0.0013 H       
  34 H34           -2.2102     4.0173    -0.0038 H       
  35 H35           -2.2006     1.5583    -0.0554 H       
  36 H36           -1.3951     8.1218    -2.0343 H       
  37 H37            0.2301     8.0964    -1.3024 H       
  38 H38           -1.8474     5.8602    -1.2114 H       
  39 H39           -0.3116     5.8476    -2.1123 H       
  40 H40            0.9333     6.0591     0.0323 H       
  41 H41           -1.8491     5.8196     1.2649 H       
  42 H42           -0.3144     5.7774     2.1668 H       
  43 H43            0.2283     8.0516     1.4319 H       
  44 H44           -1.3978     8.0530     2.1620 H       
  45 H45           -6.0193     9.6104     2.8778 H       
  46 H46           -1.1389    10.1122     2.2556 H       
  47 H47           -5.2108     7.7100     0.4749 H       
  48 H48           -6.2500     9.1531     0.5513 H       
  49 H49           -4.8333     9.1325    -0.5261 H       
  50 H50           -3.3197    11.3146     6.2512 H       
  51 H51           -0.9556    13.3468     7.9708 H       
  52 H52           -2.2515    12.2217     8.4429 H       
  53 H53           -0.5651    10.4498     8.8494 H       
  54 H54            0.7308    11.5750     8.3773 H       
  55 H55           -0.2311    11.8894     9.8415 H       
@<TRIPOS>BOND
   1    1    2 1
   2    1    8 3
   3    2    3 ar
   4    2    7 ar
   5    3    4 ar
   6    3   32 1
   7    4    5 ar
   8    4   33 1
   9    5    6 ar
  10    5   12 1
  11    6    7 ar
  12    6   34 1
  13    7   35 1
  14    9   10 1
  15    9   14 1
  16    9   15 am
  17   10   11 1
  18   10   36 1
  19   10   37 1
  20   11   12 1
  21   11   38 1
  22   11   39 1
  23   12   13 1
  24   12   40 1
  25   13   14 1
  26   13   41 1
  27   13   42 1
  28   14   43 1
  29   14   44 1
  30   15   16 1
  31   15   22 2
  32   16   17 ar
  33   16   21 ar
  34   17   18 ar
  35   17   23 1
  36   18   19 ar
  37   18   45 1
  38   19   20 ar
  39   19   24 1
  40   20   21 ar
  41   20   27 1
  42   21   46 1
  43   23   47 1
  44   23   48 1
  45   23   49 1
  46   25   26 1
  47   25   29 2
  48   26   27 2
  49   27   28 1
  50   28   29 1
  51   28   50 1
  52   29   30 1
  53   30   31 1
  54   30   51 1
  55   30   52 1
  56   31   53 1
  57   31   54 1
  58   31   55 1

#	End of record

