#	Name: ASD01811033
#	Creating user name:	WinNT
#	Creation time:	15. 06. 2019 19:25

#	Modifying user name:	WinNT
#	Modification time:	15. 06. 2019 19:25

#	Program:	/corina/corina34_cracker 3.40 0067  02.08.2006

@<TRIPOS>MOLECULE
ASD01811033
  43   45    0    0    0
SMALL
NO_CHARGES


@<TRIPOS>ATOM
   1 C1            -0.0169     1.3972     0.0097 C.2     
   2 C2             0.0021    -0.0041     0.0020 C.2     
   3 C3             1.1986    -0.6593    -0.0130 C.2     
   4 C4             2.3918     0.0821    -0.0204 C.2     
   5 N5             2.3437     1.4497    -0.0116 N.am    
   6 C6             1.1421     2.0936     0.0024 C.2     
   7 C7             3.4812     2.1736    -0.0181 C.2     
   8 C8             3.6227    -0.5889    -0.0357 C.2     
   9 C9             4.7345     1.5280    -0.0345 C.2     
  10 C10            5.9702     2.3140    -0.0408 C.2     
  11 C11            4.7877     0.1218    -0.0426 C.2     
  12 O12            3.4258     3.3917    -0.0101 O.2     
  13 O13            5.9124     3.6617    -0.0309 O.3     
  14 O14            7.0487     1.7516    -0.0549 O.2     
  15 C15            3.6594    -2.0954    -0.0441 C.3     
  16 N16            3.7788    -2.5746    -1.4276 N.3     
  17 C17            4.0548    -4.0165    -1.4631 C.3     
  18 C18            4.8038    -1.8195    -2.1595 C.3     
  19 C19            4.7995    -2.2442    -3.6297 C.3     
  20 C20            5.0817    -3.7463    -3.7229 C.3     
  21 C21            4.0282    -4.5067    -2.9126 C.3     
  22 C22            5.0186    -4.1886    -5.1862 C.3     
  23 C23            6.4198    -4.0301    -3.1791 C.1     
  24 N24            7.4525    -4.2491    -2.7595 N.1     
  25 H25           -0.9605     1.9226     0.0170 H       
  26 H26           -0.9233    -0.5609     0.0082 H       
  27 H27            1.2282    -1.7389    -0.0187 H       
  28 H28            1.1156     3.1733     0.0093 H       
  29 H29            5.7393    -0.3889    -0.0551 H       
  30 H30            6.7544     4.1373    -0.0356 H       
  31 H31            4.5153    -2.4413     0.5353 H       
  32 H32            2.7413    -2.4836     0.3969 H       
  33 H33            5.0376    -4.2088    -1.0327 H       
  34 H34            3.2961    -4.5458    -0.8867 H       
  35 H35            4.5890    -0.7532    -2.0888 H       
  36 H36            5.7830    -2.0221    -1.7257 H       
  37 H37            3.8249    -2.0291    -4.0678 H       
  38 H38            5.5710    -1.6949    -4.1694 H       
  39 H39            4.2486    -5.5738    -2.9399 H       
  40 H40            3.0415    -4.3272    -3.3394 H       
  41 H41            5.7650    -3.6427    -5.7633 H       
  42 H42            5.2196    -5.2579    -5.2515 H       
  43 H43            4.0263    -3.9802    -5.5863 H       
@<TRIPOS>BOND
   1    1    2 1
   2    1    6 2
   3    1   25 1
   4    2    3 2
   5    2   26 1
   6    3    4 1
   7    3   27 1
   8    4    5 1
   9    4    8 2
  10    5    6 1
  11    5    7 am
  12    6   28 1
  13    7    9 1
  14    7   12 2
  15    8   15 1
  16    8   11 1
  17    9   10 1
  18    9   11 2
  19   10   13 1
  20   10   14 2
  21   11   29 1
  22   13   30 1
  23   15   16 1
  24   15   31 1
  25   15   32 1
  26   16   17 1
  27   16   18 1
  28   17   21 1
  29   17   33 1
  30   17   34 1
  31   18   19 1
  32   18   35 1
  33   18   36 1
  34   19   20 1
  35   19   37 1
  36   19   38 1
  37   20   21 1
  38   20   22 1
  39   20   23 1
  40   21   39 1
  41   21   40 1
  42   22   41 1
  43   22   42 1
  44   22   43 1
  45   23   24 3

#	End of record

