#	Name: ASD00180007
#	Creating user name:	WinNT
#	Creation time:	15. 06. 2019 18:33

#	Modifying user name:	WinNT
#	Modification time:	15. 06. 2019 18:33

#	Program:	/corina/corina34_cracker 3.40 0067  02.08.2006

@<TRIPOS>MOLECULE
ASD00180007
  39   40    0    0    0
SMALL
NO_CHARGES


@<TRIPOS>ATOM
   1 N1             1.2247    -0.8479    -0.1146 N.pl3   
   2 C2             0.0450    -0.1435    -0.0737 C.2     
   3 N3             0.0647     1.1536     0.0391 N.2     
   4 N4            -1.1605    -0.8111    -0.1522 N.am    
   5 C5            -2.3166    -0.1340    -0.0062 C.2     
   6 O6            -2.2973     1.0454     0.2891 O.2     
   7 C7            -3.6035    -0.8225    -0.2044 C.ar    
   8 N8            -3.6316    -2.1393    -0.4126 N.ar    
   9 C9            -4.7803    -2.7541    -0.5891 C.ar    
  10 Cl10          -4.8116    -4.4685    -0.8598 Cl      
  11 C11           -5.9790    -2.0300    -0.5589 C.ar    
  12 N12           -5.9606    -0.7197    -0.3524 N.ar    
  13 C13           -4.8041    -0.0944    -0.1687 C.ar    
  14 N14           -4.7807     1.2713     0.0469 N.pl3   
  15 N15           -7.1849    -2.6829    -0.7453 N.3     
  16 C16           -8.0570    -2.4379     0.3192 C.3     
  17 C17           -9.3151    -3.3304     0.2461 C.3     
  18 C18          -10.2547    -2.7713    -0.7918 C.3     
  19 C19          -10.0480    -3.4056    -2.1816 C.3     
  20 C20           -8.5574    -3.5846    -2.5166 C.3     
  21 C21           -7.7428    -2.3924    -2.0810 C.3     
  22 H22            2.0714    -0.3751    -0.1327 H       
  23 H23            1.2104    -1.8178    -0.1213 H       
  24 H24            0.9119     1.6228     0.0943 H       
  25 H25           -1.1756    -1.7677    -0.3125 H       
  26 H26           -5.6007     1.7860    -0.0136 H       
  27 H27           -3.9443     1.7147     0.2586 H       
  28 H28           -7.5367    -2.6334     1.2569 H       
  29 H29           -8.3618    -1.3916     0.2952 H       
  30 H30           -9.0272    -4.3445    -0.0312 H       
  31 H31           -9.8101    -3.3432     1.2171 H       
  32 H32          -11.2809    -2.9514    -0.4715 H       
  33 H33          -10.0954    -1.6957    -0.8682 H       
  34 H34          -10.5356    -4.3803    -2.2026 H       
  35 H35          -10.5063    -2.7653    -2.9353 H       
  36 H36           -8.1835    -4.4749    -2.0108 H       
  37 H37           -8.4479    -3.7162    -3.5931 H       
  38 H38           -8.3803    -1.5098    -2.0298 H       
  39 H39           -6.9323    -2.2215    -2.7894 H       
@<TRIPOS>BOND
   1    1    2 1
   2    1   22 1
   3    1   23 1
   4    2    3 2
   5    2    4 1
   6    3   24 1
   7    4    5 am
   8    4   25 1
   9    5    6 2
  10    5    7 1
  11    7    8 ar
  12    7   13 ar
  13    8    9 ar
  14    9   10 1
  15    9   11 ar
  16   11   12 ar
  17   11   15 1
  18   12   13 ar
  19   13   14 1
  20   14   26 1
  21   14   27 1
  22   15   16 1
  23   15   21 1
  24   16   17 1
  25   16   28 1
  26   16   29 1
  27   17   18 1
  28   17   30 1
  29   17   31 1
  30   18   19 1
  31   18   32 1
  32   18   33 1
  33   19   20 1
  34   19   34 1
  35   19   35 1
  36   20   21 1
  37   20   36 1
  38   20   37 1
  39   21   38 1
  40   21   39 1

#	End of record

