#	Name: ASD03090665
#	Creating user name:	WinNT
#	Creation time:	15. 06. 2019 20:29

#	Modifying user name:	WinNT
#	Modification time:	15. 06. 2019 20:29

#	Program:	/corina/corina34_cracker 3.40 0067  02.08.2006

@<TRIPOS>MOLECULE
ASD03090665
  34   35    0    0    0
SMALL
NO_CHARGES


@<TRIPOS>ATOM
   1 N1            -0.0162     1.3436     0.0094 N.am    
   2 C2            -1.0255     1.8180    -0.7474 C.2     
   3 O3            -0.8933     2.8661    -1.3493 O.2     
   4 N4            -2.1813     1.1305    -0.8371 N.am    
   5 O5            -3.2240     2.7527    -2.3343 O.3     
   6 N6            -4.2761     2.9090    -2.9090 N.2     
   7 C7            -5.1082     1.9347    -2.6698 C.2     
   8 C8            -4.4432     1.0424    -1.8051 C.2     
   9 C9            -3.2199     1.6187    -1.6159 C.2     
  10 C10           -6.5074     1.7910    -3.2110 C.3     
  11 F11           -6.7628     2.8209    -4.1227 F       
  12 F12           -6.6335     0.5558    -3.8555 F       
  13 F13           -7.4247     1.8630    -2.1571 F       
  14 C14            1.2186     2.0060     0.0258 C.ar    
  15 C15            1.2648     3.3912    -0.0569 C.ar    
  16 C16            2.4819     4.0434    -0.0402 C.ar    
  17 C17            3.6582     3.3149     0.0587 C.ar    
  18 C18            3.6128     1.9309     0.1409 C.ar    
  19 C19            2.3960     1.2778     0.1305 C.ar    
  20 O20            4.8563     3.9577     0.0746 O.3     
  21 C21            6.0272     3.1450     0.1784 C.3     
  22 C22            7.2694     4.0383     0.1810 C.3     
  23 H23           -0.1458     0.5458     0.5459 H       
  24 H24           -2.2867     0.2943    -0.3569 H       
  25 H25           -4.8149     0.1180    -1.3885 H       
  26 H26            0.3490     3.9584    -0.1346 H       
  27 H27            2.5179     5.1208    -0.1045 H       
  28 H28            4.5290     1.3643     0.2175 H       
  29 H29            2.3606     0.2006     0.1990 H       
  30 H30            5.9903     2.5713     1.1044 H       
  31 H31            6.0722     2.4626    -0.6703 H       
  32 H32            8.1625     3.4184     0.2602 H       
  33 H33            7.3062     4.6121    -0.7450 H       
  34 H34            7.2243     4.7207     1.0297 H       
@<TRIPOS>BOND
   1    1    2 am
   2    1   14 1
   3    1   23 1
   4    2    3 2
   5    2    4 am
   6    4    9 1
   7    4   24 1
   8    5    6 1
   9    5    9 1
  10    6    7 2
  11    7    8 1
  12    7   10 1
  13    8    9 2
  14    8   25 1
  15   10   11 1
  16   10   12 1
  17   10   13 1
  18   14   15 ar
  19   14   19 ar
  20   15   16 ar
  21   15   26 1
  22   16   17 ar
  23   16   27 1
  24   17   18 ar
  25   17   20 1
  26   18   19 ar
  27   18   28 1
  28   19   29 1
  29   20   21 1
  30   21   22 1
  31   21   30 1
  32   21   31 1
  33   22   32 1
  34   22   33 1
  35   22   34 1

#	End of record

