#	Name: ASD04882251
#	Creating user name:	WinNT
#	Creation time:	15. 06. 2019 20:54

#	Modifying user name:	WinNT
#	Modification time:	15. 06. 2019 20:54

#	Program:	/corina/corina34_cracker 3.40 0067  02.08.2006

@<TRIPOS>MOLECULE
ASD04882251
  77   81    0    0    0
SMALL
NO_CHARGES


@<TRIPOS>ATOM
   1 N1            -0.1363     1.5551    -0.0363 N.am    
   2 C2            -0.0765     0.1555    -0.0459 C.ar    
   3 C3            -1.2529    -0.5954     0.0294 C.ar    
   4 C4            -1.1950    -1.9843     0.0200 C.ar    
   5 C5             0.0210    -2.6254    -0.0639 C.ar    
   6 C6             1.2013    -1.8806    -0.1399 C.ar    
   7 C7             1.1456    -0.4840    -0.1354 C.ar    
   8 N8            -2.4846     0.0486     0.1143 N.3     
   9 C9            -2.6116     0.7769     1.3844 C.3     
  10 C10           -3.5901    -0.9045    -0.0558 C.3     
  11 C11           -4.9203    -0.1478    -0.0356 C.3     
  12 N12           -5.0473     0.5805     1.2345 N.3     
  13 C13           -3.9418     1.5336     1.4046 C.3     
  14 C14            2.5038    -2.5676    -0.2291 C.2     
  15 O15            3.5301    -1.9188    -0.2952 O.2     
  16 N16            2.5562    -3.9143    -0.2375 N.am    
  17 C17           -6.2828     1.2265     1.3197 C.ar    
  18 C18           -6.6348     2.1825     0.3758 C.ar    
  19 C19           -7.1646     0.9101     2.3456 C.ar    
  20 C20           -8.3852     1.5506     2.4269 C.ar    
  21 C21           -8.7304     2.5060     1.4883 C.ar    
  22 C22           -7.8574     2.8195     0.4630 C.ar    
  23 C23            3.8496    -4.5966    -0.3262 C.3     
  24 C24            3.6293    -6.1106    -0.3169 C.3     
  25 C25            4.9801    -6.8231    -0.4095 C.3     
  26 N26            4.7692    -8.2728    -0.4007 N.am    
  27 C27            0.8455     2.2676     0.5511 C.2     
  28 C28            0.8485     3.7306     0.4536 C.2     
  29 C29            4.5694    -9.0879    -1.6047 C.3     
  30 C30            3.9673   -10.4200    -1.1053 C.3     
  31 C31            4.4879   -10.4755     0.3496 C.3     
  32 C32            4.7395    -9.0281     0.7108 C.2     
  33 O33            4.8857    -8.6092     1.8395 O.2     
  34 O34            1.7295     1.6965     1.1625 O.2     
  35 C35            1.7783     4.5692     0.9987 C.2     
  36 O36           -0.0634     4.4838    -0.1954 O.3     
  37 C37            0.2600     5.7777    -0.0723 C.2     
  38 C38            1.3922     5.8752     0.6589 C.2     
  39 C39           -0.5096     6.9341    -0.6567 C.3     
  40 C40           -6.7897    -0.1315     3.3682 C.3     
  41 F41           -7.8305    -0.2737     4.2922 F       
  42 F42           -6.5647    -1.3545     2.7273 F       
  43 F43           -5.6258     0.2669     4.0345 F       
  44 H44           -0.8822     2.0115    -0.4560 H       
  45 H45           -2.1057    -2.5620     0.0790 H       
  46 H46            0.0627    -3.7046    -0.0706 H       
  47 H47            2.0559     0.0941    -0.1944 H       
  48 H48           -2.5829     0.0698     2.2135 H       
  49 H49           -1.7888     1.4851     1.4814 H       
  50 H50           -3.4806    -1.4221    -1.0088 H       
  51 H51           -3.5725    -1.6307     0.7569 H       
  52 H52           -4.9490     0.5593    -0.8646 H       
  53 H53           -5.7431    -0.8560    -0.1325 H       
  54 H54           -4.0513     2.0512     2.3576 H       
  55 H55           -3.9594     2.2598     0.5919 H       
  56 H56            1.7375    -4.4319    -0.1848 H       
  57 H57           -5.9534     2.4279    -0.4253 H       
  58 H58           -9.0711     1.3051     3.2241 H       
  59 H59           -9.6860     3.0050     1.5538 H       
  60 H60           -8.1300     3.5660    -0.2683 H       
  61 H61            4.3500    -4.3078    -1.2504 H       
  62 H62            4.4684    -4.3142     0.5256 H       
  63 H63            3.1288    -6.3993     0.6073 H       
  64 H64            3.0105    -6.3929    -1.1687 H       
  65 H65            5.4806    -6.5343    -1.3338 H       
  66 H66            5.5989    -6.5407     0.4422 H       
  67 H67            3.8767    -8.5924    -2.2850 H       
  68 H68            5.5230    -9.2676    -2.1011 H       
  69 H69            2.8780   -10.3888    -1.1289 H       
  70 H70            4.3446   -11.2610    -1.6871 H       
  71 H71            3.7357   -10.9106     1.0076 H       
  72 H72            5.4162   -11.0445     0.4011 H       
  73 H73            2.6428     4.2830     1.5792 H       
  74 H74            1.9039     6.7867     0.9307 H       
  75 H75           -1.3766     6.5566    -1.1988 H       
  76 H76           -0.8414     7.5925     0.1461 H       
  77 H77            0.1326     7.4897    -1.3401 H       
@<TRIPOS>BOND
   1    1    2 1
   2    1   27 am
   3    1   44 1
   4    2    3 ar
   5    2    7 ar
   6    3    4 ar
   7    3    8 1
   8    4    5 ar
   9    4   45 1
  10    5    6 ar
  11    5   46 1
  12    6    7 ar
  13    6   14 1
  14    7   47 1
  15    8    9 1
  16    8   10 1
  17    9   13 1
  18    9   48 1
  19    9   49 1
  20   10   11 1
  21   10   50 1
  22   10   51 1
  23   11   12 1
  24   11   52 1
  25   11   53 1
  26   12   13 1
  27   12   17 1
  28   13   54 1
  29   13   55 1
  30   14   15 2
  31   14   16 am
  32   16   23 1
  33   16   56 1
  34   17   18 ar
  35   17   19 ar
  36   18   22 ar
  37   18   57 1
  38   19   20 ar
  39   19   40 1
  40   20   21 ar
  41   20   58 1
  42   21   22 ar
  43   21   59 1
  44   22   60 1
  45   23   24 1
  46   23   61 1
  47   23   62 1
  48   24   25 1
  49   24   63 1
  50   24   64 1
  51   25   26 1
  52   25   65 1
  53   25   66 1
  54   26   29 1
  55   26   32 am
  56   27   34 2
  57   27   28 1
  58   28   35 2
  59   28   36 1
  60   29   30 1
  61   29   67 1
  62   29   68 1
  63   30   31 1
  64   30   69 1
  65   30   70 1
  66   31   32 1
  67   31   71 1
  68   31   72 1
  69   32   33 2
  70   35   38 1
  71   35   73 1
  72   36   37 1
  73   37   38 2
  74   37   39 1
  75   38   74 1
  76   39   75 1
  77   39   76 1
  78   39   77 1
  79   40   41 1
  80   40   42 1
  81   40   43 1

#	End of record

