#	Name: ASD02770091
#	Creating user name:	WinNT
#	Creation time:	15. 06. 2019 20:26

#	Modifying user name:	WinNT
#	Modification time:	15. 06. 2019 20:26

#	Program:	/corina/corina34_cracker 3.40 0067  02.08.2006

@<TRIPOS>MOLECULE
ASD02770091
  25   26    0    0    0
SMALL
NO_CHARGES


@<TRIPOS>ATOM
   1 N1            -0.0157     1.3089     0.0092 N.2     
   2 C2             0.0021    -0.0041     0.0020 C.2     
   3 C3             1.2865    -0.7240    -0.0136 C.2     
   4 N4             2.4367    -0.0153    -0.0208 N.am    
   5 C5             2.3742     1.3620    -0.0133 C.ar    
   6 C6             3.5432     2.1175    -0.0208 C.ar    
   7 C7             3.4712     3.4930    -0.0137 C.ar    
   8 C8             2.2390     4.1371     0.0015 C.ar    
   9 C9             1.0797     3.4214     0.0092 C.ar    
  10 C10            1.1227     2.0144     0.0022 C.ar    
  11 C11           -1.2676    -0.7596     0.0101 C.2     
  12 O12           -1.2517    -1.9746     0.0034 O.2     
  13 N13           -2.4435    -0.1012     0.0248 N.am    
  14 O14            1.3116    -1.9409    -0.0196 O.2     
  15 C15           -3.6017    -0.7904     0.0322 C.2     
  16 O16           -3.5857    -2.0057     0.0255 O.2     
  17 N17           -4.7776    -0.1320     0.0469 N.am    
  18 H18            3.2941    -0.4690    -0.0308 H       
  19 H19            4.5049     1.6261    -0.0319 H       
  20 H20            4.3800     4.0765    -0.0196 H       
  21 H21            2.2005     5.2164     0.0076 H       
  22 H22            0.1286     3.9330     0.0213 H       
  23 H23           -2.4562     0.8687     0.0302 H       
  24 H24           -4.7903     0.8379     0.0523 H       
  25 H25           -5.6112    -0.6280     0.0522 H       
@<TRIPOS>BOND
   1    1    2 2
   2    1   10 1
   3    2    3 1
   4    2   11 1
   5    3    4 am
   6    3   14 2
   7    4    5 1
   8    4   18 1
   9    5    6 ar
  10    5   10 ar
  11    6    7 ar
  12    6   19 1
  13    7    8 ar
  14    7   20 1
  15    8    9 ar
  16    8   21 1
  17    9   10 ar
  18    9   22 1
  19   11   12 2
  20   11   13 am
  21   13   15 am
  22   13   23 1
  23   15   16 2
  24   15   17 am
  25   17   24 1
  26   17   25 1

#	End of record

