#	Name: ASD04910516
#	Creating user name:	WinNT
#	Creation time:	15. 06. 2019 20:56

#	Modifying user name:	WinNT
#	Modification time:	15. 06. 2019 20:56

#	Program:	/corina/corina34_cracker 3.40 0067  02.08.2006

@<TRIPOS>MOLECULE
ASD04910516
  54   56    0    0    0
SMALL
NO_CHARGES


@<TRIPOS>ATOM
   1 C1            -0.0180     1.4730     0.0101 C.2     
   2 C2             0.0021    -0.0041     0.0020 C.ar    
   3 C3             1.2188    -0.6888    -0.0133 C.ar    
   4 C4             1.2303    -2.0682    -0.0203 C.ar    
   5 C5             0.0396    -2.7731    -0.0127 C.ar    
   6 C6            -1.1697    -2.1009     0.0020 C.ar    
   7 C7            -1.1956    -0.7217     0.0154 C.ar    
   8 O8             1.0256     2.0946     0.0035 O.2     
   9 O9            -1.1936     2.1307     0.0193 O.3     
  10 C10            0.0601    -4.2800    -0.0210 C.3     
  11 C11           -0.1699    -4.8009     1.3991 C.3     
  12 C12           -0.0255    -6.3241     1.4132 C.3     
  13 C13           -0.2555    -6.8450     2.8333 C.3     
  14 N14           -0.9997    -4.7779    -0.9014 N.pl3   
  15 C15            0.2317    -6.8308    -1.2460 C.ar    
  16 C16           -0.8838    -6.0411    -1.4899 C.ar    
  17 C17           -1.8867    -6.5237    -2.3284 C.ar    
  18 C18           -1.7295    -7.7794    -2.8882 C.ar    
  19 C19           -0.5856    -8.5120    -2.5981 C.ar    
  20 N20            0.3470    -8.0228    -1.7973 N.ar    
  21 N21           -0.4176    -9.7830    -3.1596 N.pl3   
  22 N22           -1.3133   -10.4298    -4.0210 N.2     
  23 C23           -0.8112   -11.5971    -4.3331 C.2     
  24 C24            0.4200   -11.7355    -3.6829 C.2     
  25 C25            0.6454   -10.6069    -2.9711 C.2     
  26 C26            1.3364   -12.9290    -3.7651 C.3     
  27 F27            0.7683   -13.8963    -4.6012 F       
  28 F28            2.5734   -12.5323    -4.2843 F       
  29 F29            1.5180   -13.4665    -2.4863 F       
  30 F30           -1.5423    -6.4946     3.2559 F       
  31 F31           -0.1234    -8.2377     2.8462 F       
  32 F32            0.6890    -6.2790     3.6963 F       
  33 C33           -1.1373     3.5816     0.0269 C.3     
  34 C34           -2.5589     4.1471     0.0367 C.3     
  35 H35            2.1488    -0.1398    -0.0199 H       
  36 H36            2.1707    -2.5992    -0.0321 H       
  37 H37           -2.0953    -2.6572     0.0071 H       
  38 H38           -2.1401    -0.1983     0.0318 H       
  39 H39            1.0272    -4.6283    -0.3836 H       
  40 H40            0.5660    -4.3600     2.0715 H       
  41 H41           -1.1725    -4.5280     1.7284 H       
  42 H42           -0.7614    -6.7650     0.7408 H       
  43 H43            0.9771    -6.5970     1.0840 H       
  44 H44           -1.7818    -4.2314    -1.0761 H       
  45 H45            1.0159    -6.4627    -0.6010 H       
  46 H46           -2.7659    -5.9320    -2.5361 H       
  47 H47           -2.4871    -8.1849    -3.5424 H       
  48 H48           -1.2690   -12.3290    -4.9821 H       
  49 H49            1.5124   -10.3999    -2.3615 H       
  50 H50           -0.6055     3.9199     0.9162 H       
  51 H51           -0.6140     3.9295    -0.8637 H       
  52 H52           -3.0907     3.8088    -0.8526 H       
  53 H53           -3.0822     3.7991     0.9273 H       
  54 H54           -2.5166     5.2362     0.0424 H       
@<TRIPOS>BOND
   1    1    2 1
   2    1    8 2
   3    1    9 1
   4    2    3 ar
   5    2    7 ar
   6    3    4 ar
   7    3   35 1
   8    4    5 ar
   9    4   36 1
  10    5    6 ar
  11    5   10 1
  12    6    7 ar
  13    6   37 1
  14    7   38 1
  15    9   33 1
  16   10   11 1
  17   10   14 1
  18   10   39 1
  19   11   12 1
  20   11   40 1
  21   11   41 1
  22   12   13 1
  23   12   42 1
  24   12   43 1
  25   13   30 1
  26   13   31 1
  27   13   32 1
  28   14   16 1
  29   14   44 1
  30   15   16 ar
  31   15   20 ar
  32   15   45 1
  33   16   17 ar
  34   17   18 ar
  35   17   46 1
  36   18   19 ar
  37   18   47 1
  38   19   20 ar
  39   19   21 1
  40   21   22 1
  41   21   25 1
  42   22   23 2
  43   23   24 1
  44   23   48 1
  45   24   25 2
  46   24   26 1
  47   25   49 1
  48   26   27 1
  49   26   28 1
  50   26   29 1
  51   33   34 1
  52   33   50 1
  53   33   51 1
  54   34   52 1
  55   34   53 1
  56   34   54 1

#	End of record

