#	Name: ASD01140357
#	Creating user name:	WinNT
#	Creation time:	15. 06. 2019 19:00

#	Modifying user name:	WinNT
#	Modification time:	15. 06. 2019 19:00

#	Program:	/corina/corina34_cracker 3.40 0067  02.08.2006

@<TRIPOS>MOLECULE
ASD01140357
  26   29    0    0    0
SMALL
NO_CHARGES


@<TRIPOS>ATOM
   1 N1            -0.0165     1.3636     0.0095 N.pl3   
   2 C2             0.0021    -0.0041     0.0020 C.2     
   3 C3             1.2440    -0.8628    -0.0465 C.3     
   4 N4             1.9826    -0.4790    -1.2554 N.pl3   
   5 C5             2.4123     0.7681    -1.5429 C.2     
   6 C6             2.2379     1.9848    -0.7243 C.ar    
   7 C7             1.0756     2.2368     0.0038 C.ar    
   8 C8             3.2890     2.9091    -0.6869 C.ar    
   9 C9             3.1781     4.0593     0.0667 C.ar    
  10 C10            2.0225     4.3048     0.7917 C.ar    
  11 C11            0.9799     3.4015     0.7611 C.ar    
  12 N12            2.3738    -1.3042    -2.3136 N.2     
  13 C13            3.0051    -0.5407    -3.1703 C.2     
  14 N14            3.0300     0.7071    -2.7095 N.2     
  15 C15           -1.3260     1.7345     0.0355 C.2     
  16 N16           -2.0646     0.6580     0.0554 N.2     
  17 C17           -1.2721    -0.4261     0.0357 C.2     
  18 F18            4.1960     4.9470     0.0977 F       
  19 Br19          -1.8484    -2.2270     0.0530 Br      
  20 H20            1.8563    -0.6816     0.8369 H       
  21 H21            0.9665    -1.9156    -0.0985 H       
  22 H22            4.1908     2.7206    -1.2504 H       
  23 H23            1.9381     5.2051     1.3822 H       
  24 H24            0.0826     3.5993     1.3287 H       
  25 H25            3.4376    -0.8718    -4.1028 H       
  26 H26           -1.6930     2.7502     0.0393 H       
@<TRIPOS>BOND
   1    1    2 1
   2    1    7 1
   3    1   15 1
   4    2    3 1
   5    2   17 2
   6    3    4 1
   7    3   20 1
   8    3   21 1
   9    4    5 1
  10    4   12 1
  11    5    6 1
  12    5   14 2
  13    6    7 ar
  14    6    8 ar
  15    7   11 ar
  16    8    9 ar
  17    8   22 1
  18    9   10 ar
  19    9   18 1
  20   10   11 ar
  21   10   23 1
  22   11   24 1
  23   12   13 2
  24   13   14 1
  25   13   25 1
  26   15   16 2
  27   15   26 1
  28   16   17 1
  29   17   19 1

#	End of record

