#	Name: ASD01910100
#	Creating user name:	WinNT
#	Creation time:	15. 06. 2019 19:55

#	Modifying user name:	WinNT
#	Modification time:	15. 06. 2019 19:55

#	Program:	/corina/corina34_cracker 3.40 0067  02.08.2006

@<TRIPOS>MOLECULE
ASD01910100
  42   45    0    0    0
SMALL
NO_CHARGES


@<TRIPOS>ATOM
   1 C1             1.4528    -3.9052    -3.9918 C.ar    
   2 C2             2.1283    -4.6877    -3.0748 C.ar    
   3 C3             3.0314    -4.1150    -2.1923 C.ar    
   4 C4             3.2577    -2.7489    -2.2314 C.ar    
   5 C5             2.5689    -1.9506    -3.1673 C.ar    
   6 C6             1.6691    -2.5365    -4.0426 C.ar    
   7 C7             4.1211    -1.8231    -1.4682 C.2     
   8 N8             3.9356    -0.5770    -1.9397 N.am    
   9 C9             3.0372    -0.5670    -2.9409 C.2     
  10 C10            4.6211     0.6129    -1.4293 C.3     
  11 C11            5.9704     0.7369    -2.0889 C.ar    
  12 C12            6.5878     1.9766    -2.1797 C.ar    
  13 C13            7.8333     2.0867    -2.7894 C.ar    
  14 C14            8.4512     0.9611    -3.3022 C.ar    
  15 C15            7.8317    -0.2721    -3.2091 C.ar    
  16 C16            6.5965    -0.3845    -2.5986 C.ar    
  17 N17            5.9585     3.1134    -1.6597 N.am    
  18 C18            5.7204     4.1751    -2.4550 C.2     
  19 C19            5.1655     5.4220    -1.8793 C.ar    
  20 C20            4.9217     6.5158    -2.7066 C.ar    
  21 C21            4.4023     7.6759    -2.1533 C.ar    
  22 C22            4.1449     7.7013    -0.7918 C.ar    
  23 C23            4.4120     6.5755    -0.0287 C.ar    
  24 N24            4.8997     5.4860    -0.5802 N.ar    
  25 O25            5.9609     4.1094    -3.6445 O.2     
  26 O26            2.6718     0.4146    -3.5557 O.2     
  27 O27            4.8717    -2.1352    -0.5659 O.2     
  28 F28            8.4380     3.2913    -2.8807 F       
  29 H29            0.7549    -4.3635    -4.6768 H       
  30 H30            1.9512    -5.7526    -3.0450 H       
  31 H31            3.5560    -4.7313    -1.4771 H       
  32 H32            1.1389    -1.9300    -4.7619 H       
  33 H33            4.0256     1.4985    -1.6511 H       
  34 H34            4.7508     0.5230    -0.3508 H       
  35 H35            9.4180     1.0449    -3.7762 H       
  36 H36            8.3160    -1.1499    -3.6107 H       
  37 H37            6.1160    -1.3492    -2.5278 H       
  38 H38            5.6937     3.1371    -0.7268 H       
  39 H39            5.1346     6.4610    -3.7640 H       
  40 H40            4.2030     8.5404    -2.7693 H       
  41 H41            3.7405     8.5898    -0.3298 H       
  42 H42            4.2126     6.5919     1.0326 H       
@<TRIPOS>BOND
   1    1    2 ar
   2    1    6 ar
   3    1   29 1
   4    2    3 ar
   5    2   30 1
   6    3    4 ar
   7    3   31 1
   8    4    5 ar
   9    4    7 1
  10    5    6 ar
  11    5    9 1
  12    6   32 1
  13    7    8 am
  14    7   27 2
  15    8    9 am
  16    8   10 1
  17    9   26 2
  18   10   11 1
  19   10   33 1
  20   10   34 1
  21   11   12 ar
  22   11   16 ar
  23   12   13 ar
  24   12   17 1
  25   13   14 ar
  26   13   28 1
  27   14   15 ar
  28   14   35 1
  29   15   16 ar
  30   15   36 1
  31   16   37 1
  32   17   18 am
  33   17   38 1
  34   18   19 1
  35   18   25 2
  36   19   20 ar
  37   19   24 ar
  38   20   21 ar
  39   20   39 1
  40   21   22 ar
  41   21   40 1
  42   22   23 ar
  43   22   41 1
  44   23   24 ar
  45   23   42 1

#	End of record

