#	Name: ASD01180241
#	Creating user name:	WinNT
#	Creation time:	15. 06. 2019 19:07

#	Modifying user name:	WinNT
#	Modification time:	15. 06. 2019 19:07

#	Program:	/corina/corina34_cracker 3.40 0067  02.08.2006

@<TRIPOS>MOLECULE
ASD01180241
  25   26    0    0    0
SMALL
NO_CHARGES


@<TRIPOS>ATOM
   1 C1            -0.0159     1.3234     0.0093 C.ar    
   2 N2             0.0021    -0.0041     0.0020 N.ar    
   3 C3             1.1425    -0.6663    -0.0125 C.ar    
   4 C4             2.3474     0.0541    -0.0202 C.ar    
   5 C5             2.2826     1.4565    -0.0120 C.ar    
   6 N6             1.1007     2.0415     0.0025 N.ar    
   7 C7             3.6421    -0.6412    -0.0358 C.2     
   8 O8             4.6733    -0.0028    -0.0423 O.2     
   9 C9            -1.3210     2.0243     0.0193 C.ar    
  10 C10           -1.3671     3.4183     0.0270 C.ar    
  11 C11           -2.5857     4.0654     0.0358 C.ar    
  12 C12           -3.7603     3.3344     0.0369 C.ar    
  13 C13           -3.7211     1.9515     0.0292 C.ar    
  14 C14           -2.5086     1.2930     0.0150 C.ar    
  15 C15           -5.0879     4.0474     0.0469 C.3     
  16 F16           -5.5046     4.2757    -1.2689 F       
  17 F17           -6.0362     3.2579     0.7062 F       
  18 F18           -4.9553     5.2705     0.7129 F       
  19 H19            1.1494    -1.7463    -0.0180 H       
  20 H20            3.1867     2.0472    -0.0175 H       
  21 H21            3.6753    -1.7207    -0.0416 H       
  22 H22           -0.4508     3.9900     0.0266 H       
  23 H23           -2.6227     5.1447     0.0422 H       
  24 H24           -4.6413     1.3862     0.0304 H       
  25 H25           -2.4792     0.2134     0.0045 H       
@<TRIPOS>BOND
   1    1    2 ar
   2    1    6 ar
   3    1    9 1
   4    2    3 ar
   5    3    4 ar
   6    3   19 1
   7    4    5 ar
   8    4    7 1
   9    5    6 ar
  10    5   20 1
  11    7    8 2
  12    7   21 1
  13    9   10 ar
  14    9   14 ar
  15   10   11 ar
  16   10   22 1
  17   11   12 ar
  18   11   23 1
  19   12   13 ar
  20   12   15 1
  21   13   14 ar
  22   13   24 1
  23   14   25 1
  24   15   16 1
  25   15   17 1
  26   15   18 1

#	End of record

