#	Name: ASD04570026
#	Creating user name:	WinNT
#	Creation time:	15. 06. 2019 20:49

#	Modifying user name:	WinNT
#	Modification time:	15. 06. 2019 20:49

#	Program:	/corina/corina34_cracker 3.40 0067  02.08.2006

@<TRIPOS>MOLECULE
ASD04570026
 349  350    0    0    0
SMALL
NO_CHARGES


@<TRIPOS>ATOM
   1 C1            -0.0187     1.5258     0.0104 C.3     
   2 C2             0.0021    -0.0041     0.0020 C.3     
   3 C3             0.7421    -0.5109     1.2415 C.3     
   4 C4             0.7628    -2.0407     1.2331 C.3     
   5 C5             1.5028    -2.5476     2.4727 C.3     
   6 C6             1.5236    -4.0774     2.4642 C.3     
   7 C7             2.2636    -4.5842     3.7038 C.3     
   8 C8             2.2843    -6.1141     3.6954 C.3     
   9 C9             3.0243    -6.6209     4.9349 C.3     
  10 C10            3.0450    -8.1508     4.9265 C.3     
  11 C11            3.7850    -8.6576     6.1660 C.3     
  12 C12            3.8058   -10.1874     6.1576 C.3     
  13 C13            4.5458   -10.6943     7.3971 C.3     
  14 C14            4.5665   -12.2241     7.3887 C.3     
  15 C15            5.3065   -12.7309     8.6282 C.3     
  16 C16            5.3270   -14.2378     8.6199 C.2     
  17 N17            5.9293   -14.9091     9.6215 N.am    
  18 O18            4.8014   -14.8464     7.7120 O.2     
  19 C19            5.9491   -16.3739     9.6134 C.3     
  20 H20            6.3496   -14.4223    10.3476 H       
  21 C21            7.1274   -16.8647    10.4145 C.2     
  22 C22            4.6547   -16.9049    10.2326 C.3     
  23 C23            3.4684   -16.5114     9.3502 C.3     
  24 S24            1.9337   -17.1409    10.0843 S.3     
  25 C25            0.6635   -16.5834     8.9153 C.3     
  26 N26            7.3484   -18.1877    10.5466 N.am    
  27 O27            7.8768   -16.0692    10.9404 O.2     
  28 C28            8.4939   -18.6648    11.3253 C.3     
  29 C29            8.5143   -20.1716    11.3171 C.2     
  30 N30            9.4859   -20.8360    11.9737 N.am    
  31 O31            7.6566   -20.7865    10.7195 O.2     
  32 C32            9.5057   -22.3009    11.9657 C.3     
  33 C33           10.9139   -22.7854    12.1964 C.2     
  34 O34           11.8125   -21.9859    12.3522 O.2     
  35 N35           11.1748   -24.1073    12.2295 N.am    
  36 C36            8.5961   -22.8294    13.0766 C.3     
  37 C37            7.1684   -22.4484    12.7807 C.ar    
  38 C38            6.3675   -23.2964    12.0383 C.ar    
  39 C39            5.0584   -22.9495    11.7657 C.ar    
  40 C40            4.5475   -21.7490    12.2374 C.ar    
  41 C41            5.3532   -20.8999    12.9821 C.ar    
  42 C42            6.6599   -21.2540    13.2568 C.ar    
  43 O43            3.2602   -21.4052    11.9702 O.3     
  44 C44           12.5438   -24.5783    12.4538 C.3     
  45 C45           12.8241   -24.6343    13.9569 C.3     
  46 C46           12.7049   -25.9545    11.8612 C.2     
  47 O47           11.7684   -26.4892    11.3062 O.2     
  48 N48           13.8896   -26.5911    11.9480 N.am    
  49 C49           12.7830   -23.2188    14.5363 C.3     
  50 C50           13.0591   -23.2739    16.0168 C.2     
  51 O51           13.2681   -24.3403    16.5554 O.2     
  52 N52           13.0737   -22.1382    16.7423 N.am    
  53 C53           14.0463   -27.9290    11.3719 C.3     
  54 C54           14.3867   -27.8074     9.8852 C.3     
  55 C55           15.1580   -28.6556    12.0841 C.2     
  56 C56           13.2053   -27.1820     9.1410 C.3     
  57 C57           13.5457   -27.0605     7.6543 C.3     
  58 C58           12.3643   -26.4350     6.9100 C.3     
  59 N59           12.6911   -26.3183     5.4826 N.3     
  60 O60           15.7602   -28.1096    12.9842 O.2     
  61 N61           15.4830   -29.9121    11.7207 N.am    
  62 C62           16.5638   -30.6184    12.4130 C.3     
  63 C63           16.3457   -32.1280    12.2926 C.3     
  64 C64           17.9053   -30.2448    11.7792 C.3     
  65 C65           15.0661   -32.5191    13.0345 C.3     
  66 C66           14.8479   -34.0287    12.9141 C.3     
  67 C67           13.5683   -34.4199    13.6561 C.3     
  68 N68           13.3589   -35.8693    13.5405 N.3     
  69 H69            1.0039     1.9031     0.0027 H       
  70 H70           -0.5459     1.8868    -0.8726 H       
  71 H71           -0.5289     1.8773     0.9072 H       
  72 H72           -1.0205    -0.3814     0.0098 H       
  73 H73            0.5123    -0.3556    -0.8948 H       
  74 H74            1.7647    -0.1336     1.2338 H       
  75 H75            0.2319    -0.1594     2.1383 H       
  76 H76           -0.2598    -2.4180     1.2409 H       
  77 H77            1.2730    -2.3923     0.3363 H       
  78 H78            2.5254    -2.1703     2.4649 H       
  79 H79            0.9926    -2.1961     3.3695 H       
  80 H80            0.5010    -4.4547     2.4720 H       
  81 H81            2.0337    -4.4289     1.5675 H       
  82 H82            3.2861    -4.2070     3.6960 H       
  83 H83            1.7534    -4.2327     4.6006 H       
  84 H84            1.2617    -6.4914     3.7031 H       
  85 H85            2.7945    -6.4656     2.7986 H       
  86 H86            4.0469    -6.2436     4.9271 H       
  87 H87            2.5141    -6.2694     5.8317 H       
  88 H88            2.0224    -8.5280     4.9342 H       
  89 H89            3.5552    -8.5023     4.0297 H       
  90 H90            4.8076    -8.2803     6.1583 H       
  91 H91            3.2748    -8.3061     7.0628 H       
  92 H92            2.7832   -10.5647     6.1653 H       
  93 H93            4.3160   -10.5389     5.2608 H       
  94 H94            5.5684   -10.3170     7.3894 H       
  95 H95            4.0356   -10.3427     8.2939 H       
  96 H96            3.5439   -12.6014     7.3964 H       
  97 H97            5.0767   -12.5756     6.4919 H       
  98 H98            6.3291   -12.3537     8.6205 H       
  99 H99            4.7963   -12.3794     9.5250 H       
 100 H100           6.0338   -16.7305     8.5869 H       
 101 H101           4.7069   -17.9911    10.3080 H       
 102 H102           4.5255   -16.4775    11.2269 H       
 103 H103           3.4162   -15.4252     9.2748 H       
 104 H104           3.5975   -16.9388     8.3559 H       
 105 H105          -0.3171   -16.9107     9.2609 H       
 106 H106           0.6815   -15.4955     8.8508 H       
 107 H107           0.8628   -17.0091     7.9319 H       
 108 H108           6.7491   -18.8239    10.1260 H       
 109 H109           9.4161   -18.2865    10.8842 H       
 110 H110           8.4092   -18.3082    12.3519 H       
 111 H111          10.1719   -20.3443    12.4517 H       
 112 H112           9.1500   -22.6638    11.0014 H       
 113 H113          10.4562   -24.7467    12.1049 H       
 114 H114           8.6791   -23.9150    13.1286 H       
 115 H115           8.8976   -22.3959    14.0301 H       
 116 H116           6.7658   -24.2307    11.6710 H       
 117 H117           4.4333   -23.6120    11.1854 H       
 118 H118           4.9578   -19.9648    13.3505 H       
 119 H119           7.2874   -20.5935    13.8368 H       
 120 H120           2.6261   -21.7084    12.6344 H       
 121 H121          13.2461   -23.8936    11.9785 H       
 122 H122          12.0676   -25.2488    14.4449 H       
 123 H123          13.8095   -25.0680    14.1268 H       
 124 H124          14.6386   -26.1635    12.3919 H       
 125 H125          13.5395   -22.6044    14.0483 H       
 126 H126          11.7976   -22.7851    14.3664 H       
 127 H127          12.9066   -21.2853    16.3115 H       
 128 H128          13.2515   -22.1737    17.6952 H       
 129 H129          13.1161   -28.4854    11.4873 H       
 130 H130          15.2673   -27.1764     9.7646 H       
 131 H131          14.5904   -28.7974     9.4770 H       
 132 H132          12.3247   -27.8130     9.2616 H       
 133 H133          13.0016   -26.1921     9.5492 H       
 134 H134          14.4263   -26.4295     7.5336 H       
 135 H135          13.7494   -28.0504     7.2461 H       
 136 H136          11.4837   -27.0660     7.0307 H       
 137 H137          12.1606   -25.4451     7.3182 H       
 138 H138          11.9260   -25.9077     4.9688 H       
 139 H139          13.5411   -25.7914     5.3482 H       
 140 H140          15.0014   -30.3487    11.0008 H       
 141 H141          16.5676   -30.3346    13.4654 H       
 142 H142          16.2531   -32.3989    11.2409 H       
 143 H143          17.1944   -32.6537    12.7299 H       
 144 H144          18.0607   -29.1693    11.8650 H       
 145 H145          18.7094   -30.7703    12.2943 H       
 146 H146          17.9015   -30.5285    10.7268 H       
 147 H147          15.1586   -32.2482    14.0862 H       
 148 H148          14.2173   -31.9934    12.5972 H       
 149 H149          14.7554   -34.2997    11.8624 H       
 150 H150          15.6967   -34.5545    13.3515 H       
 151 H151          13.6609   -34.1489    14.7078 H       
 152 H152          12.7196   -33.8941    13.2187 H       
 153 H153          14.1607   -36.3788    13.8804 H       
 154 H154          12.5192   -36.1529    14.0227 H       
 155 C155          25.6841    12.1863    27.4489 C.2     
 156 N156          26.2364    10.9575    27.4113 N.am    
 157 C157          27.6916    10.8107    27.3274 C.3     
 158 C158          28.3321    11.4611    28.5264 C.2     
 159 N159          29.5860    11.1231    28.8870 N.am    
 160 C160          30.2086    11.7554    30.0527 C.3     
 161 C161          31.7079    11.7128    29.9063 C.2     
 162 N162          32.4939    12.2398    30.8659 N.am    
 163 C163          33.9514    12.1984    30.7237 C.3     
 164 C164          34.5910    12.2561    32.0869 C.2     
 165 N165          35.9336    12.2311    32.2030 N.am    
 166 O166          33.8977    12.3250    33.0797 O.2     
 167 C167          36.5554    12.2872    33.5283 C.3     
 168 C168          37.9481    12.8499    33.4063 C.2     
 169 C169          36.6248    10.8776    34.1192 C.3     
 170 C170          35.2070    10.3549    34.3591 C.3     
 171 S171          35.2893     8.6836    35.0597 S.3     
 172 C172          33.5422     8.2429    35.2700 C.3     
 173 N173          38.7150    12.9948    34.5051 N.am    
 174 O174          38.3788    13.1722    32.3193 O.2     
 175 C175          40.0688    13.5418    34.3865 C.3     
 176 C176          40.9091    13.0574    35.5399 C.2     
 177 N177          42.2502    12.9988    35.4187 N.am    
 178 O178          40.3787    12.7202    36.5771 O.2     
 179 C179          43.0605    12.4455    36.5066 C.3     
 180 C180          44.2515    13.3364    36.7491 C.2     
 181 O181          44.4081    14.3352    36.0791 O.2     
 182 N182          45.1427    13.0233    37.7105 N.am    
 183 C183          46.3005    13.8894    37.9462 C.3     
 184 C184          45.9032    15.0264    38.8897 C.3     
 185 C185          47.4114    13.0843    38.5696 C.2     
 186 O186          47.2517    11.9033    38.7949 O.2     
 187 N187          48.5824    13.6766    38.8769 N.am    
 188 C188          49.6623    12.8939    39.4830 C.3     
 189 C189          49.4619    12.8364    40.9987 C.3     
 190 C190          50.9870    13.5435    39.1757 C.2     
 191 O191          51.0252    14.5601    38.5155 O.2     
 192 N192          52.1292    12.9947    39.6347 N.am    
 193 C193          53.4169    13.6262    39.3360 C.3     
 194 C194          53.7002    14.7198    40.3679 C.3     
 195 C195          54.5093    12.5895    39.3900 C.2     
 196 O196          54.2389    11.4366    39.6521 O.2     
 197 N197          55.7869    12.9434    39.1469 N.am    
 198 C198          52.6610    15.8340    40.2285 C.3     
 199 C199          52.9442    16.9276    41.2603 C.3     
 200 N200          51.9492    17.9945    41.1269 N.pl3   
 201 C201          52.0020    19.0912    41.9543 C.2     
 202 C202          40.0051    15.0703    34.4086 C.3     
 203 C203          39.2268    15.5660    33.1881 C.3     
 204 O204          41.3308    15.6028    34.3765 O.3     
 205 C205          43.5412    11.0446    36.1229 C.3     
 206 C206          42.3529    10.1311    35.9662 C.2     
 207 O207          42.5372     8.8350    35.6700 O.3     
 208 O208          41.2343    10.5654    36.1073 O.2     
 209 C209          44.8640    15.9171    38.2058 C.3     
 210 C210          44.4667    17.0541    39.1493 C.3     
 211 C211          43.4276    17.9448    38.4653 C.3     
 212 N212          43.0461    19.0365    39.3712 N.3     
 213 C213          48.1971    12.0784    41.3098 C.ar    
 214 C214          48.2509    10.7307    41.4913 C.ar    
 215 C215          46.9908    12.7688    41.4129 C.ar    
 216 C216          45.8307    12.1146    41.6930 C.ar    
 217 C217          45.8459    10.7220    41.8817 C.ar    
 218 C218          47.0733    10.0207    41.7819 C.ar    
 219 N219          51.0682    20.0924    41.8291 N.pl3   
 220 N220          52.9374    19.1817    42.8575 N.2     
 221 C221          34.4167    13.3946    29.8909 C.3     
 222 O222          34.1402    14.6045    30.5992 O.3     
 223 O223          32.2071    11.2043    28.9249 O.2     
 224 C224          29.7984    11.0036    31.3205 C.3     
 225 C225          28.2910    11.1522    31.5364 C.3     
 226 C226          27.8808    10.4005    32.8042 C.3     
 227 N227          26.4374    10.5428    33.0109 N.pl3   
 228 C228          25.8363     9.9481    34.0950 C.2     
 229 N229          24.4818    10.0817    34.2890 N.pl3   
 230 N230          26.5506     9.2578    34.9389 N.2     
 231 O231          27.7192    12.2888    29.1670 O.2     
 232 C232          28.1993    11.4833    26.0504 C.3     
 233 C233          27.6452    10.7450    24.8302 C.3     
 234 C234          28.0345    11.4996    23.5574 C.3     
 235 C235          28.2265     9.3306    24.7825 C.3     
 236 C236          56.8489    11.9356    39.1994 C.3     
 237 C237          57.3166    11.7724    40.6227 C.2     
 238 C238          58.0216    12.3845    38.3254 C.3     
 239 C239          57.5833    12.4146    36.8599 C.3     
 240 N240          58.2951    10.8925    40.9137 N.am    
 241 O241          56.8126    12.4330    41.5062 O.2     
 242 C242          58.7083    12.9983    36.0029 C.3     
 243 C243          57.2712    10.9918    36.3916 C.3     
 244 O244          26.3919    13.1706    27.4133 O.2     
 245 C245          24.1869    12.3373    27.5289 C.3     
 246 C246          47.0885     8.6281    41.9706 C.ar    
 247 C247          45.9276     7.9732    42.2458 C.ar    
 248 C248          44.7204     8.6629    42.3435 C.ar    
 249 C249          44.6683    10.0120    42.1719 C.ar    
 250 H250          25.6704    10.1703    27.4398 H       
 251 H251          27.9495     9.7518    27.3074 H       
 252 H252          30.0762    10.4611    28.3747 H       
 253 H253          29.8797    12.7922    30.1226 H       
 254 H254          32.0946    12.6464    31.6508 H       
 255 H255          34.2416    11.2736    30.2250 H       
 256 H256          36.4881    12.1760    31.4090 H       
 257 H257          35.9613    12.9262    34.1816 H       
 258 H258          37.1427    10.2172    33.4237 H       
 259 H259          37.1663    10.9063    35.0647 H       
 260 H260          34.6891    11.0153    35.0546 H       
 261 H261          34.6655    10.3262    33.4136 H       
 262 H262          33.4686     7.2406    35.6919 H       
 263 H263          33.0660     8.9561    35.9426 H       
 264 H264          33.0423     8.2671    34.3016 H       
 265 H265          38.3705    12.7370    35.3744 H       
 266 H266          40.5138    13.2102    33.4483 H       
 267 H267          42.6788    13.3230    34.6112 H       
 268 H268          42.4594    12.3875    37.4141 H       
 269 H269          45.0174    12.2245    38.2463 H       
 270 H270          46.6415    14.3060    36.9984 H       
 271 H271          45.4794    14.6092    39.8032 H       
 272 H272          46.7843    15.6191    39.1356 H       
 273 H273          48.7101    14.6211    38.6967 H       
 274 H274          49.6506    11.8827    39.0763 H       
 275 H275          50.3110    12.3308    41.4586 H       
 276 H276          49.3848    13.8494    41.3937 H       
 277 H277          52.0987    12.1816    40.1627 H       
 278 H278          53.3831    14.0668    38.3396 H       
 279 H279          53.6462    14.2959    41.3706 H       
 280 H280          54.6964    15.1289    40.1995 H       
 281 H281          56.0032    13.8655    38.9373 H       
 282 H282          52.7150    16.2578    39.2257 H       
 283 H283          51.6648    15.4249    40.3968 H       
 284 H284          52.8902    16.5037    42.2631 H       
 285 H285          53.9404    17.3367    41.0920 H       
 286 H286          51.2531    17.9271    40.4547 H       
 287 H287          39.5030    15.3999    35.3181 H       
 288 H288          38.2156    15.1598    33.2126 H       
 289 H289          39.1814    16.6549    33.2039 H       
 290 H290          39.7289    15.2364    32.2786 H       
 291 H291          41.8738    15.3523    35.1365 H       
 292 H292          44.0885    11.0935    35.1815 H       
 293 H293          44.1959    10.6584    36.9041 H       
 294 H294          41.7447     8.2883    35.5795 H       
 295 H295          45.2879    16.3343    37.2923 H       
 296 H296          43.9829    15.3244    37.9598 H       
 297 H297          44.0429    16.6369    40.0627 H       
 298 H298          45.3478    17.6468    39.3952 H       
 299 H299          43.8514    18.3620    37.5519 H       
 300 H300          42.5465    17.3521    38.2194 H       
 301 H301          43.8557    19.5619    39.6653 H       
 302 H302          42.3601    19.6393    38.9422 H       
 303 H303          49.1935    10.2095    41.4121 H       
 304 H304          46.9764    13.8390    41.2687 H       
 305 H305          44.9034    12.6628    41.7702 H       
 306 H306          50.3720    20.0250    41.1569 H       
 307 H307          51.1054    20.8662    42.4129 H       
 308 H308          52.9746    19.9554    43.4413 H       
 309 H309          35.4887    13.3163    29.7100 H       
 310 H310          33.8870    13.4021    28.9383 H       
 311 H311          34.4095    15.4056    30.1294 H       
 312 H312          30.0478     9.9480    31.2137 H       
 313 H313          30.3306    11.4179    32.1768 H       
 314 H314          28.0416    12.2079    31.6432 H       
 315 H315          27.7588    10.7380    30.6801 H       
 316 H316          28.1302     9.3448    32.6974 H       
 317 H317          28.4130    10.8148    33.6605 H       
 318 H318          25.9059    11.0565    32.3829 H       
 319 H319          23.9502    10.5954    33.6610 H       
 320 H320          24.0577     9.6621    35.0539 H       
 321 H321          26.1265     8.8383    35.7038 H       
 322 H322          27.8663    12.5210    26.0293 H       
 323 H323          29.2886    11.4508    26.0310 H       
 324 H324          26.5590    10.6892    24.9016 H       
 325 H325          29.1181    11.4813    23.4412 H       
 326 H326          27.5686    11.0224    22.6952 H       
 327 H327          27.6942    12.5326    23.6289 H       
 328 H328          27.9492     8.7930    25.6893 H       
 329 H329          27.8318     8.8046    23.9133 H       
 330 H330          29.3128     9.3864    24.7111 H       
 331 H331          56.4651    10.9839    38.8318 H       
 332 H332          58.3408    13.3813    38.6297 H       
 333 H333          58.8503    11.6861    38.4425 H       
 334 H334          56.6918    13.0337    36.7599 H       
 335 H335          58.6983    10.3642    40.2071 H       
 336 H336          58.5962    10.7875    41.8298 H       
 337 H337          59.5716    12.3336    36.0348 H       
 338 H338          58.3655    13.0995    34.9731 H       
 339 H339          58.9893    13.9776    36.3902 H       
 340 H340          56.4697    10.5759    37.0021 H       
 341 H341          56.9589    11.0132    35.3475 H       
 342 H342          58.1627    10.3726    36.4916 H       
 343 H343          23.8800    12.3667    28.5745 H       
 344 H344          23.8882    13.2628    27.0365 H       
 345 H345          23.7094    11.4918    27.0338 H       
 346 H346          48.0164     8.0804    41.8972 H       
 347 H347          45.9420     6.9031    42.3903 H       
 348 H348          43.8134     8.1191    42.5626 H       
 349 H349          43.7257    10.5332    42.2508 H       
@<TRIPOS>BOND
   1    1    2 1
   2    1   69 1
   3    1   70 1
   4    1   71 1
   5    2    3 1
   6    2   72 1
   7    2   73 1
   8    3    4 1
   9    3   74 1
  10    3   75 1
  11    4    5 1
  12    4   76 1
  13    4   77 1
  14    5    6 1
  15    5   78 1
  16    5   79 1
  17    6    7 1
  18    6   80 1
  19    6   81 1
  20    7    8 1
  21    7   82 1
  22    7   83 1
  23    8    9 1
  24    8   84 1
  25    8   85 1
  26    9   10 1
  27    9   86 1
  28    9   87 1
  29   10   11 1
  30   10   88 1
  31   10   89 1
  32   11   12 1
  33   11   90 1
  34   11   91 1
  35   12   13 1
  36   12   92 1
  37   12   93 1
  38   13   14 1
  39   13   94 1
  40   13   95 1
  41   14   15 1
  42   14   96 1
  43   14   97 1
  44   15   16 1
  45   15   98 1
  46   15   99 1
  47   16   17 am
  48   16   18 2
  49   17   19 1
  50   17   20 1
  51   19   21 1
  52   19   22 1
  53   19  100 1
  54   21   26 am
  55   21   27 2
  56   22   23 1
  57   22  101 1
  58   22  102 1
  59   23   24 1
  60   23  103 1
  61   23  104 1
  62   24   25 1
  63   25  105 1
  64   25  106 1
  65   25  107 1
  66   26   28 1
  67   26  108 1
  68   28   29 1
  69   28  109 1
  70   28  110 1
  71   29   30 am
  72   29   31 2
  73   30   32 1
  74   30  111 1
  75   32   33 1
  76   32   36 1
  77   32  112 1
  78   33   34 2
  79   33   35 am
  80   35   44 1
  81   35  113 1
  82   36   37 1
  83   36  114 1
  84   36  115 1
  85   37   38 ar
  86   37   42 ar
  87   38   39 ar
  88   38  116 1
  89   39   40 ar
  90   39  117 1
  91   40   41 ar
  92   40   43 1
  93   41   42 ar
  94   41  118 1
  95   42  119 1
  96   43  120 1
  97   44   45 1
  98   44   46 1
  99   44  121 1
 100   45   49 1
 101   45  122 1
 102   45  123 1
 103   46   47 2
 104   46   48 am
 105   48   53 1
 106   48  124 1
 107   49   50 1
 108   49  125 1
 109   49  126 1
 110   50   51 2
 111   50   52 am
 112   52  127 1
 113   52  128 1
 114   53   54 1
 115   53   55 1
 116   53  129 1
 117   54   56 1
 118   54  130 1
 119   54  131 1
 120   55   60 2
 121   55   61 am
 122   56   57 1
 123   56  132 1
 124   56  133 1
 125   57   58 1
 126   57  134 1
 127   57  135 1
 128   58   59 1
 129   58  136 1
 130   58  137 1
 131   59  138 1
 132   59  139 1
 133   61   62 1
 134   61  140 1
 135   62   63 1
 136   62   64 1
 137   62  141 1
 138   63   65 1
 139   63  142 1
 140   63  143 1
 141   64  144 1
 142   64  145 1
 143   64  146 1
 144   65   66 1
 145   65  147 1
 146   65  148 1
 147   66   67 1
 148   66  149 1
 149   66  150 1
 150   67   68 1
 151   67  151 1
 152   67  152 1
 153   68  153 1
 154   68  154 1
 155  155  156 am
 156  155  244 2
 157  155  245 1
 158  156  157 1
 159  156  250 1
 160  157  158 1
 161  157  232 1
 162  157  251 1
 163  158  159 am
 164  158  231 2
 165  159  160 1
 166  159  252 1
 167  160  161 1
 168  160  224 1
 169  160  253 1
 170  161  162 am
 171  161  223 2
 172  162  163 1
 173  162  254 1
 174  163  164 1
 175  163  221 1
 176  163  255 1
 177  164  165 am
 178  164  166 2
 179  165  167 1
 180  165  256 1
 181  167  168 1
 182  167  169 1
 183  167  257 1
 184  168  173 am
 185  168  174 2
 186  169  170 1
 187  169  258 1
 188  169  259 1
 189  170  171 1
 190  170  260 1
 191  170  261 1
 192  171  172 1
 193  172  262 1
 194  172  263 1
 195  172  264 1
 196  173  175 1
 197  173  265 1
 198  175  176 1
 199  175  202 1
 200  175  266 1
 201  176  177 am
 202  176  178 2
 203  177  179 1
 204  177  267 1
 205  179  180 1
 206  179  205 1
 207  179  268 1
 208  180  181 2
 209  180  182 am
 210  182  183 1
 211  182  269 1
 212  183  184 1
 213  183  185 1
 214  183  270 1
 215  184  209 1
 216  184  271 1
 217  184  272 1
 218  185  186 2
 219  185  187 am
 220  187  188 1
 221  187  273 1
 222  188  189 1
 223  188  190 1
 224  188  274 1
 225  189  213 1
 226  189  275 1
 227  189  276 1
 228  190  191 2
 229  190  192 am
 230  192  193 1
 231  192  277 1
 232  193  194 1
 233  193  195 1
 234  193  278 1
 235  194  198 1
 236  194  279 1
 237  194  280 1
 238  195  196 2
 239  195  197 am
 240  197  236 1
 241  197  281 1
 242  198  199 1
 243  198  282 1
 244  198  283 1
 245  199  200 1
 246  199  284 1
 247  199  285 1
 248  200  201 1
 249  200  286 1
 250  201  219 1
 251  201  220 2
 252  202  203 1
 253  202  204 1
 254  202  287 1
 255  203  288 1
 256  203  289 1
 257  203  290 1
 258  204  291 1
 259  205  206 1
 260  205  292 1
 261  205  293 1
 262  206  207 1
 263  206  208 2
 264  207  294 1
 265  209  210 1
 266  209  295 1
 267  209  296 1
 268  210  211 1
 269  210  297 1
 270  210  298 1
 271  211  212 1
 272  211  299 1
 273  211  300 1
 274  212  301 1
 275  212  302 1
 276  213  214 ar
 277  213  215 ar
 278  214  218 ar
 279  214  303 1
 280  215  216 ar
 281  215  304 1
 282  216  217 ar
 283  216  305 1
 284  217  218 ar
 285  217  249 ar
 286  218  246 ar
 287  219  306 1
 288  219  307 1
 289  220  308 1
 290  221  222 1
 291  221  309 1
 292  221  310 1
 293  222  311 1
 294  224  225 1
 295  224  312 1
 296  224  313 1
 297  225  226 1
 298  225  314 1
 299  225  315 1
 300  226  227 1
 301  226  316 1
 302  226  317 1
 303  227  228 1
 304  227  318 1
 305  228  229 1
 306  228  230 2
 307  229  319 1
 308  229  320 1
 309  230  321 1
 310  232  233 1
 311  232  322 1
 312  232  323 1
 313  233  234 1
 314  233  235 1
 315  233  324 1
 316  234  325 1
 317  234  326 1
 318  234  327 1
 319  235  328 1
 320  235  329 1
 321  235  330 1
 322  236  237 1
 323  236  238 1
 324  236  331 1
 325  237  240 am
 326  237  241 2
 327  238  239 1
 328  238  332 1
 329  238  333 1
 330  239  242 1
 331  239  243 1
 332  239  334 1
 333  240  335 1
 334  240  336 1
 335  242  337 1
 336  242  338 1
 337  242  339 1
 338  243  340 1
 339  243  341 1
 340  243  342 1
 341  245  343 1
 342  245  344 1
 343  245  345 1
 344  246  247 ar
 345  246  346 1
 346  247  248 ar
 347  247  347 1
 348  248  249 ar
 349  248  348 1
 350  249  349 1

#	End of record

