#	Name: ASD02490003
#	Creating user name:	WinNT
#	Creation time:	15. 06. 2019 20:22

#	Modifying user name:	WinNT
#	Modification time:	15. 06. 2019 20:22

#	Program:	/corina/corina34_cracker 3.40 0067  02.08.2006

@<TRIPOS>MOLECULE
ASD02490003
  47   48    0    0    0
SMALL
NO_CHARGES


@<TRIPOS>ATOM
   1 C1            -0.1628    -0.1793    -0.0274 C.1     
   2 C2            -0.1702     1.2512     0.0380 C.ar    
   3 C3            -1.2390     1.9172     0.6421 C.ar    
   4 C4            -1.2458     3.2931     0.7048 C.ar    
   5 C5            -0.1847     4.0220     0.1643 C.ar    
   6 C6             0.8836     3.3564    -0.4400 C.ar    
   7 C7             0.8942     1.9804    -0.4971 C.ar    
   8 N8            -0.1569    -1.3141    -0.0793 N.1     
   9 C9            -0.1926     5.4996     0.2314 C.2     
  10 O10            0.8454     6.1052     0.4133 O.2     
  11 N11           -1.3508     6.1744     0.0909 N.am    
  12 C12           -1.3970     7.6300     0.2881 C.3     
  13 C13           -1.9876     8.2766    -0.9711 C.3     
  14 N14           -3.2268     7.5700    -1.3247 N.am    
  15 C15           -3.1805     6.1144    -1.5219 C.3     
  16 C16           -2.5888     5.4686    -0.2683 C.3     
  17 C17           -4.3849     8.2448    -1.4653 C.2     
  18 C18           -4.4241     9.7323    -1.2266 C.3     
  19 C19           -5.6995    10.3138    -1.8398 C.3     
  20 O20           -5.3956     7.6550    -1.7838 O.2     
  21 C21           -4.4102    10.0079     0.2783 C.3     
  22 O22           -3.2830    10.3423    -1.8331 O.3     
  23 F23           -6.8167     9.7167    -1.2461 F       
  24 F24           -5.7359    11.6947    -1.6182 F       
  25 F25           -5.7122    10.0618    -3.2159 F       
  26 C26           -4.5959     5.5828    -1.7565 C.3     
  27 C27           -2.2787     7.9569     1.4949 C.3     
  28 H28           -2.0601     1.3535     1.0596 H       
  29 H29           -2.0722     3.8081     1.1719 H       
  30 H30            1.7041     3.9205    -0.8584 H       
  31 H31            1.7230     1.4654    -0.9599 H       
  32 H32           -0.3887     8.0087     0.4552 H       
  33 H33           -2.2081     9.3258    -0.7745 H       
  34 H34           -1.2745     8.1976    -1.7917 H       
  35 H35           -2.5524     5.8815    -2.3817 H       
  36 H36           -2.3674     4.4203    -0.4684 H       
  37 H37           -3.3038     5.5441     0.5510 H       
  38 H38           -3.5016     9.5936     0.7152 H       
  39 H39           -4.4385    11.0837     0.4510 H       
  40 H40           -5.2806     9.5426     0.7409 H       
  41 H41           -3.2268    10.2081    -2.7891 H       
  42 H42           -4.9834     5.9825    -2.6937 H       
  43 H43           -4.5712     4.4943    -1.8083 H       
  44 H44           -5.2413     5.8929    -0.9348 H       
  45 H45           -1.8654     7.4838     2.3857 H       
  46 H46           -2.3114     9.0369     1.6391 H       
  47 H47           -3.2875     7.5830     1.3199 H       
@<TRIPOS>BOND
   1    1    2 1
   2    1    8 3
   3    2    3 ar
   4    2    7 ar
   5    3    4 ar
   6    3   28 1
   7    4    5 ar
   8    4   29 1
   9    5    6 ar
  10    5    9 1
  11    6    7 ar
  12    6   30 1
  13    7   31 1
  14    9   10 2
  15    9   11 am
  16   11   12 1
  17   11   16 1
  18   12   13 1
  19   12   27 1
  20   12   32 1
  21   13   14 1
  22   13   33 1
  23   13   34 1
  24   14   15 1
  25   14   17 am
  26   15   16 1
  27   15   26 1
  28   15   35 1
  29   16   36 1
  30   16   37 1
  31   17   18 1
  32   17   20 2
  33   18   19 1
  34   18   21 1
  35   18   22 1
  36   19   23 1
  37   19   24 1
  38   19   25 1
  39   21   38 1
  40   21   39 1
  41   21   40 1
  42   22   41 1
  43   26   42 1
  44   26   43 1
  45   26   44 1
  46   27   45 1
  47   27   46 1
  48   27   47 1

#	End of record

