#	Name: ASD05380091
#	Creating user name:	WinNT
#	Creation time:	15. 06. 2019 20:59

#	Modifying user name:	WinNT
#	Modification time:	15. 06. 2019 20:59

#	Program:	/corina/corina34_cracker 3.40 0067  02.08.2006

@<TRIPOS>MOLECULE
ASD05380091
  51   55    0    0    0
SMALL
NO_CHARGES


@<TRIPOS>ATOM
   1 C1            -0.1399     1.4433    -0.4445 C.ar    
   2 C2             0.0694     0.1195     0.0027 C.ar    
   3 C3             0.9306     2.1962    -0.9220 C.ar    
   4 C4             2.1910     1.6399    -0.9542 C.ar    
   5 C5             2.4002     0.3392    -0.5160 C.ar    
   6 C6             1.3558    -0.4214    -0.0395 C.ar    
   7 N7            -0.9879    -0.5946     0.4636 N.2     
   8 C8            -2.1840    -0.0911     0.5031 C.2     
   9 N9            -2.4772     1.1727     0.0932 N.am    
  10 C10           -1.5048     1.9859    -0.3810 C.2     
  11 C11           -3.7959     1.6385     0.1689 C.ar    
  12 C12           -4.6649     1.4439    -0.8965 C.ar    
  13 C13           -4.2387     2.2910     1.3120 C.ar    
  14 C14           -5.5396     2.7493     1.3836 C.ar    
  15 C15           -6.4010     2.5585     0.3188 C.ar    
  16 C16           -3.3046    -0.9505     1.0292 C.3     
  17 N17           -3.0852    -2.3411     0.6240 N.pl3   
  18 C18           -4.1583    -3.2078     0.5159 C.ar    
  19 N19           -5.3935    -2.7940     0.7762 N.ar    
  20 O20           -1.7527     3.1188    -0.7511 O.2     
  21 C21           -3.9656    -4.5434     0.1228 C.ar    
  22 C22           -5.0909    -5.3790     0.0292 C.ar    
  23 N23           -6.2911    -4.8834     0.3132 N.ar    
  24 C24           -6.4285    -3.6180     0.6748 C.ar    
  25 N25           -2.8850    -5.2888    -0.2161 N.2     
  26 C26           -3.2667    -6.4985    -0.5045 C.2     
  27 N27           -4.6201    -6.6049    -0.3681 N.pl3   
  28 C28           -3.3400    -0.8637     2.5563 C.3     
  29 C29           -5.9646     1.9045    -0.8187 C.ar    
  30 N30           -7.6964    -3.1371     0.9577 N.pl3   
  31 C31           -4.5520    -1.6349     3.0830 C.3     
  32 H32            0.7738     3.2082    -1.2649 H       
  33 H33            3.0232     2.2207    -1.3238 H       
  34 H34            3.3945    -0.0811    -0.5486 H       
  35 H35            1.5307    -1.4321     0.2986 H       
  36 H36           -4.3246     0.9331    -1.7852 H       
  37 H37           -3.5666     2.4397     2.1442 H       
  38 H38           -5.8845     3.2568     2.2723 H       
  39 H39           -7.4180     2.9171     0.3775 H       
  40 H40           -4.2532    -0.5991     0.6232 H       
  41 H41           -2.1875    -2.6543     0.4314 H       
  42 H42           -2.6094    -7.3002    -0.8074 H       
  43 H43           -5.1518    -7.4012    -0.5230 H       
  44 H44           -2.4276    -1.2970     2.9661 H       
  45 H45           -3.4142     0.1807     2.8593 H       
  46 H46           -6.6397     1.7570    -1.6487 H       
  47 H47           -7.8159    -2.2123     1.2247 H       
  48 H48           -8.4647    -3.7253     0.8889 H       
  49 H49           -5.4644    -1.2016     2.6732 H       
  50 H50           -4.4778    -2.6793     2.7800 H       
  51 H51           -4.5772    -1.5731     4.1709 H       
@<TRIPOS>BOND
   1    1    2 ar
   2    1    3 ar
   3    1   10 1
   4    2    7 1
   5    2    6 ar
   6    3    4 ar
   7    3   32 1
   8    4    5 ar
   9    4   33 1
  10    5    6 ar
  11    5   34 1
  12    6   35 1
  13    7    8 2
  14    8    9 1
  15    8   16 1
  16    9   10 am
  17    9   11 1
  18   10   20 2
  19   11   12 ar
  20   11   13 ar
  21   12   29 ar
  22   12   36 1
  23   13   14 ar
  24   13   37 1
  25   14   15 ar
  26   14   38 1
  27   15   29 ar
  28   15   39 1
  29   16   17 1
  30   16   28 1
  31   16   40 1
  32   17   18 1
  33   17   41 1
  34   18   19 ar
  35   18   21 ar
  36   19   24 ar
  37   21   22 ar
  38   21   25 1
  39   22   23 ar
  40   22   27 1
  41   23   24 ar
  42   24   30 1
  43   25   26 2
  44   26   27 1
  45   26   42 1
  46   27   43 1
  47   28   31 1
  48   28   44 1
  49   28   45 1
  50   29   46 1
  51   30   47 1
  52   30   48 1
  53   31   49 1
  54   31   50 1
  55   31   51 1

#	End of record

