#	Name: ASD01885366
#	Creating user name:	WinNT
#	Creation time:	15. 06. 2019 19:49

#	Modifying user name:	WinNT
#	Modification time:	15. 06. 2019 19:49

#	Program:	/corina/corina34_cracker 3.40 0067  02.08.2006

@<TRIPOS>MOLECULE
ASD01885366
  53   56    0    0    0
SMALL
NO_CHARGES


@<TRIPOS>ATOM
   1 C1            -0.0164     1.3565     0.0095 C.ar    
   2 C2             0.0021    -0.0041     0.0020 C.ar    
   3 C3             1.2052    -0.7063    -0.0132 C.ar    
   4 C4             2.3986    -0.0481    -0.0211 C.ar    
   5 C5             2.4181     1.3524    -0.0137 C.ar    
   6 C6             1.1963     2.0715     0.0018 C.ar    
   7 C7             3.6402     2.0714    -0.0215 C.ar    
   8 C8             3.5783     3.4584    -0.0135 C.ar    
   9 C9             2.3315     4.0925     0.0018 C.ar    
  10 N10            1.2047     3.4051     0.0084 N.ar    
  11 C11            4.9416     1.3652    -0.0371 C.2     
  12 C12            2.2743     5.5743     0.0102 C.2     
  13 O13            3.3022     6.2220     0.0039 O.2     
  14 N14            1.0820     6.2025     0.0249 N.am    
  15 C15           -1.2996    -0.7634     0.0109 C.3     
  16 N16           -1.7363    -1.0027    -1.3712 N.3     
  17 C17           -2.8691    -1.9389    -1.4111 C.3     
  18 C18           -3.3294    -2.1130    -2.8609 C.3     
  19 O19           -2.2278    -2.5619    -3.6548 O.3     
  20 C20           -1.1071    -1.6736    -3.6392 C.3     
  21 C21           -0.6244    -1.4949    -2.1973 C.3     
  22 C22            5.3341     0.3202     0.8248 C.2     
  23 N23            6.5465    -0.0398     0.4987 N.2     
  24 N24            6.9741     0.7520    -0.5737 N.pl3   
  25 C25            5.9803     1.6027    -0.8935 C.2     
  26 C26            8.2772     0.6663    -1.2376 C.3     
  27 C27           -4.4556    -3.1471    -2.9186 C.3     
  28 F28           -5.5308    -2.7096    -2.1378 F       
  29 F29           -4.8755    -3.3057    -4.2436 F       
  30 F30           -3.9902    -4.3714    -2.4272 F       
  31 C31           -1.5229    -0.3165    -4.2106 C.3     
  32 H32           -0.9577     1.8859     0.0168 H       
  33 H33            1.1920    -1.7862    -0.0186 H       
  34 H34            3.3247    -0.6037    -0.0325 H       
  35 H35            4.4860     4.0435    -0.0186 H       
  36 H36            0.2613     5.6854     0.0299 H       
  37 H37            1.0445     7.1718     0.0304 H       
  38 H38           -1.1600    -1.7179     0.5182 H       
  39 H39           -2.0567    -0.1805     0.5354 H       
  40 H40           -2.5586    -2.9034    -1.0094 H       
  41 H41           -3.6902    -1.5424    -0.8137 H       
  42 H42           -3.6902    -1.1591    -3.2453 H       
  43 H43           -0.3022    -2.0923    -4.2432 H       
  44 H44            0.1932    -0.7744    -2.1738 H       
  45 H45           -0.2779    -2.4523    -1.8082 H       
  46 H46            4.7367    -0.1074     1.6164 H       
  47 H47            6.0011     2.3405    -1.6819 H       
  48 H48            8.2186    -0.0431    -2.0630 H       
  49 H49            8.5548     1.6481    -1.6213 H       
  50 H50            9.0279     0.3303    -0.5223 H       
  51 H51           -2.3264     0.1021    -3.6046 H       
  52 H52           -0.6684     0.3601    -4.1984 H       
  53 H53           -1.8701    -0.4450    -5.2358 H       
@<TRIPOS>BOND
   1    1    2 ar
   2    1    6 ar
   3    1   32 1
   4    2    3 ar
   5    2   15 1
   6    3    4 ar
   7    3   33 1
   8    4    5 ar
   9    4   34 1
  10    5    7 ar
  11    5    6 ar
  12    6   10 ar
  13    7    8 ar
  14    7   11 1
  15    8    9 ar
  16    8   35 1
  17    9   10 ar
  18    9   12 1
  19   11   22 1
  20   11   25 2
  21   12   13 2
  22   12   14 am
  23   14   36 1
  24   14   37 1
  25   15   16 1
  26   15   38 1
  27   15   39 1
  28   16   17 1
  29   16   21 1
  30   17   18 1
  31   17   40 1
  32   17   41 1
  33   18   19 1
  34   18   27 1
  35   18   42 1
  36   19   20 1
  37   20   21 1
  38   20   31 1
  39   20   43 1
  40   21   44 1
  41   21   45 1
  42   22   23 2
  43   22   46 1
  44   23   24 1
  45   24   25 1
  46   24   26 1
  47   25   47 1
  48   26   48 1
  49   26   49 1
  50   26   50 1
  51   27   28 1
  52   27   29 1
  53   27   30 1
  54   31   51 1
  55   31   52 1
  56   31   53 1

#	End of record

