#	Name: ASD03092376
#	Creating user name:	WinNT
#	Creation time:	15. 06. 2019 20:32

#	Modifying user name:	WinNT
#	Modification time:	15. 06. 2019 20:32

#	Program:	/corina/corina34_cracker 3.40 0067  02.08.2006

@<TRIPOS>MOLECULE
ASD03092376
  59   62    0    0    0
SMALL
NO_CHARGES


@<TRIPOS>ATOM
   1 O1             0.8912     1.0030    -0.3456 O.3     
   2 N2             0.7504    -0.1963    -0.2860 N.2     
   3 C3             1.9055    -0.8123    -0.2410 C.2     
   4 C4             2.8982     0.2060    -0.2814 C.2     
   5 C5             2.1846     1.3538    -0.3484 C.2     
   6 C6             2.1327    -2.2761    -0.1636 C.2     
   7 O7             3.2654    -2.7139    -0.1275 O.2     
   8 N8             1.0826    -3.1204    -0.1333 N.am    
   9 C9             2.7370     2.7544    -0.4138 C.3     
  10 C10            1.3070    -4.5660    -0.0569 C.3     
  11 S11           -2.1410    -6.4558     0.6761 S.3     
  12 C12           -1.8186    -6.1980    -0.9828 C.2     
  13 N13           -0.6848    -5.5813    -1.1309 N.2     
  14 C14           -0.0200    -5.2800    -0.0366 C.2     
  15 C15           -0.6269    -5.6643     1.1057 C.2     
  16 C16            0.8385    -4.0598     4.1744 C.ar    
  17 C17            0.3653    -4.2078     2.8808 C.ar    
  18 C18           -0.1127    -5.4579     2.4739 C.ar    
  19 C19           -0.0907    -6.5098     3.4016 C.ar    
  20 C20            0.3962    -6.2761     4.6678 C.ar    
  21 N21            0.8400    -5.0816     5.0161 N.ar    
  22 C22            0.4240    -7.3999     5.6715 C.3     
  23 O23            1.3106    -2.8547     4.5818 O.3     
  24 C24            1.7848    -2.7648     5.9269 C.3     
  25 N25           -2.6461    -6.5905    -2.0191 N.3     
  26 C26           -3.8490    -7.2630    -1.5070 C.3     
  27 C27           -4.7055    -7.7325    -2.6859 C.3     
  28 O28           -5.0235    -6.6108    -3.5142 O.3     
  29 C29           -3.8752    -5.9326    -4.0307 C.3     
  30 C30           -3.0103    -5.4449    -2.8654 C.3     
  31 C31           -4.3240    -4.7348    -4.8701 C.3     
  32 C32           -5.9972    -8.3620    -2.1602 C.3     
  33 H33            3.9718     0.0900    -0.2623 H       
  34 H34            0.1782    -2.7708    -0.1621 H       
  35 H35            1.9142     3.4677    -0.4598 H       
  36 H36            3.3381     2.9498     0.4742 H       
  37 H37            3.3584     2.8586    -1.3033 H       
  38 H38            1.8812    -4.8910    -0.9245 H       
  39 H39            1.8596    -4.8003     0.8530 H       
  40 H40            0.3655    -3.3715     2.1974 H       
  41 H41           -0.4514    -7.4899     3.1263 H       
  42 H42            1.3741    -7.9291     5.5983 H       
  43 H43            0.3114    -6.9926     6.6762 H       
  44 H44           -0.3935    -8.0909     5.4659 H       
  45 H45            0.9754    -3.0100     6.6146 H       
  46 H46            2.6076    -3.4652     6.0697 H       
  47 H47            2.1329    -1.7506     6.1224 H       
  48 H48           -3.5565    -8.1229    -0.9044 H       
  49 H49           -4.4224    -6.5669    -0.8949 H       
  50 H50           -4.1515    -8.4691    -3.2678 H       
  51 H51           -3.2971    -6.6169    -4.6516 H       
  52 H52           -3.5703    -4.7197    -2.2750 H       
  53 H53           -2.1056    -4.9776    -3.2543 H       
  54 H54           -4.9004    -4.0504    -4.2476 H       
  55 H55           -3.4484    -4.2183    -5.2635 H       
  56 H56           -4.9429    -5.0823    -5.6973 H       
  57 H57           -6.5512    -7.6239    -1.5802 H       
  58 H58           -6.6065    -8.6960    -3.0000 H       
  59 H59           -5.7540    -9.2144    -1.5260 H       
@<TRIPOS>BOND
   1    1    2 1
   2    1    5 1
   3    2    3 2
   4    3    4 1
   5    3    6 1
   6    4    5 2
   7    4   33 1
   8    5    9 1
   9    6    7 2
  10    6    8 am
  11    8   10 1
  12    8   34 1
  13    9   35 1
  14    9   36 1
  15    9   37 1
  16   10   14 1
  17   10   38 1
  18   10   39 1
  19   11   12 1
  20   11   15 1
  21   12   13 2
  22   12   25 1
  23   13   14 1
  24   14   15 2
  25   15   18 1
  26   16   17 ar
  27   16   21 ar
  28   16   23 1
  29   17   18 ar
  30   17   40 1
  31   18   19 ar
  32   19   20 ar
  33   19   41 1
  34   20   21 ar
  35   20   22 1
  36   22   42 1
  37   22   43 1
  38   22   44 1
  39   23   24 1
  40   24   45 1
  41   24   46 1
  42   24   47 1
  43   25   26 1
  44   25   30 1
  45   26   27 1
  46   26   48 1
  47   26   49 1
  48   27   28 1
  49   27   32 1
  50   27   50 1
  51   28   29 1
  52   29   30 1
  53   29   31 1
  54   29   51 1
  55   30   52 1
  56   30   53 1
  57   31   54 1
  58   31   55 1
  59   31   56 1
  60   32   57 1
  61   32   58 1
  62   32   59 1

#	End of record

