#	Name: ASD01230200
#	Creating user name:	WinNT
#	Creation time:	15. 06. 2019 19:12

#	Modifying user name:	WinNT
#	Modification time:	15. 06. 2019 19:12

#	Program:	/corina/corina34_cracker 3.40 0067  02.08.2006

@<TRIPOS>MOLECULE
ASD01230200
  47   50    0    0    0
SMALL
NO_CHARGES


@<TRIPOS>ATOM
   1 S1             0.9598     0.9535     0.1075 S.o2    
   2 N2             0.6195    -0.6517    -0.1049 N.am    
   3 C3             1.3864    -1.4415    -0.8174 C.2     
   4 N4             2.5315    -1.0664    -1.4599 N.pl3   
   5 C5             3.0333     0.3096    -1.5011 C.3     
   6 C6             2.7572     1.0229    -0.1747 C.3     
   7 C7             0.9496    -2.8505    -0.9150 C.2     
   8 C8             1.7280    -3.7478    -1.6131 C.2     
   9 C9             2.9144    -3.2978    -2.2103 C.2     
  10 C10            3.2814    -2.0071    -2.1229 C.2     
  11 C11           -0.3081    -3.2919    -0.2703 C.ar    
  12 C12           -0.2710    -4.2094     0.7803 C.ar    
  13 C13           -1.4442    -4.6177     1.3785 C.ar    
  14 C14           -2.6616    -4.1174     0.9365 C.ar    
  15 C15           -2.7026    -3.2043    -0.1086 C.ar    
  16 C16           -1.5330    -2.7870    -0.7080 C.ar    
  17 O17           -3.8160    -4.5229     1.5279 O.3     
  18 C18           -3.6959    -5.3703     2.6722 C.3     
  19 C19           -4.9415    -5.2238     3.5485 C.3     
  20 C20           -4.8128    -6.1311     4.7737 C.3     
  21 C21           -4.6773    -7.5857     4.3191 C.3     
  22 C22           -3.4316    -7.7322     3.4429 C.3     
  23 C23           -3.5603    -6.8249     2.2177 C.3     
  24 Cl24           3.9216    -4.4201    -3.0705 Cl      
  25 O25            0.2591     1.6092    -0.9405 O.2     
  26 O26            0.6532     1.2065     1.4718 O.2     
  27 H27            4.1076     0.2951    -1.6846 H       
  28 H28            2.5384     0.8487    -2.3090 H       
  29 H29            3.0838     2.0610    -0.2360 H       
  30 H30            3.2802     0.5151     0.6357 H       
  31 H31            1.4292    -4.7821    -1.6988 H       
  32 H32            4.2025    -1.6972    -2.5941 H       
  33 H33            0.6756    -4.5995     1.1242 H       
  34 H34           -1.4163    -5.3278     2.1917 H       
  35 H35           -3.6514    -2.8173    -0.4498 H       
  36 H36           -1.5653    -2.0735    -1.5182 H       
  37 H37           -2.8133    -5.0848     3.2447 H       
  38 H38           -5.0381    -4.1875     3.8723 H       
  39 H39           -5.8240    -5.5093     2.9760 H       
  40 H40           -3.9303    -5.8456     5.3461 H       
  41 H41           -5.7003    -6.0267     5.3979 H       
  42 H42           -4.5856    -8.2321     5.1920 H       
  43 H43           -5.5598    -7.8712     3.7466 H       
  44 H44           -2.5491    -7.4467     4.0153 H       
  45 H45           -3.3351    -8.7685     3.1190 H       
  46 H46           -4.4428    -7.1104     1.6452 H       
  47 H47           -2.6729    -6.9293     1.5934 H       
@<TRIPOS>BOND
   1    1    2 am
   2    1    6 1
   3    1   25 2
   4    1   26 2
   5    2    3 2
   6    3    4 1
   7    3    7 1
   8    4    5 1
   9    4   10 1
  10    5    6 1
  11    5   27 1
  12    5   28 1
  13    6   29 1
  14    6   30 1
  15    7    8 2
  16    7   11 1
  17    8    9 1
  18    8   31 1
  19    9   10 2
  20    9   24 1
  21   10   32 1
  22   11   12 ar
  23   11   16 ar
  24   12   13 ar
  25   12   33 1
  26   13   14 ar
  27   13   34 1
  28   14   15 ar
  29   14   17 1
  30   15   16 ar
  31   15   35 1
  32   16   36 1
  33   17   18 1
  34   18   19 1
  35   18   23 1
  36   18   37 1
  37   19   20 1
  38   19   38 1
  39   19   39 1
  40   20   21 1
  41   20   40 1
  42   20   41 1
  43   21   22 1
  44   21   42 1
  45   21   43 1
  46   22   23 1
  47   22   44 1
  48   22   45 1
  49   23   46 1
  50   23   47 1

#	End of record

