#	Name: ASD01150911
#	Creating user name:	WinNT
#	Creation time:	15. 06. 2019 19:05

#	Modifying user name:	WinNT
#	Modification time:	15. 06. 2019 19:05

#	Program:	/corina/corina34_cracker 3.40 0067  02.08.2006

@<TRIPOS>MOLECULE
ASD01150911
  45   47    0    0    0
SMALL
NO_CHARGES


@<TRIPOS>ATOM
   1 C1            -0.0179     1.4702     0.0101 C.2     
   2 C2             0.0021    -0.0041     0.0020 C.2     
   3 N3             1.1783    -0.6620    -0.0122 N.am    
   4 O4            -1.0425    -0.6263     0.0082 O.2     
   5 C5             1.1971    -2.0515    -0.0199 C.2     
   6 N6             0.1293    -2.8532    -0.0149 N.2     
   7 C7             0.5117    -4.1138    -0.0258 C.2     
   8 N8             1.8684    -4.1723    -0.0385 N.pl3   
   9 C9             2.3303    -2.8551    -0.0401 C.2     
  10 C10            3.6733    -2.4273    -0.0517 C.2     
  11 O11            4.6716    -3.3368    -0.0628 O.3     
  12 O12            3.9334    -1.2376    -0.0518 O.2     
  13 C13            6.0086    -2.8325    -0.0741 C.3     
  14 C14            6.9948    -4.0021    -0.0856 C.3     
  15 S15           -0.5681    -5.5061    -0.0237 S.3     
  16 C16           -2.1692    -4.6621    -0.0045 C.3     
  17 C17            2.6897    -5.3854    -0.0531 C.3     
  18 C18            2.9590    -5.7926    -1.4788 C.ar    
  19 C19            4.0737    -5.3081    -2.1373 C.ar    
  20 C20            4.3207    -5.6816    -3.4451 C.ar    
  21 C21            3.4531    -6.5399    -4.0944 C.ar    
  22 C22            2.3388    -7.0251    -3.4356 C.ar    
  23 C23            2.0942    -6.6550    -2.1264 C.ar    
  24 O24            1.0470     2.2941     0.0044 O.3     
  25 N25            0.7086     3.4546     0.0131 N.2     
  26 C26           -0.5862     3.5845     0.0256 C.2     
  27 C27           -1.1228     2.2780     0.0190 C.2     
  28 H28            2.0116    -0.1656    -0.0172 H       
  29 H29            6.1590    -2.2217    -0.9643 H       
  30 H30            6.1754    -2.2252     0.8155 H       
  31 H31            6.8445    -4.6129     0.8046 H       
  32 H32            6.8280    -4.6094    -0.9752 H       
  33 H33            8.0147    -3.6174    -0.0942 H       
  34 H34           -2.9698    -5.4017    -0.0013 H       
  35 H35           -2.2429    -4.0430     0.8896 H       
  36 H36           -2.2590    -4.0332    -0.8902 H       
  37 H37            3.6348    -5.1904     0.4537 H       
  38 H38            2.1610    -6.1884     0.4604 H       
  39 H39            4.7516    -4.6376    -1.6300 H       
  40 H40            5.1912    -5.3026    -3.9597 H       
  41 H41            3.6456    -6.8311    -5.1164 H       
  42 H42            1.6608    -7.6953    -3.9430 H       
  43 H43            1.2237    -7.0340    -1.6117 H       
  44 H44           -1.1419     4.5105     0.0356 H       
  45 H45           -2.1622     1.9847     0.0251 H       
@<TRIPOS>BOND
   1    1    2 1
   2    1   24 1
   3    1   27 2
   4    2    3 am
   5    2    4 2
   6    3    5 1
   7    3   28 1
   8    5    6 1
   9    5    9 2
  10    6    7 2
  11    7    8 1
  12    7   15 1
  13    8    9 1
  14    8   17 1
  15    9   10 1
  16   10   11 1
  17   10   12 2
  18   11   13 1
  19   13   14 1
  20   13   29 1
  21   13   30 1
  22   14   31 1
  23   14   32 1
  24   14   33 1
  25   15   16 1
  26   16   34 1
  27   16   35 1
  28   16   36 1
  29   17   18 1
  30   17   37 1
  31   17   38 1
  32   18   19 ar
  33   18   23 ar
  34   19   20 ar
  35   19   39 1
  36   20   21 ar
  37   20   40 1
  38   21   22 ar
  39   21   41 1
  40   22   23 ar
  41   22   42 1
  42   23   43 1
  43   24   25 1
  44   25   26 2
  45   26   27 1
  46   26   44 1
  47   27   45 1

#	End of record

