#	Name: ASD00071115
#	Creating user name:	WinNT
#	Creation time:	15. 06. 2019 18:30

#	Modifying user name:	WinNT
#	Modification time:	15. 06. 2019 18:30

#	Program:	/corina/corina34_cracker 3.40 0067  02.08.2006

@<TRIPOS>MOLECULE
ASD00071115
  60   63    0    0    0
SMALL
NO_CHARGES


@<TRIPOS>ATOM
   1 N1            -0.6359     0.9916    -0.0273 N.2     
   2 C2            -0.3127    -0.2588    -0.2509 C.2     
   3 N3             0.9704    -0.6964    -0.0181 N.pl3   
   4 C4             2.0826     0.2476    -0.2057 C.3     
   5 C5             1.6548     1.5865     0.3455 C.ar    
   6 C6             2.5916     2.4930     0.7898 C.ar    
   7 C7             2.1856     3.7217     1.2818 C.ar    
   8 C8             0.8406     4.0438     1.3288 C.ar    
   9 C9            -0.1067     3.1416     0.8913 C.ar    
  10 C10            0.2948     1.8986     0.3977 C.ar    
  11 N11           -1.2588    -1.1356    -0.7189 N.pl3   
  12 C12            1.2240    -2.0747     0.4086 C.3     
  13 C13            1.3267    -2.1246     1.9112 C.ar    
  14 C14            0.1921    -2.3414     2.6779 C.ar    
  15 C15            0.2892    -2.3868     4.0614 C.ar    
  16 C16            1.5154    -2.2163     4.6751 C.ar    
  17 C17            2.6477    -2.0001     3.9132 C.ar    
  18 C18            2.5567    -1.9595     2.5290 C.ar    
  19 O19            3.6715    -1.7524     1.7800 O.3     
  20 C20            4.9201    -1.7076     2.4736 C.3     
  21 O21           -1.0143    -2.5087     2.0749 O.3     
  22 C22           -2.1405    -2.7279     2.9268 C.3     
  23 C23           -2.6162    -0.6645    -1.0049 C.3     
  24 C24           -3.2237    -1.5470    -1.9900 C.3     
  25 C25           -4.6367    -1.0852    -2.4010 C.3     
  26 C26           -5.6100    -1.5223    -1.3399 C.3     
  27 C27           -5.8683    -0.4255    -0.2892 C.3     
  28 C28           -4.5839     0.3153     0.1293 C.3     
  29 C29           -3.4161    -0.6157     0.3130 C.3     
  30 H30            2.9623    -0.1079     0.3309 H       
  31 H31            2.3109     0.3420    -1.2673 H       
  32 H32            3.6422     2.2454     0.7547 H       
  33 H33            2.9213     4.4313     1.6305 H       
  34 H34            0.5312     5.0058     1.7102 H       
  35 H35           -1.1556     3.3959     0.9303 H       
  36 H36           -1.0289    -2.0673    -0.8604 H       
  37 H37            0.4048    -2.7137     0.0789 H       
  38 H38            2.1577    -2.4252    -0.0312 H       
  39 H39           -0.5945    -2.5553     4.6591 H       
  40 H40            1.5889    -2.2517     5.7520 H       
  41 H41            3.6050    -1.8671     4.3951 H       
  42 H42            5.7329    -1.6153     1.7532 H       
  43 H43            4.9315    -0.8500     3.1462 H       
  44 H44            5.0483    -2.6235     3.0506 H       
  45 H45           -2.2625    -1.8750     3.5944 H       
  46 H46           -3.0380    -2.8454     2.3196 H       
  47 H47           -1.9799    -3.6306     3.5163 H       
  48 H48           -2.5601     0.3420    -1.4196 H       
  49 H49           -2.5900    -1.5759    -2.8764 H       
  50 H50           -3.2883    -2.5515    -1.5717 H       
  51 H51           -4.6555     0.0010    -2.4901 H       
  52 H52           -4.9070    -1.5383    -3.3548 H       
  53 H53           -6.5551    -1.7852    -1.8150 H       
  54 H54           -5.2122    -2.4045    -0.8384 H       
  55 H55           -6.5725     0.2972    -0.7012 H       
  56 H56           -6.3139    -0.8830     0.5942 H       
  57 H57           -4.3335     1.0480    -0.6379 H       
  58 H58           -4.7685     0.8388     1.0674 H       
  59 H59           -3.7786    -1.6139     0.5585 H       
  60 H60           -2.7771    -0.2475     1.1157 H       
@<TRIPOS>BOND
   1    1    2 2
   2    1   10 1
   3    2    3 1
   4    2   11 1
   5    3    4 1
   6    3   12 1
   7    4    5 1
   8    4   30 1
   9    4   31 1
  10    5    6 ar
  11    5   10 ar
  12    6    7 ar
  13    6   32 1
  14    7    8 ar
  15    7   33 1
  16    8    9 ar
  17    8   34 1
  18    9   10 ar
  19    9   35 1
  20   11   23 1
  21   11   36 1
  22   12   13 1
  23   12   37 1
  24   12   38 1
  25   13   14 ar
  26   13   18 ar
  27   14   15 ar
  28   14   21 1
  29   15   16 ar
  30   15   39 1
  31   16   17 ar
  32   16   40 1
  33   17   18 ar
  34   17   41 1
  35   18   19 1
  36   19   20 1
  37   20   42 1
  38   20   43 1
  39   20   44 1
  40   21   22 1
  41   22   45 1
  42   22   46 1
  43   22   47 1
  44   23   24 1
  45   23   29 1
  46   23   48 1
  47   24   25 1
  48   24   49 1
  49   24   50 1
  50   25   26 1
  51   25   51 1
  52   25   52 1
  53   26   27 1
  54   26   53 1
  55   26   54 1
  56   27   28 1
  57   27   55 1
  58   27   56 1
  59   28   29 1
  60   28   57 1
  61   28   58 1
  62   29   59 1
  63   29   60 1

#	End of record

