#	Name: ASD01916060
#	Creating user name:	WinNT
#	Creation time:	15. 06. 2019 20:06

#	Modifying user name:	WinNT
#	Modification time:	15. 06. 2019 20:06

#	Program:	/corina/corina34_cracker 3.40 0067  02.08.2006

@<TRIPOS>MOLECULE
ASD01916060
  42   44    0    0    0
SMALL
NO_CHARGES


@<TRIPOS>ATOM
   1 C1            -0.0169     1.3970     0.0097 C.ar    
   2 C2             0.0021    -0.0041     0.0020 C.ar    
   3 C3            -1.2137    -0.6682     0.0101 C.ar    
   4 C4            -2.3744     0.0928     0.0253 C.ar    
   5 C5            -3.7192    -0.5871     0.0346 C.3     
   6 C6             1.2105     2.1344     0.0020 C.1     
   7 C7             2.2169     2.7390    -0.0044 C.1     
   8 C8             3.4443     3.4765    -0.0122 C.ar    
   9 C9             3.4240     4.8738    -0.0045 C.ar    
  10 C10            5.8465     3.5194    -0.0292 C.ar    
  11 C11            4.6102     5.5773    -0.0121 C.ar    
  12 N12           -2.3027     1.4106     0.0321 N.ar    
  13 N13           -1.1828     2.0375     0.0187 N.ar    
  14 C14            4.6684     2.8024    -0.0217 C.ar    
  15 C15            5.8185     4.9029    -0.0273 C.ar    
  16 C16           -4.1314    -0.9517     1.4796 C.3     
  17 C17           -3.6435    -1.9199    -0.6771 C.2     
  18 N18           -4.2787    -2.8633     0.0395 N.am    
  19 C19           -4.8483    -2.3041     1.2710 C.3     
  20 C20           -4.3886    -4.2691    -0.3581 C.3     
  21 O21           -3.0908    -2.1095    -1.7399 O.2     
  22 C22           -4.5739    -3.2366     2.4524 C.3     
  23 C23           -6.3536    -2.0854     1.1063 C.3     
  24 H24            0.9346    -0.5487    -0.0102 H       
  25 H25           -1.2571    -1.7473     0.0044 H       
  26 H26           -4.4719     0.0519    -0.4271 H       
  27 H27            2.4817     5.4014     0.0070 H       
  28 H28            6.7932     2.9998    -0.0407 H       
  29 H29            4.5961     6.6572    -0.0065 H       
  30 H30            4.6918     1.7227    -0.0228 H       
  31 H31            6.7442     5.4592    -0.0332 H       
  32 H32           -3.2552    -1.0690     2.1173 H       
  33 H33           -4.8139    -0.2076     1.8901 H       
  34 H34           -3.8800    -4.4182    -1.3105 H       
  35 H35           -3.9272    -4.8989     0.4026 H       
  36 H36           -5.4402    -4.5361    -0.4620 H       
  37 H37           -3.4985    -3.3758     2.5633 H       
  38 H38           -4.9793    -2.7974     3.3639 H       
  39 H39           -5.0483    -4.2012     2.2718 H       
  40 H40           -6.8410    -3.0416     0.9159 H       
  41 H41           -6.7589    -1.6462     2.0179 H       
  42 H42           -6.5335    -1.4126     0.2678 H       
@<TRIPOS>BOND
   1    1    2 ar
   2    1    6 1
   3    1   13 ar
   4    2    3 ar
   5    2   24 1
   6    3    4 ar
   7    3   25 1
   8    4   12 ar
   9    4    5 1
  10    5   16 1
  11    5   17 1
  12    5   26 1
  13    6    7 3
  14    7    8 1
  15    8    9 ar
  16    8   14 ar
  17    9   11 ar
  18    9   27 1
  19   10   15 ar
  20   10   14 ar
  21   10   28 1
  22   11   15 ar
  23   11   29 1
  24   12   13 ar
  25   14   30 1
  26   15   31 1
  27   16   19 1
  28   16   32 1
  29   16   33 1
  30   17   18 am
  31   17   21 2
  32   18   19 1
  33   18   20 1
  34   19   22 1
  35   19   23 1
  36   20   34 1
  37   20   35 1
  38   20   36 1
  39   22   37 1
  40   22   38 1
  41   22   39 1
  42   23   40 1
  43   23   41 1
  44   23   42 1

#	End of record

