#	Name: ASD01530069
#	Creating user name:	WinNT
#	Creation time:	15. 06. 2019 19:22

#	Modifying user name:	WinNT
#	Modification time:	15. 06. 2019 19:22

#	Program:	/corina/corina34_cracker 3.40 0067  02.08.2006

@<TRIPOS>MOLECULE
ASD01530069
  51   53    0    0    0
SMALL
NO_CHARGES


@<TRIPOS>ATOM
   1 C1             0.1772     0.8923     0.0286 C.ar    
   2 C2             0.4010    -0.4847     0.1051 C.ar    
   3 C3             1.7087    -0.9722     0.1461 C.ar    
   4 C4             2.7719    -0.0928     0.1109 C.ar    
   5 C5             1.2466     1.7583    -0.0057 C.ar    
   6 C6             1.3399     3.2645    -0.0850 C.3     
   7 C7             2.5441     1.2672     0.0358 C.ar    
   8 C8             3.4747     2.4570    -0.0175 C.3     
   9 O9             2.6751     3.6008     0.3343 O.3     
  10 C10            4.6138     2.2807     0.9886 C.3     
  11 C11            5.5454     3.4926     0.9217 C.3     
  12 C12            6.6846     3.3163     1.9277 C.3     
  13 N13            7.5790     4.4798     1.8635 N.3     
  14 C14            8.5451     4.4629     2.9700 C.3     
  15 C15            8.2653     4.5453     0.5664 C.3     
  16 C16            4.0302     2.6198    -1.4088 C.ar    
  17 C17            3.8719     3.8180    -2.0800 C.ar    
  18 C18            4.3813     3.9686    -3.3558 C.ar    
  19 C19            5.0505     2.9188    -3.9618 C.ar    
  20 C20            5.2084     1.7192    -3.2887 C.ar    
  21 C21            4.7027     1.5727    -2.0109 C.ar    
  22 C22           -0.7061    -1.3922     0.1417 C.1     
  23 N23           -1.5844    -2.1121     0.1708 N.1     
  24 F24            5.5485     3.0647    -5.2091 F       
  25 C25            9.2884     5.7993     3.0185 C.3     
  26 C26           10.2946     5.7817     4.1710 C.3     
  27 H27           -0.8317     1.2759    -0.0079 H       
  28 H28            1.8879    -2.0356     0.2055 H       
  29 H29            3.7838    -0.4690     0.1426 H       
  30 H30            1.1727     3.5977    -1.1092 H       
  31 H31            0.6101     3.7217     0.5832 H       
  32 H32            4.2009     2.1949     1.9937 H       
  33 H33            5.1746     1.3776     0.7479 H       
  34 H34            5.9583     3.5784    -0.0834 H       
  35 H35            4.9846     4.3957     1.1624 H       
  36 H36            6.2716     3.2305     2.9328 H       
  37 H37            7.2454     2.4132     1.6870 H       
  38 H38            8.0173     4.3063     3.9108 H       
  39 H39            9.2601     3.6548     2.8157 H       
  40 H40            7.5272     4.6274    -0.2315 H       
  41 H41            8.9210     5.4158     0.5457 H       
  42 H42            8.8570     3.6413     0.4223 H       
  43 H43            3.3496     4.6366    -1.6072 H       
  44 H44            4.2572     4.9046    -3.8800 H       
  45 H45            5.7302     0.8997    -3.7604 H       
  46 H46            4.8294     0.6384    -1.4841 H       
  47 H47            9.8162     5.9559     2.0778 H       
  48 H48            8.5734     6.6074     3.1729 H       
  49 H49           11.0097     4.9736     4.0167 H       
  50 H50           10.8242     6.7338     4.2055 H       
  51 H51            9.7669     5.6251     5.1118 H       
@<TRIPOS>BOND
   1    1    2 ar
   2    1    5 ar
   3    1   27 1
   4    2    3 ar
   5    2   22 1
   6    3    4 ar
   7    3   28 1
   8    4    7 ar
   9    4   29 1
  10    5    7 ar
  11    5    6 1
  12    6    9 1
  13    6   30 1
  14    6   31 1
  15    7    8 1
  16    8    9 1
  17    8   10 1
  18    8   16 1
  19   10   11 1
  20   10   32 1
  21   10   33 1
  22   11   12 1
  23   11   34 1
  24   11   35 1
  25   12   13 1
  26   12   36 1
  27   12   37 1
  28   13   14 1
  29   13   15 1
  30   14   25 1
  31   14   38 1
  32   14   39 1
  33   15   40 1
  34   15   41 1
  35   15   42 1
  36   16   17 ar
  37   16   21 ar
  38   17   18 ar
  39   17   43 1
  40   18   19 ar
  41   18   44 1
  42   19   20 ar
  43   19   24 1
  44   20   21 ar
  45   20   45 1
  46   21   46 1
  47   22   23 3
  48   25   26 1
  49   25   47 1
  50   25   48 1
  51   26   49 1
  52   26   50 1
  53   26   51 1

#	End of record

