#	Name: ASD04840014
#	Creating user name:	WinNT
#	Creation time:	15. 06. 2019 20:52

#	Modifying user name:	WinNT
#	Modification time:	15. 06. 2019 20:52

#	Program:	/corina/corina34_cracker 3.40 0067  02.08.2006

@<TRIPOS>MOLECULE
ASD04840014
  55   57    0    0    0
SMALL
NO_CHARGES


@<TRIPOS>ATOM
   1 C1            -0.0187     1.5258     0.0104 C.3     
   2 C2             0.0021    -0.0041     0.0020 C.3     
   3 O3             0.7043    -0.4851     1.1784 O.3     
   4 C4             0.8118    -1.8153     1.3225 C.2     
   5 O5             0.3348    -2.5533     0.4932 O.2     
   6 C6             1.5273    -2.3882     2.5187 C.3     
   7 P7             2.8263    -1.2303     3.0618 P.3     
   8 O8             2.2109     0.0647     3.4287 O.2     
   9 O9             3.5907    -1.8424     4.3398 O.3     
  10 C10            4.5938    -1.1264     5.0632 C.3     
  11 C11            5.1109    -1.9942     6.2124 C.3     
  12 O12            3.8786    -1.0043     1.8645 O.3     
  13 C13            4.9568    -0.0696     1.9420 C.3     
  14 C14            5.7590    -0.1073     0.6397 C.3     
  15 C15            0.5272    -2.6030     3.6565 C.3     
  16 C16            1.2428    -3.1759     4.8527 C.ar    
  17 C17            1.1468    -2.5260     6.0761 C.ar    
  18 C18            1.7983    -3.0422     7.1784 C.ar    
  19 Cl19           1.6993    -2.2559     8.7229 Cl      
  20 C20            2.5436    -4.2227     7.0149 C.ar    
  21 C21            2.5925    -4.8245     5.7379 C.ar    
  22 N22            1.9391    -4.2823     4.7153 N.ar    
  23 C23            3.3726    -6.0562     5.5761 C.ar    
  24 C24            3.4641    -6.7029     4.3423 C.ar    
  25 C25            4.2009    -7.8479     4.2318 C.ar    
  26 C26            4.8610    -8.3768     5.3343 C.ar    
  27 C27            4.7903    -7.7672     6.5528 C.ar    
  28 C28            4.0423    -6.5906     6.6998 C.ar    
  29 C29            3.9513    -5.9381     7.9513 C.ar    
  30 C30            3.2354    -4.8049     8.1006 C.ar    
  31 H31            1.0039     1.9031     0.0027 H       
  32 H32           -0.5459     1.8868    -0.8726 H       
  33 H33           -0.5289     1.8773     0.9072 H       
  34 H34           -1.0205    -0.3814     0.0098 H       
  35 H35            0.5123    -0.3556    -0.8948 H       
  36 H36            1.9806    -3.3420     2.2485 H       
  37 H37            5.4184    -0.8805     4.3942 H       
  38 H38            4.1659    -0.2081     5.4654 H       
  39 H39            5.5387    -2.9125     5.8102 H       
  40 H40            5.8760    -1.4481     6.7642 H       
  41 H41            4.2863    -2.2401     6.8814 H       
  42 H42            4.5580     0.9333     2.0942 H       
  43 H43            5.6065    -0.3328     2.7767 H       
  44 H44            5.1093     0.1559    -0.1950 H       
  45 H45            6.5814     0.6056     0.6988 H       
  46 H46            6.1578    -1.1103     0.4875 H       
  47 H47            0.0740    -1.6492     3.9267 H       
  48 H48           -0.2495    -3.2953     3.3318 H       
  49 H49            0.5652    -1.6204     6.1648 H       
  50 H50            2.9545    -6.3002     3.4795 H       
  51 H51            4.2709    -8.3478     3.2770 H       
  52 H52            5.4379    -9.2833     5.2251 H       
  53 H53            5.3082    -8.1897     7.4011 H       
  54 H54            4.4669    -6.3547     8.8040 H       
  55 H55            3.1884    -4.3334     9.0712 H       
@<TRIPOS>BOND
   1    1    2 1
   2    1   31 1
   3    1   32 1
   4    1   33 1
   5    2    3 1
   6    2   34 1
   7    2   35 1
   8    3    4 1
   9    4    5 2
  10    4    6 1
  11    6    7 1
  12    6   15 1
  13    6   36 1
  14    7    8 2
  15    7    9 1
  16    7   12 1
  17    9   10 1
  18   10   11 1
  19   10   37 1
  20   10   38 1
  21   11   39 1
  22   11   40 1
  23   11   41 1
  24   12   13 1
  25   13   14 1
  26   13   42 1
  27   13   43 1
  28   14   44 1
  29   14   45 1
  30   14   46 1
  31   15   16 1
  32   15   47 1
  33   15   48 1
  34   16   17 ar
  35   16   22 ar
  36   17   18 ar
  37   17   49 1
  38   18   19 1
  39   18   20 ar
  40   20   21 ar
  41   20   30 ar
  42   21   22 ar
  43   21   23 ar
  44   23   24 ar
  45   23   28 ar
  46   24   25 ar
  47   24   50 1
  48   25   26 ar
  49   25   51 1
  50   26   27 ar
  51   26   52 1
  52   27   28 ar
  53   27   53 1
  54   28   29 ar
  55   29   30 ar
  56   29   54 1
  57   30   55 1

#	End of record

