#	Name: ASD02039266
#	Creating user name:	WinNT
#	Creation time:	15. 06. 2019 20:18

#	Modifying user name:	WinNT
#	Modification time:	15. 06. 2019 20:18

#	Program:	/corina/corina34_cracker 3.40 0067  02.08.2006

@<TRIPOS>MOLECULE
ASD02039266
  50   53    0    0    0
SMALL
NO_CHARGES


@<TRIPOS>ATOM
   1 N1             0.0022     1.2683     0.3703 N.2     
   2 C2             0.0063    -0.0135     0.0886 C.2     
   3 N3             1.3073    -0.3753    -0.1102 N.pl3   
   4 C4             2.0407     0.7638     0.0725 C.2     
   5 N5             1.2049     1.7214     0.3595 N.2     
   6 N6            -1.1014    -0.8434     0.0087 N.pl3   
   7 C7            -2.3885    -0.3063     0.1299 C.ar    
   8 C8            -2.6361     1.0012    -0.2675 C.ar    
   9 C9            -3.9061     1.5301    -0.1476 C.ar    
  10 C10           -4.9343     0.7559     0.3695 C.ar    
  11 C11           -4.6879    -0.5501     0.7670 C.ar    
  12 C12           -3.4199    -1.0826     0.6421 C.ar    
  13 C13            3.5385     0.8888    -0.0374 C.3     
  14 O14            3.8917     1.2161    -1.3829 O.3     
  15 C15            5.2154     1.3659    -1.6545 C.ar    
  16 C16            5.6223     1.6822    -2.9354 C.ar    
  17 C17            6.1538     1.2053    -0.6382 C.ar    
  18 C18            7.4991     1.3543    -0.8948 C.ar    
  19 C19            7.9308     1.6675    -2.1791 C.ar    
  20 C20            6.9853     1.8355    -3.2085 C.ar    
  21 N21            9.2742     1.8204    -2.4566 N.am    
  22 C22            9.6940     2.1228    -3.6975 C.2     
  23 C23            8.7870     2.2968    -4.7646 C.2     
  24 C24            7.4537     2.1647    -4.5561 C.2     
  25 O25           10.8882     2.2504    -3.9060 O.2     
  26 O26           -6.1847     1.2775     0.4872 O.3     
  27 C27           -7.1954     0.4242     1.0277 C.3     
  28 F28           -7.3347    -0.7063     0.2154 F       
  29 F29           -6.8301     0.0285     2.3189 F       
  30 C30            1.8605    -1.8641    -1.9700 C.3     
  31 C31            1.8128    -1.7080    -0.4487 C.3     
  32 H32           -0.9845    -1.7961    -0.1310 H       
  33 H33           -1.8355     1.6042    -0.6698 H       
  34 H34           -4.0987     2.5470    -0.4562 H       
  35 H35           -5.4889    -1.1519     1.1702 H       
  36 H36           -3.2282    -2.0995     0.9513 H       
  37 H37            3.8875     1.6755     0.6314 H       
  38 H38            4.0035    -0.0571     0.2404 H       
  39 H39            4.8927     1.8100    -3.7214 H       
  40 H40            5.8237     0.9620     0.3609 H       
  41 H41            8.2181     1.2282    -0.0989 H       
  42 H42            9.9248     1.7084    -1.7459 H       
  43 H43            9.1559     2.5398    -5.7501 H       
  44 H44            6.7528     2.2959    -5.3671 H       
  45 H45           -8.1425     0.9623     1.0669 H       
  46 H46            2.5209    -1.1069    -2.3924 H       
  47 H47            2.2366    -2.8557    -2.2218 H       
  48 H48            0.8578    -1.7410    -2.3794 H       
  49 H49            2.8155    -1.8310    -0.0392 H       
  50 H50            1.1524    -2.4652    -0.0263 H       
@<TRIPOS>BOND
   1    1    2 2
   2    1    5 1
   3    2    3 1
   4    2    6 1
   5    3    4 1
   6    3   31 1
   7    4    5 2
   8    4   13 1
   9    6    7 1
  10    6   32 1
  11    7    8 ar
  12    7   12 ar
  13    8    9 ar
  14    8   33 1
  15    9   10 ar
  16    9   34 1
  17   10   11 ar
  18   10   26 1
  19   11   12 ar
  20   11   35 1
  21   12   36 1
  22   13   14 1
  23   13   37 1
  24   13   38 1
  25   14   15 1
  26   15   16 ar
  27   15   17 ar
  28   16   20 ar
  29   16   39 1
  30   17   18 ar
  31   17   40 1
  32   18   19 ar
  33   18   41 1
  34   19   20 ar
  35   19   21 1
  36   20   24 1
  37   21   22 am
  38   21   42 1
  39   22   23 1
  40   22   25 2
  41   23   24 2
  42   23   43 1
  43   24   44 1
  44   26   27 1
  45   27   28 1
  46   27   29 1
  47   27   45 1
  48   30   31 1
  49   30   46 1
  50   30   47 1
  51   30   48 1
  52   31   49 1
  53   31   50 1

#	End of record

