#	Name: ASD03330810
#	Creating user name:	WinNT
#	Creation time:	15. 06. 2019 20:38

#	Modifying user name:	WinNT
#	Modification time:	15. 06. 2019 20:38

#	Program:	/corina/corina34_cracker 3.40 0067  02.08.2006

@<TRIPOS>MOLECULE
ASD03330810
  60   62    0    0    0
SMALL
NO_CHARGES


@<TRIPOS>ATOM
   1 C1             1.0197     1.1021     1.5822 C.2     
   2 N2             1.4737    -0.1140     1.9869 N.pl3   
   3 C3             2.1110     1.8486     1.2561 C.2     
   4 N4             3.2070     1.0817     1.4467 N.2     
   5 C5             2.8336    -0.0998     1.8797 C.2     
   6 C6             3.7362    -1.2272     2.1979 C.ar    
   7 C7             2.0988     3.2431     0.7803 C.2     
   8 O8             1.0424     3.8313     0.6482 O.2     
   9 C9             3.2459     5.2534     0.0187 C.3     
  10 N10            3.2581     3.8669     0.4916 N.am    
  11 C11            4.5639     5.9071     0.3452 C.2     
  12 C12            0.6360    -1.2187     2.4617 C.3     
  13 C13           -0.5404    -1.4070     1.4987 C.3     
  14 C14           -1.6963    -0.5024     1.9137 C.3     
  15 N15           -1.2044     0.7532     2.4841 N.3     
  16 C16           -0.4259     1.5188     1.4993 C.3     
  17 N17            4.6283     7.2414     0.5242 N.am    
  18 O18            5.5667     5.2325     0.4468 O.2     
  19 C19            5.9243     7.8900     0.7382 C.3     
  20 C20            3.0278     5.2738    -1.4956 C.3     
  21 C21            1.6352     4.7280    -1.8176 C.3     
  22 C22            3.1435     6.7107    -2.0082 C.3     
  23 C23            4.0865     4.4030    -2.1751 C.3     
  24 C24           -2.3109     1.5570     3.0204 C.3     
  25 C25            4.7444    -1.5932     1.3023 C.ar    
  26 C26            5.5842    -2.6482     1.6065 C.ar    
  27 C27            5.4269    -3.3402     2.7942 C.ar    
  28 C28            4.4291    -2.9810     3.6850 C.ar    
  29 C29            3.5885    -1.9264     3.3964 C.ar    
  30 Br30           6.5789    -4.7830     3.2028 Br      
  31 F31            4.8976    -0.9183     0.1420 F       
  32 H32            2.4390     5.7976     0.5094 H       
  33 H33            4.1006     3.3978     0.5970 H       
  34 H34            1.2267    -2.1341     2.4985 H       
  35 H35            0.2582    -0.9875     3.4576 H       
  36 H36           -0.2252    -1.1513     0.4871 H       
  37 H37           -0.8667    -2.4467     1.5239 H       
  38 H38           -2.3096    -0.2822     1.0399 H       
  39 H39           -2.3053    -1.0182     2.6561 H       
  40 H40           -0.5112     2.5838     1.7156 H       
  41 H41           -0.8063     1.3176     0.4979 H       
  42 H42            3.8165     7.7722     0.5113 H       
  43 H43            6.3917     7.4813     1.6341 H       
  44 H44            6.5680     7.7085    -0.1224 H       
  45 H45            5.7775     8.9629     0.8623 H       
  46 H46            0.8809     5.3484    -1.3335 H       
  47 H47            1.4798     4.7426    -2.8964 H       
  48 H48            1.5527     3.7043    -1.4524 H       
  49 H49            4.1656     7.0640    -1.8716 H       
  50 H50            2.8873     6.7404    -3.0672 H       
  51 H51            2.4601     7.3514    -1.4509 H       
  52 H52            4.0040     3.3793    -1.8099 H       
  53 H53            3.9311     4.4176    -3.2539 H       
  54 H54            5.0786     4.7918    -1.9457 H       
  55 H55           -2.8228     0.9950     3.8016 H       
  56 H56           -1.9176     2.4838     3.4379 H       
  57 H57           -3.0132     1.7884     2.2196 H       
  58 H58            6.3641    -2.9330     0.9159 H       
  59 H59            4.3118    -3.5254     4.6104 H       
  60 H60            2.8111    -1.6482     4.0926 H       
@<TRIPOS>BOND
   1    1    2 1
   2    1    3 2
   3    1   16 1
   4    2   12 1
   5    2    5 1
   6    3    4 1
   7    3    7 1
   8    4    5 2
   9    5    6 1
  10    6   25 ar
  11    6   29 ar
  12    7    8 2
  13    7   10 am
  14    9   10 1
  15    9   11 1
  16    9   20 1
  17    9   32 1
  18   10   33 1
  19   11   18 2
  20   11   17 am
  21   12   13 1
  22   12   34 1
  23   12   35 1
  24   13   14 1
  25   13   36 1
  26   13   37 1
  27   14   15 1
  28   14   38 1
  29   14   39 1
  30   15   16 1
  31   15   24 1
  32   16   40 1
  33   16   41 1
  34   17   19 1
  35   17   42 1
  36   19   43 1
  37   19   44 1
  38   19   45 1
  39   20   21 1
  40   20   22 1
  41   20   23 1
  42   21   46 1
  43   21   47 1
  44   21   48 1
  45   22   49 1
  46   22   50 1
  47   22   51 1
  48   23   52 1
  49   23   53 1
  50   23   54 1
  51   24   55 1
  52   24   56 1
  53   24   57 1
  54   25   26 ar
  55   25   31 1
  56   26   27 ar
  57   26   58 1
  58   27   28 ar
  59   27   30 1
  60   28   29 ar
  61   28   59 1
  62   29   60 1

#	End of record

