#	Name: ASD03090413
#	Creating user name:	WinNT
#	Creation time:	15. 06. 2019 20:28

#	Modifying user name:	WinNT
#	Modification time:	15. 06. 2019 20:28

#	Program:	/corina/corina34_cracker 3.40 0067  02.08.2006

@<TRIPOS>MOLECULE
ASD03090413
  35   37    0    0    0
SMALL
NO_CHARGES


@<TRIPOS>ATOM
   1 C1             0.0521     1.2481    -0.0230 C.ar    
   2 C2            -0.9424     1.7829     0.7743 C.ar    
   3 C3            -2.1848     1.1708     0.8084 C.ar    
   4 C4            -2.3828     0.0323     0.0317 C.ar    
   5 C5            -1.3342    -0.4449    -0.7440 C.ar    
   6 N6            -0.1691     0.1712    -0.7515 N.ar    
   7 N7            -3.6201    -0.6218     0.0328 N.am    
   8 C8            -4.7585     0.0901     0.1493 C.2     
   9 O9            -4.7086     1.2871     0.3382 O.2     
  10 C10           -6.0935    -0.6012     0.0447 C.3     
  11 C11            1.4060     1.9085    -0.0653 C.3     
  12 F12            2.2247     1.3577     0.9265 F       
  13 F13            1.9882     1.6988    -1.3200 F       
  14 F14            1.2622     3.2820     0.1584 F       
  15 N15          -10.2184     3.2193     0.3860 N.pl3   
  16 C16          -10.3465     3.5445    -0.9369 C.2     
  17 C17           -9.4714     2.8371    -1.6689 C.2     
  18 C18           -8.7217     1.9895    -0.7387 C.ar    
  19 C19           -7.6983     1.0516    -0.8897 C.ar    
  20 C20           -7.1977     0.4112     0.2085 C.ar    
  21 C21           -7.6984     0.6854     1.4740 C.ar    
  22 C22           -8.7081     1.6066     1.6457 C.ar    
  23 C23           -9.2328     2.2705     0.5414 C.ar    
  24 H24           -0.7529     2.6675     1.3642 H       
  25 H25           -2.9800     1.5667     1.4227 H       
  26 H26           -1.4761    -1.3274    -1.3502 H       
  27 H27           -3.6582    -1.5875    -0.0502 H       
  28 H28           -6.1801    -1.0785    -0.9314 H       
  29 H29           -6.1739    -1.3562     0.8267 H       
  30 H30          -10.7412     3.6030     1.1073 H       
  31 H31          -11.0479     4.2636    -1.3335 H       
  32 H32           -9.3443     2.8839    -2.7404 H       
  33 H33           -7.3044     0.8326    -1.8712 H       
  34 H34           -7.2924     0.1710     2.3325 H       
  35 H35           -9.0911     1.8127     2.6342 H       
@<TRIPOS>BOND
   1    1    2 ar
   2    1   11 1
   3    1    6 ar
   4    2    3 ar
   5    2   24 1
   6    3    4 ar
   7    3   25 1
   8    4    5 ar
   9    4    7 1
  10    5    6 ar
  11    5   26 1
  12    7    8 am
  13    7   27 1
  14    8    9 2
  15    8   10 1
  16   10   20 1
  17   10   28 1
  18   10   29 1
  19   11   12 1
  20   11   13 1
  21   11   14 1
  22   15   16 1
  23   15   23 1
  24   15   30 1
  25   16   17 2
  26   16   31 1
  27   17   18 1
  28   17   32 1
  29   18   19 ar
  30   18   23 ar
  31   19   20 ar
  32   19   33 1
  33   20   21 ar
  34   21   22 ar
  35   21   34 1
  36   22   23 ar
  37   22   35 1

#	End of record

