#	Name: ASD08170344
#	Creating user name:	WinNT
#	Creation time:	15. 06. 2019 21:17

#	Modifying user name:	WinNT
#	Modification time:	15. 06. 2019 21:17

#	Program:	/corina/corina34_cracker 3.40 0067  02.08.2006

@<TRIPOS>MOLECULE
ASD08170344
  75   78    0    0    0
SMALL
NO_CHARGES


@<TRIPOS>ATOM
   1 C1            -0.0167     1.3782     0.0096 C.ar    
   2 C2             0.0021    -0.0041     0.0020 C.ar    
   3 C3             1.2069    -0.6820    -0.0131 C.ar    
   4 C4             2.3981     0.0193    -0.0203 C.ar    
   5 C5             2.3864     1.4049    -0.0127 C.ar    
   6 C6             1.1738     2.0873     0.0021 C.ar    
   7 C7             1.2215    -2.1889    -0.0214 C.3     
   8 C8             1.2128    -2.6836    -1.4448 C.2     
   9 N9             1.2234    -4.0073    -1.6983 N.am    
  10 C10            1.2153    -4.4638    -3.0120 C.2     
  11 S11            1.2268    -6.1064    -3.4984 S.3     
  12 C12            1.2057    -5.5867    -5.1839 C.2     
  13 N13            1.1929    -4.2916    -5.1968 N.2     
  14 N14            1.1923    -3.7155    -4.0734 N.2     
  15 O15            1.1964    -1.8906    -2.3623 O.2     
  16 O16            3.5575     2.0963    -0.0193 O.3     
  17 C17            1.2035    -6.4877    -6.3919 C.3     
  18 C18            2.6451    -6.7780    -6.8142 C.3     
  19 C19            2.6429    -7.6928    -8.0406 C.3     
  20 C20            4.0845    -7.9831    -8.4630 C.3     
  21 C21            4.0823    -8.8841    -9.6710 C.2     
  22 N22            4.0672    -8.4932   -10.9046 N.2     
  23 S23            4.1068   -10.5958    -9.6406 S.3     
  24 C24            4.0871   -10.6215   -11.3525 C.2     
  25 N25            4.0688    -9.4014   -11.7836 N.2     
  26 C26            4.0953   -11.8583   -12.2135 C.3     
  27 C27            5.5186   -12.2496   -12.5171 C.2     
  28 O28            6.4320   -11.5920   -12.0795 O.2     
  29 C29            5.8019   -13.4615   -13.3668 C.3     
  30 C30            7.2916   -13.6318   -13.5181 C.ar    
  31 C31            7.9952   -14.3943   -12.6039 C.ar    
  32 C32            7.9507   -13.0302   -14.5735 C.ar    
  33 C33            9.3174   -13.1842   -14.7172 C.ar    
  34 C34           10.0290   -13.9423   -13.8019 C.ar    
  35 C35            9.3645   -14.5522   -12.7417 C.ar    
  36 O36           10.0587   -15.2971   -11.8403 O.3     
  37 C37            9.3111   -15.8932   -10.7783 C.3     
  38 C38            4.7634     1.3298    -0.0340 C.3     
  39 O39           11.3731   -14.0951   -13.9421 O.3     
  40 C40           11.9871   -13.4456   -15.0570 C.3     
  41 O41            1.1571     3.4471     0.0091 O.3     
  42 C42           -0.1240     4.0801     0.0242 C.3     
  43 H43           -0.9592     1.9054     0.0170 H       
  44 H44           -0.9265    -0.5556     0.0083 H       
  45 H45            3.3379    -0.5127    -0.0314 H       
  46 H46            2.1198    -2.5463     0.4820 H       
  47 H47            0.3400    -2.5637     0.4989 H       
  48 H48            1.2365    -4.6415    -0.9645 H       
  49 H49            0.7014    -7.4234    -6.1463 H       
  50 H50            0.6770    -5.9968    -7.2104 H       
  51 H51            3.1472    -5.8422    -7.0598 H       
  52 H52            3.1716    -7.2689    -5.9958 H       
  53 H53            2.1408    -8.6285    -7.7950 H       
  54 H54            2.1163    -7.2019    -8.8591 H       
  55 H55            4.5866    -7.0473    -8.7086 H       
  56 H56            4.6110    -8.4740    -7.6445 H       
  57 H57            3.5996   -12.6724   -11.6847 H       
  58 H58            3.5674   -11.6558   -13.1454 H       
  59 H59            5.3817   -14.3465   -12.8891 H       
  60 H60            5.3496   -13.3299   -14.3498 H       
  61 H61            7.4772   -14.8664   -11.7822 H       
  62 H62            7.3971   -12.4389   -15.2878 H       
  63 H63            9.8300   -12.7137   -15.5432 H       
  64 H64            8.8201   -15.1127   -10.1971 H       
  65 H65            8.5592   -16.5634   -11.1949 H       
  66 H66            9.9838   -16.4581   -10.1330 H       
  67 H67            4.8022     0.6965     0.8523 H       
  68 H68            4.7865     0.7060    -0.9276 H       
  69 H69            5.6213     2.0022    -0.0379 H       
  70 H70           11.5514   -13.8226   -15.9823 H       
  71 H71           11.8201   -12.3706   -14.9884 H       
  72 H72           13.0581   -13.6480   -15.0508 H       
  73 H73           -0.6856     3.7849    -0.8620 H       
  74 H74           -0.6690     3.7759     0.9178 H       
  75 H75            0.0056     5.1624     0.0285 H       
@<TRIPOS>BOND
   1    1    2 ar
   2    1    6 ar
   3    1   43 1
   4    2    3 ar
   5    2   44 1
   6    3    4 ar
   7    3    7 1
   8    4    5 ar
   9    4   45 1
  10    5    6 ar
  11    5   16 1
  12    6   41 1
  13    7    8 1
  14    7   46 1
  15    7   47 1
  16    8    9 am
  17    8   15 2
  18    9   10 1
  19    9   48 1
  20   10   11 1
  21   10   14 2
  22   11   12 1
  23   12   13 2
  24   12   17 1
  25   13   14 1
  26   16   38 1
  27   17   18 1
  28   17   49 1
  29   17   50 1
  30   18   19 1
  31   18   51 1
  32   18   52 1
  33   19   20 1
  34   19   53 1
  35   19   54 1
  36   20   21 1
  37   20   55 1
  38   20   56 1
  39   21   22 2
  40   21   23 1
  41   22   25 1
  42   23   24 1
  43   24   25 2
  44   24   26 1
  45   26   27 1
  46   26   57 1
  47   26   58 1
  48   27   28 2
  49   27   29 1
  50   29   30 1
  51   29   59 1
  52   29   60 1
  53   30   31 ar
  54   30   32 ar
  55   31   35 ar
  56   31   61 1
  57   32   33 ar
  58   32   62 1
  59   33   34 ar
  60   33   63 1
  61   34   35 ar
  62   34   39 1
  63   35   36 1
  64   36   37 1
  65   37   64 1
  66   37   65 1
  67   37   66 1
  68   38   67 1
  69   38   68 1
  70   38   69 1
  71   39   40 1
  72   40   70 1
  73   40   71 1
  74   40   72 1
  75   41   42 1
  76   42   73 1
  77   42   74 1
  78   42   75 1

#	End of record

