#	Name: ASD01150930
#	Creating user name:	WinNT
#	Creation time:	15. 06. 2019 19:05

#	Modifying user name:	WinNT
#	Modification time:	15. 06. 2019 19:05

#	Program:	/corina/corina34_cracker 3.40 0067  02.08.2006

@<TRIPOS>MOLECULE
ASD01150930
  55   58    0    0    0
SMALL
NO_CHARGES


@<TRIPOS>ATOM
   1 C1            -0.0180     1.4730     0.0101 C.ar    
   2 C2             0.0021    -0.0041     0.0020 C.2     
   3 N3            -1.1558    -0.6938     0.0094 N.am    
   4 O4             1.0629    -0.5975    -0.0113 O.2     
   5 C5            -1.1370    -2.0835     0.0017 C.2     
   6 N6            -0.0478    -2.8559    -0.0124 N.2     
   7 C7            -0.3959    -4.1265    -0.0152 C.2     
   8 N8            -1.7505    -4.2219    -0.0028 N.pl3   
   9 C9            -2.2479    -2.9177     0.0135 C.2     
  10 C10           -3.6019    -2.5267     0.0301 C.2     
  11 O11           -4.5752    -3.4629     0.0314 O.3     
  12 O12           -3.8942    -1.3445     0.0433 O.2     
  13 C13           -5.9254    -2.9951     0.0487 C.3     
  14 C14           -6.8796    -4.1911     0.0475 C.3     
  15 S15            0.7214    -5.4888    -0.0324 S.3     
  16 C16            2.2989    -4.6015    -0.0423 C.3     
  17 C17           -2.5386    -5.4569    -0.0013 C.3     
  18 C18           -2.7959    -5.8869     1.4199 C.ar    
  19 C19           -3.9230    -5.4401     2.0839 C.ar    
  20 C20           -4.1589    -5.8345     3.3876 C.ar    
  21 C21           -3.2680    -6.6760     4.0272 C.ar    
  22 C22           -2.1414    -7.1235     3.3629 C.ar    
  23 C23           -1.9077    -6.7326     2.0577 C.ar    
  24 C24            1.1752     2.1766     0.0025 C.ar    
  25 C25            1.1487     3.5793     0.0103 C.ar    
  26 C26           -0.0983     4.2542     0.0258 C.ar    
  27 C27           -1.2929     3.5107     0.0332 C.ar    
  28 C28           -1.2486     2.1544     0.0197 C.ar    
  29 C29            2.3388     4.3289     0.0035 C.ar    
  30 C30            2.2785     5.6885     0.0118 C.ar    
  31 C31            1.0528     6.3515     0.0269 C.ar    
  32 C32           -0.1193     5.6589     0.0339 C.ar    
  33 H33           -2.0023    -0.2203     0.0200 H       
  34 H34           -6.0917    -2.3985     0.9456 H       
  35 H35           -6.1091    -2.3829    -0.8342 H       
  36 H36           -6.7132    -4.7878    -0.8495 H       
  37 H37           -6.6959    -4.8034     0.9304 H       
  38 H38           -7.9094    -3.8343     0.0606 H       
  39 H39            2.3556    -3.9710    -0.9296 H       
  40 H40            2.3719    -3.9801     0.8502 H       
  41 H41            3.1193    -5.3190    -0.0535 H       
  42 H42           -3.4889    -5.2821    -0.5057 H       
  43 H43           -1.9885    -6.2396    -0.5238 H       
  44 H44           -4.6190    -4.7827     1.5843 H       
  45 H45           -5.0391    -5.4849     3.9067 H       
  46 H46           -3.4520    -6.9836     5.0460 H       
  47 H47           -1.4452    -7.7807     3.8626 H       
  48 H48           -1.0274    -7.0822     1.5387 H       
  49 H49            2.1179     1.6498    -0.0090 H       
  50 H50           -2.2454     4.0197     0.0451 H       
  51 H51           -2.1699     1.5908     0.0252 H       
  52 H52            3.2957     3.8282    -0.0079 H       
  53 H53            3.1937     6.2619     0.0069 H       
  54 H54            1.0324     7.4313     0.0332 H       
  55 H55           -1.0612     6.1871     0.0453 H       
@<TRIPOS>BOND
   1    1    2 1
   2    1   24 ar
   3    1   28 ar
   4    2    3 am
   5    2    4 2
   6    3    5 1
   7    3   33 1
   8    5    6 1
   9    5    9 2
  10    6    7 2
  11    7    8 1
  12    7   15 1
  13    8    9 1
  14    8   17 1
  15    9   10 1
  16   10   11 1
  17   10   12 2
  18   11   13 1
  19   13   14 1
  20   13   34 1
  21   13   35 1
  22   14   36 1
  23   14   37 1
  24   14   38 1
  25   15   16 1
  26   16   39 1
  27   16   40 1
  28   16   41 1
  29   17   18 1
  30   17   42 1
  31   17   43 1
  32   18   19 ar
  33   18   23 ar
  34   19   20 ar
  35   19   44 1
  36   20   21 ar
  37   20   45 1
  38   21   22 ar
  39   21   46 1
  40   22   23 ar
  41   22   47 1
  42   23   48 1
  43   24   25 ar
  44   24   49 1
  45   25   26 ar
  46   25   29 ar
  47   26   27 ar
  48   26   32 ar
  49   27   28 ar
  50   27   50 1
  51   28   51 1
  52   29   30 ar
  53   29   52 1
  54   30   31 ar
  55   30   53 1
  56   31   32 ar
  57   31   54 1
  58   32   55 1

#	End of record

