#	Name: ASD01816959
#	Creating user name:	WinNT
#	Creation time:	15. 06. 2019 19:36

#	Modifying user name:	WinNT
#	Modification time:	15. 06. 2019 19:36

#	Program:	/corina/corina34_cracker 3.40 0067  02.08.2006

@<TRIPOS>MOLECULE
ASD01816959
  54   58    0    0    0
SMALL
NO_CHARGES


@<TRIPOS>ATOM
   1 C1            -0.0159     1.3197     0.0093 C.ar    
   2 N2             0.0021    -0.0041     0.0020 N.ar    
   3 C3             1.1158    -0.6999    -0.0123 C.ar    
   4 C4             2.3544    -0.0408    -0.0206 C.ar    
   5 C5             2.3621     1.3769    -0.0130 C.ar    
   6 C6             1.1366     2.0526     0.0022 C.ar    
   7 C7             3.5723    -0.7485    -0.0364 C.ar    
   8 C8             4.7597    -0.0948    -0.0447 C.ar    
   9 C9             4.8218     1.3071    -0.0373 C.ar    
  10 C10            3.6424     2.0744    -0.0220 C.ar    
  11 C11            6.1046     2.0237    -0.0463 C.2     
  12 N12            6.0637     3.3763    -0.0386 N.am    
  13 C13            4.8746     4.0288    -0.0229 C.2     
  14 N14            3.7274     3.4151    -0.0161 N.2     
  15 O15            7.1639     1.4234    -0.0596 O.2     
  16 C16            3.5548    -2.2554    -0.0438 C.3     
  17 C17            3.4108    -2.7491    -1.4603 C.ar    
  18 C18            4.5373    -2.9885    -2.2256 C.ar    
  19 C19            4.4080    -3.4412    -3.5244 C.ar    
  20 C20            3.1466    -3.6555    -4.0607 C.ar    
  21 C21            2.0180    -3.4146    -3.2908 C.ar    
  22 C22            2.1527    -2.9674    -1.9907 C.ar    
  23 C23            7.3129     4.1416    -0.0469 C.3     
  24 C24            7.3604     5.0314    -1.2929 C.3     
  25 C25            7.3802     5.0263     1.2017 C.3     
  26 C26            8.6500     5.8796     1.1452 C.3     
  27 O27            8.6455     6.6593    -0.0523 O.3     
  28 C28            8.6310     5.8845    -1.2530 C.3     
  29 O29            7.4096     4.2030     2.3693 O.3     
  30 O30            3.0168    -4.1004    -5.3382 O.3     
  31 C31            1.6877    -4.2989    -5.8242 C.3     
  32 H32           -0.9660     1.8331     0.0165 H       
  33 H33            1.0783    -1.7793    -0.0174 H       
  34 H34            1.1028     3.1320     0.0080 H       
  35 H35            5.6770    -0.6647    -0.0568 H       
  36 H36            4.8803     5.1087    -0.0168 H       
  37 H37            4.4862    -2.6316     0.3792 H       
  38 H38            2.7148    -2.6119     0.5524 H       
  39 H39            5.5190    -2.8212    -1.8077 H       
  40 H40            5.2881    -3.6277    -4.1218 H       
  41 H41            1.0349    -3.5807    -3.7060 H       
  42 H42            1.2744    -2.7796    -1.3909 H       
  43 H43            8.1604     3.4561    -0.0558 H       
  44 H44            7.3688     4.4070    -2.1863 H       
  45 H45            6.4857     5.6814    -1.3098 H       
  46 H46            6.5058     5.6763     1.2351 H       
  47 H47            8.6816     6.5421     2.0102 H       
  48 H48            9.5252     5.2298     1.1527 H       
  49 H49            9.5060     5.2348    -1.2769 H       
  50 H50            8.6489     6.5505    -2.1157 H       
  51 H51            7.4524     4.6982     3.1988 H       
  52 H52            1.1806    -5.0378    -5.2038 H       
  53 H53            1.1421    -3.3560    -5.7855 H       
  54 H54            1.7266    -4.6541    -6.8539 H       
@<TRIPOS>BOND
   1    1    2 ar
   2    1    6 ar
   3    1   32 1
   4    2    3 ar
   5    3    4 ar
   6    3   33 1
   7    4    5 ar
   8    4    7 ar
   9    5    6 ar
  10    5   10 ar
  11    6   34 1
  12    7    8 ar
  13    7   16 1
  14    8    9 ar
  15    8   35 1
  16    9   10 ar
  17    9   11 1
  18   10   14 1
  19   11   12 am
  20   11   15 2
  21   12   13 1
  22   12   23 1
  23   13   14 2
  24   13   36 1
  25   16   17 1
  26   16   37 1
  27   16   38 1
  28   17   18 ar
  29   17   22 ar
  30   18   19 ar
  31   18   39 1
  32   19   20 ar
  33   19   40 1
  34   20   21 ar
  35   20   30 1
  36   21   22 ar
  37   21   41 1
  38   22   42 1
  39   23   24 1
  40   23   25 1
  41   23   43 1
  42   24   28 1
  43   24   44 1
  44   24   45 1
  45   25   26 1
  46   25   29 1
  47   25   46 1
  48   26   27 1
  49   26   47 1
  50   26   48 1
  51   27   28 1
  52   28   49 1
  53   28   50 1
  54   29   51 1
  55   30   31 1
  56   31   52 1
  57   31   53 1
  58   31   54 1

#	End of record

