#	Name: ASD01410928
#	Creating user name:	WinNT
#	Creation time:	15. 06. 2019 19:19

#	Modifying user name:	WinNT
#	Modification time:	15. 06. 2019 19:19

#	Program:	/corina/corina34_cracker 3.40 0067  02.08.2006

@<TRIPOS>MOLECULE
ASD01410928
  73   76    0    0    0
SMALL
NO_CHARGES


@<TRIPOS>ATOM
   1 C1             0.3318     1.3957    -0.8200 C.ar    
   2 C2            -0.6910    -0.7148    -0.2957 C.ar    
   3 C3            -1.9472    -0.1651    -0.5102 C.ar    
   4 C4            -2.0642     1.1855    -0.8729 C.ar    
   5 C5            -0.9128     1.9603    -1.0320 C.ar    
   6 O6             1.4527     2.1508    -0.9692 O.3     
   7 C7             2.2869     1.8562    -1.9978 C.ar    
   8 N8            -3.0895    -0.9489    -0.3548 N.am    
   9 C9            -3.7585    -0.9404     0.8152 C.2     
  10 C10           -4.9427    -1.8514     1.0126 C.3     
  11 O11           -3.4076    -0.1997     1.7090 O.2     
  12 C12           -5.2888    -1.9225     2.5013 C.3     
  13 C13           -7.3443    -2.2292     0.4363 C.3     
  14 C14           -7.6903    -2.3004     1.9249 C.3     
  15 C15           -6.4910    -2.8473     2.7017 C.3     
  16 C16           -8.8926    -3.2252     2.1254 C.3     
  17 N17            1.9406     0.9310    -2.8778 N.ar    
  18 C18           -3.5627    -1.7819    -1.4632 C.3     
  19 C19           -3.8851    -0.8941    -2.6668 C.3     
  20 C20            3.4937     2.5328    -2.1201 C.ar    
  21 C21            4.3355     2.2231    -3.1743 C.ar    
  22 C22            3.9381     1.2428    -4.0728 C.ar    
  23 C23            2.7217     0.6142    -3.8927 C.ar    
  24 C24           -6.1420    -1.3044     0.2358 C.3     
  25 C25            4.8218     0.8726    -5.2360 C.3     
  26 C26            0.4403     0.0607    -0.4495 C.ar    
  27 C27            5.7521    -0.2398    -4.8260 C.2     
  28 S28            7.3539    -0.0437    -4.1186 S.3     
  29 C29            7.5361    -1.7419    -4.0394 C.2     
  30 N30            6.4831    -2.3245    -4.5049 N.2     
  31 C31            5.5057    -1.5492    -4.9295 C.2     
  32 O32           -2.2174    -3.6559    -0.7427 O.3     
  33 C33           -2.4742    -2.7862    -1.8472 C.3     
  34 C34           -1.2108    -4.6376    -0.9977 C.3     
  35 C35           -3.3938     1.7783    -1.1033 C.2     
  36 O36           -4.3935     1.1029    -0.9586 O.2     
  37 O37           -3.5008     3.0693    -1.4745 O.3     
  38 C38            3.8811     3.5903    -1.1188 C.3     
  39 F39            5.1310     4.1189    -1.4588 F       
  40 F40            2.9253     4.6118    -1.1259 F       
  41 F41            3.9467     3.0220     0.1579 F       
  42 H42           -0.5981    -1.7540    -0.0166 H       
  43 H43           -0.9944     2.9982    -1.3196 H       
  44 H44           -4.6983    -2.8492     0.6483 H       
  45 H45           -4.4344    -2.3121     3.0547 H       
  46 H46           -5.5332    -0.9247     2.8656 H       
  47 H47           -7.0998    -3.2271     0.0720 H       
  48 H48           -8.1987    -1.8396    -0.1172 H       
  49 H49           -7.9348    -1.3026     2.2892 H       
  50 H50           -6.2466    -3.8451     2.3375 H       
  51 H51           -6.7376    -2.8980     3.7623 H       
  52 H52           -8.6481    -4.2230     1.7611 H       
  53 H53           -9.1391    -3.2759     3.1859 H       
  54 H54           -9.7470    -2.8356     1.5720 H       
  55 H55           -4.4605    -2.3187    -1.1567 H       
  56 H56           -2.9809    -0.3788    -2.9907 H       
  57 H57           -4.2637    -1.5108    -3.4820 H       
  58 H58           -4.6404    -0.1604    -2.3852 H       
  59 H59            5.2799     2.7329    -3.2951 H       
  60 H60            2.4080    -0.1495    -4.5888 H       
  61 H61           -6.3864    -0.3066     0.6001 H       
  62 H62           -5.8955    -1.2537    -0.8247 H       
  63 H63            4.2039     0.5405    -6.0704 H       
  64 H64            5.4058     1.7414    -5.5396 H       
  65 H65            1.4152    -0.3724    -0.2813 H       
  66 H66            8.4068    -2.2530    -3.6559 H       
  67 H67            4.5844    -1.9400    -5.3357 H       
  68 H68           -2.8075    -3.3739    -2.7025 H       
  69 H69           -1.5613    -2.2507    -2.1078 H       
  70 H70           -1.0750    -5.2575    -0.1115 H       
  71 H71           -1.5179    -5.2637    -1.8355 H       
  72 H72           -0.2717    -4.1405    -1.2408 H       
  73 H73           -4.3937     3.4135    -1.6139 H       
@<TRIPOS>BOND
   1    1   26 ar
   2    1    6 1
   3    1    5 ar
   4    2    3 ar
   5    2   26 ar
   6    2   42 1
   7    3    4 ar
   8    3    8 1
   9    4    5 ar
  10    4   35 1
  11    5   43 1
  12    6    7 1
  13    7   20 ar
  14    7   17 ar
  15    8    9 am
  16    8   18 1
  17    9   11 2
  18    9   10 1
  19   10   12 1
  20   10   24 1
  21   10   44 1
  22   12   15 1
  23   12   45 1
  24   12   46 1
  25   13   14 1
  26   13   24 1
  27   13   47 1
  28   13   48 1
  29   14   15 1
  30   14   16 1
  31   14   49 1
  32   15   50 1
  33   15   51 1
  34   16   52 1
  35   16   53 1
  36   16   54 1
  37   17   23 ar
  38   18   19 1
  39   18   33 1
  40   18   55 1
  41   19   56 1
  42   19   57 1
  43   19   58 1
  44   20   21 ar
  45   20   38 1
  46   21   22 ar
  47   21   59 1
  48   22   23 ar
  49   22   25 1
  50   23   60 1
  51   24   61 1
  52   24   62 1
  53   25   27 1
  54   25   63 1
  55   25   64 1
  56   26   65 1
  57   27   28 1
  58   27   31 2
  59   28   29 1
  60   29   30 2
  61   29   66 1
  62   30   31 1
  63   31   67 1
  64   32   33 1
  65   32   34 1
  66   33   68 1
  67   33   69 1
  68   34   70 1
  69   34   71 1
  70   34   72 1
  71   35   36 2
  72   35   37 1
  73   37   73 1
  74   38   39 1
  75   38   40 1
  76   38   41 1

#	End of record

