#	Name: ASD04230086
#	Creating user name:	WinNT
#	Creation time:	15. 06. 2019 20:48

#	Modifying user name:	WinNT
#	Modification time:	15. 06. 2019 20:48

#	Program:	/corina/corina34_cracker 3.40 0067  02.08.2006

@<TRIPOS>MOLECULE
ASD04230086
  52   56    0    0    0
SMALL
NO_CHARGES


@<TRIPOS>ATOM
   1 C1             1.5362     4.6855     1.7215 C.ar    
   2 C2             2.5444     5.3833     2.3708 C.ar    
   3 C3             3.8009     4.8582     2.4690 C.ar    
   4 C4             4.0828     3.6075     1.9007 C.ar    
   5 C5             3.0566     2.8814     1.2696 C.ar    
   6 C6             1.7833     3.4391     1.1738 C.ar    
   7 C7             5.3938     3.0672     1.9619 C.2     
   8 C8             5.6631     1.9280     1.2150 C.2     
   9 C9             4.5672     1.3876     0.3899 C.2     
  10 O10            3.2980     1.6420     0.7793 O.3     
  11 C11            6.9881     1.2867     1.2453 C.2     
  12 N12            7.2190     0.1816     0.5091 N.am    
  13 O13            7.8744     1.7542     1.9348 O.2     
  14 C14            8.5060    -0.3625     0.4492 C.ar    
  15 C15            8.6754    -1.7391     0.3664 C.ar    
  16 C16            9.9458    -2.2805     0.3075 C.ar    
  17 C17           11.0533    -1.4569     0.3305 C.ar    
  18 C18           10.8929    -0.0744     0.4128 C.ar    
  19 C19            9.6136     0.4723     0.4665 C.ar    
  20 C20           12.0822     0.8121     0.4376 C.ar    
  21 O21            4.7980     0.7336    -0.6099 O.2     
  22 O22            0.7869     2.7606     0.5448 O.3     
  23 C23           11.9116     2.2032     0.5207 C.ar    
  24 C24           12.9839     3.0365     0.5450 C.ar    
  25 C25           14.2861     2.5081     0.4865 C.ar    
  26 C26           14.4701     1.1043     0.4025 C.ar    
  27 C27           13.3489     0.2611     0.3844 C.ar    
  28 C28           15.4104     3.3493     0.5096 C.ar    
  29 C29           16.6625     2.8065     0.4510 C.ar    
  30 C30           16.8416     1.4219     0.3678 C.ar    
  31 C31           15.7743     0.5799     0.3438 C.ar    
  32 O32           17.7486     3.6226     0.4735 O.3     
  33 C33           19.0318     2.9969     0.4095 C.3     
  34 H34            0.5489     5.1170     1.6467 H       
  35 H35            2.3334     6.3507     2.8022 H       
  36 H36            4.5770     5.4056     2.9833 H       
  37 H37            6.1581     3.5279     2.5701 H       
  38 H38            6.4925    -0.2364     0.0209 H       
  39 H39            7.8122    -2.3879     0.3485 H       
  40 H40           10.0723    -3.3512     0.2437 H       
  41 H41           12.0444    -1.8836     0.2850 H       
  42 H42            9.4841     1.5426     0.5300 H       
  43 H43            0.2746     2.1841     1.1281 H       
  44 H44           10.9146     2.6162     0.5656 H       
  45 H45           12.8367     4.1045     0.6087 H       
  46 H46           13.4743    -0.8098     0.3210 H       
  47 H47           15.2856     4.4202     0.5729 H       
  48 H48           17.8413     1.0160     0.3219 H       
  49 H49           15.9271    -0.4874     0.2797 H       
  50 H50           19.1518     2.3262     1.2603 H       
  51 H51           19.1125     2.4274    -0.5163 H       
  52 H52           19.8098     3.7599     0.4358 H       
@<TRIPOS>BOND
   1    1    2 ar
   2    1    6 ar
   3    1   34 1
   4    2    3 ar
   5    2   35 1
   6    3    4 ar
   7    3   36 1
   8    4    5 ar
   9    4    7 1
  10    5    6 ar
  11    5   10 1
  12    6   22 1
  13    7    8 2
  14    7   37 1
  15    8    9 1
  16    8   11 1
  17    9   10 1
  18    9   21 2
  19   11   12 am
  20   11   13 2
  21   12   14 1
  22   12   38 1
  23   14   15 ar
  24   14   19 ar
  25   15   16 ar
  26   15   39 1
  27   16   17 ar
  28   16   40 1
  29   17   18 ar
  30   17   41 1
  31   18   19 ar
  32   18   20 1
  33   19   42 1
  34   20   23 ar
  35   20   27 ar
  36   22   43 1
  37   23   24 ar
  38   23   44 1
  39   24   25 ar
  40   24   45 1
  41   25   26 ar
  42   25   28 ar
  43   26   27 ar
  44   26   31 ar
  45   27   46 1
  46   28   29 ar
  47   28   47 1
  48   29   30 ar
  49   29   32 1
  50   30   31 ar
  51   30   48 1
  52   31   49 1
  53   32   33 1
  54   33   50 1
  55   33   51 1
  56   33   52 1

#	End of record

