#	Name: ASD01885589
#	Creating user name:	WinNT
#	Creation time:	15. 06. 2019 19:49

#	Modifying user name:	WinNT
#	Modification time:	15. 06. 2019 19:49

#	Program:	/corina/corina34_cracker 3.40 0067  02.08.2006

@<TRIPOS>MOLECULE
ASD01885589
  45   48    0    0    0
SMALL
NO_CHARGES


@<TRIPOS>ATOM
   1 C1            -0.0168     1.3907     0.0097 C.ar    
   2 C2             0.0021    -0.0041     0.0020 C.ar    
   3 C3            -1.1828    -0.7088     0.0100 C.ar    
   4 C4            -2.3961    -0.0311     0.0257 C.ar    
   5 C5            -2.4183     1.3604     0.0330 C.ar    
   6 C6            -1.2359     2.0696     0.0308 C.ar    
   7 C7             1.2550     2.1498     0.0016 C.2     
   8 N8            -3.5943    -0.7472     0.0338 N.pl3   
   9 C9             2.1445     2.0669     1.1006 C.2     
  10 C10            3.2995     2.7579     1.0916 C.2     
  11 N11            3.6347     3.5474     0.0290 N.pl3   
  12 C12            2.8005     3.6555    -1.0573 C.2     
  13 C13            1.5886     2.9426    -1.0819 C.2     
  14 C14            4.7085     4.3381    -0.2473 C.2     
  15 N15            4.5108     4.8741    -1.4240 N.2     
  16 N16            3.3879     4.4788    -1.9121 N.2     
  17 C17            5.9060     4.5564     0.6412 C.3     
  18 C18            6.9759     3.5106     0.3210 C.3     
  19 Cl19           0.5214     3.0656    -2.4456 Cl      
  20 C20           -3.5723    -2.2120     0.0257 C.3     
  21 C21           -3.4246    -2.7278     1.4586 C.3     
  22 C22           -4.8778    -2.7385    -0.5738 C.3     
  23 C23            8.3219     3.6348     1.0378 C.3     
  24 C24            7.3485     2.5200     1.4259 C.3     
  25 Cl25          -3.9356     2.2037     0.0514 Cl      
  26 H26            0.9444    -0.5316    -0.0105 H       
  27 H27           -1.1682    -1.7887     0.0037 H       
  28 H28           -1.2532     3.1495     0.0368 H       
  29 H29           -4.4415    -0.2750     0.0448 H       
  30 H30            1.8949     1.4472     1.9492 H       
  31 H31            3.9696     2.6874     1.9357 H       
  32 H32            6.3097     5.5540     0.4682 H       
  33 H33            5.6061     4.4617     1.6848 H       
  34 H34            6.9845     3.1460    -0.7061 H       
  35 H35           -2.7310    -2.5594    -0.5740 H       
  36 H36           -3.4082    -3.8176     1.4526 H       
  37 H37           -2.4945    -2.3528     1.8857 H       
  38 H38           -4.2659    -2.3804     2.0583 H       
  39 H39           -4.9830    -2.3710    -1.5946 H       
  40 H40           -4.8614    -3.8283    -0.5798 H       
  41 H41           -5.7191    -2.3911     0.0260 H       
  42 H42            9.2160     3.3515     0.4824 H       
  43 H43            8.4452     4.4615     1.7375 H       
  44 H44            6.8314     2.6133     2.3809 H       
  45 H45            7.6021     1.5033     1.1258 H       
@<TRIPOS>BOND
   1    1    2 ar
   2    1    7 1
   3    1    6 ar
   4    2    3 ar
   5    2   26 1
   6    3    4 ar
   7    3   27 1
   8    4    5 ar
   9    4    8 1
  10    5    6 ar
  11    5   25 1
  12    6   28 1
  13    7    9 1
  14    7   13 2
  15    8   20 1
  16    8   29 1
  17    9   10 2
  18    9   30 1
  19   10   11 1
  20   10   31 1
  21   11   12 1
  22   11   14 1
  23   12   13 1
  24   12   16 2
  25   13   19 1
  26   14   15 2
  27   14   17 1
  28   15   16 1
  29   17   18 1
  30   17   32 1
  31   17   33 1
  32   18   23 1
  33   18   24 1
  34   18   34 1
  35   20   21 1
  36   20   22 1
  37   20   35 1
  38   21   36 1
  39   21   37 1
  40   21   38 1
  41   22   39 1
  42   22   40 1
  43   22   41 1
  44   23   24 1
  45   23   42 1
  46   23   43 1
  47   24   44 1
  48   24   45 1

#	End of record

