#	Name: ASD00069291
#	Creating user name:	WinNT
#	Creation time:	15. 06. 2019 18:29

#	Modifying user name:	WinNT
#	Modification time:	15. 06. 2019 18:29

#	Program:	/corina/corina34_cracker 3.40 0067  02.08.2006

@<TRIPOS>MOLECULE
ASD00069291
 109  112    0    0    0
SMALL
NO_CHARGES


@<TRIPOS>ATOM
   1 C1             0.3121     1.4449    -0.1375 C.2     
   2 N2             0.2702     0.0978    -0.1462 N.am    
   3 O3             1.3810     2.0192    -0.0736 O.2     
   4 O4            -0.8302     2.1543    -0.2051 O.3     
   5 C5            -1.0185    -0.5945    -0.2232 C.3     
   6 N6             2.8406    -3.2379    -0.0107 N.3     
   7 C7             2.7704    -2.4111     1.2009 C.3     
   8 C8             1.4970    -1.5629     1.1681 C.3     
   9 C9             1.5135    -0.6741    -0.0787 C.3     
  10 C10            1.6359    -1.5570    -1.3237 C.3     
  11 C11            2.9053    -2.4054    -1.2187 C.3     
  12 C12            3.9236    -4.1219     0.0476 C.ar    
  13 C13            3.7039    -5.4991    -0.0123 C.ar    
  14 C14            4.7767    -6.3727     0.0455 C.ar    
  15 C15            6.0722    -5.8742     0.1634 C.ar    
  16 C16            6.2858    -4.4992     0.2228 C.ar    
  17 C17            5.2155    -3.6291     0.1593 C.ar    
  18 N18            9.2619    -7.5994     0.3624 N.pl3   
  19 N19            8.3781    -8.6805     0.2592 N.2     
  20 C20            7.1599    -8.2145     0.1776 C.2     
  21 C21            7.2248    -6.8085     0.2262 C.2     
  22 C22            8.5389    -6.4607     0.3406 C.2     
  23 C23           10.7193    -7.6895     0.4800 C.3     
  24 O24           11.2727    -6.3746     0.5630 O.3     
  25 C25           12.6966    -6.3496     0.6812 C.3     
  26 C26           13.1763    -4.8990     0.7620 C.3     
  27 Si27          15.0326    -4.8664     0.9160 Si      
  28 C28           15.7937    -5.6902    -0.5716 C.3     
  29 C29           15.6167    -3.1001     1.0144 C.3     
  30 C30           15.5438    -5.7764     2.4591 C.3     
  31 C31            2.1690    -7.1196    -0.8388 C.2     
  32 O32            3.0738    -7.6438    -1.4601 O.2     
  33 N33            2.4001    -5.9966    -0.1303 N.am    
  34 C34            0.8201    -7.7123    -0.8607 C.2     
  35 N35           -0.2382    -7.2432    -0.2340 N.2     
  36 C36           -1.2800    -8.0344    -0.4806 C.2     
  37 C37           -0.8697    -9.0409    -1.2921 C.2     
  38 N38            0.4524    -8.8398    -1.5399 N.pl3   
  39 C39            1.3192    -9.6754    -2.3747 C.3     
  40 O40            0.5607   -10.7612    -2.9112 O.3     
  41 C41            1.3164   -11.6420    -3.7451 C.3     
  42 C42            0.4084   -12.7603    -4.2607 C.3     
  43 Si43           1.3936   -13.9085    -5.3479 Si      
  44 C44            2.7920   -14.6480    -4.3638 C.3     
  45 C45            0.2880   -15.2701    -5.9758 C.3     
  46 C46            2.0859   -12.9554    -6.7912 C.3     
  47 Br47          -3.0332    -7.7957     0.1865 Br      
  48 C48           -0.7094     3.6012    -0.1911 C.3     
  49 C49            0.1277     4.0548    -1.3887 C.3     
  50 C50           -2.1017     4.2301    -0.2746 C.3     
  51 C51           -0.0270     4.0434     1.1049 C.3     
  52 H52           -1.2795    -0.7614    -1.2683 H       
  53 H53           -0.9474    -1.5530     0.2910 H       
  54 H54           -1.7877     0.0157     0.2503 H       
  55 H55            2.7550    -3.0554     2.0799 H       
  56 H56            3.6413    -1.7572     1.2453 H       
  57 H57            0.6251    -2.2163     1.1376 H       
  58 H58            1.4530    -0.9378     2.0600 H       
  59 H59            2.3630     0.0071    -0.0292 H       
  60 H60            0.7662    -2.2104    -1.3934 H       
  61 H61            1.6912    -0.9278    -2.2120 H       
  62 H62            3.7756    -1.7515    -1.1629 H       
  63 H63            2.9879    -3.0456    -2.0969 H       
  64 H64            4.6093    -7.4387    -0.0003 H       
  65 H65            7.2902    -4.1129     0.3142 H       
  66 H66            5.3841    -2.5632     0.2011 H       
  67 H67            6.2600    -8.8048     0.0878 H       
  68 H68            8.9296    -5.4558     0.4028 H       
  69 H69           10.9774    -8.2497     1.3787 H       
  70 H70           11.1236    -8.1993    -0.3945 H       
  71 H71           12.9957    -6.8820     1.5840 H       
  72 H72           13.1419    -6.8316    -0.1892 H       
  73 H73           12.8772    -4.3666    -0.1409 H       
  74 H74           12.7310    -4.4170     1.6323 H       
  75 H75           15.4946    -5.1578    -1.4745 H       
  76 H76           16.8798    -5.6711    -0.4815 H       
  77 H77           15.4520    -6.7236    -0.6292 H       
  78 H78           15.1714    -2.6181     1.8847 H       
  79 H79           16.7028    -3.0810     1.1045 H       
  80 H80           15.3176    -2.5677     0.1115 H       
  81 H81           15.2020    -6.8098     2.4016 H       
  82 H82           16.6299    -5.7573     2.5493 H       
  83 H83           15.0985    -5.2944     3.3295 H       
  84 H84            1.6635    -5.5330     0.2978 H       
  85 H85           -1.4789    -9.8471    -1.6732 H       
  86 H86            1.7243    -9.0770    -3.1907 H       
  87 H87            2.1374   -10.0673    -1.7705 H       
  88 H88            1.7215   -11.0844    -4.5895 H       
  89 H89            2.1345   -12.0746    -3.1693 H       
  90 H90            0.0033   -13.3178    -3.4163 H       
  91 H91           -0.4097   -12.3276    -4.8365 H       
  92 H92            2.3869   -15.2056    -3.5193 H       
  93 H93            3.3683   -15.3198    -4.9999 H       
  94 H94            3.4388   -13.8513    -3.9964 H       
  95 H95           -0.5302   -14.8375    -6.5515 H       
  96 H96            0.8644   -15.9419    -6.6118 H       
  97 H97           -0.1171   -15.8277    -5.1313 H       
  98 H98            2.7328   -12.1587    -6.4238 H       
  99 H99            2.6623   -13.6272    -7.4272 H       
 100 H100           1.2678   -12.5228    -7.3669 H       
 101 H101          -0.3584     3.7397    -2.3120 H       
 102 H102           0.2184     5.1409    -1.3782 H       
 103 H103           1.1196     3.6068    -1.3292 H       
 104 H104          -2.6981     3.9070     0.5786 H       
 105 H105          -2.0110     5.3163    -0.2640 H       
 106 H106          -2.5879     3.9150    -1.1979 H       
 107 H107           0.9649     3.5954     1.1644 H       
 108 H108           0.0637     5.1296     1.1155 H       
 109 H109          -0.6234     3.7203     1.9582 H       
@<TRIPOS>BOND
   1    1    2 am
   2    1    3 2
   3    1    4 1
   4    2    5 1
   5    2    9 1
   6    4   48 1
   7    5   52 1
   8    5   53 1
   9    5   54 1
  10    6    7 1
  11    6   11 1
  12    6   12 1
  13    7    8 1
  14    7   55 1
  15    7   56 1
  16    8    9 1
  17    8   57 1
  18    8   58 1
  19    9   10 1
  20    9   59 1
  21   10   11 1
  22   10   60 1
  23   10   61 1
  24   11   62 1
  25   11   63 1
  26   12   13 ar
  27   12   17 ar
  28   13   14 ar
  29   13   33 1
  30   14   15 ar
  31   14   64 1
  32   15   16 ar
  33   15   21 1
  34   16   17 ar
  35   16   65 1
  36   17   66 1
  37   18   19 1
  38   18   22 1
  39   18   23 1
  40   19   20 2
  41   20   21 1
  42   20   67 1
  43   21   22 2
  44   22   68 1
  45   23   24 1
  46   23   69 1
  47   23   70 1
  48   24   25 1
  49   25   26 1
  50   25   71 1
  51   25   72 1
  52   26   27 1
  53   26   73 1
  54   26   74 1
  55   27   28 1
  56   27   29 1
  57   27   30 1
  58   28   75 1
  59   28   76 1
  60   28   77 1
  61   29   78 1
  62   29   79 1
  63   29   80 1
  64   30   81 1
  65   30   82 1
  66   30   83 1
  67   31   32 2
  68   31   33 am
  69   31   34 1
  70   33   84 1
  71   34   35 2
  72   34   38 1
  73   35   36 1
  74   36   37 2
  75   36   47 1
  76   37   38 1
  77   37   85 1
  78   38   39 1
  79   39   40 1
  80   39   86 1
  81   39   87 1
  82   40   41 1
  83   41   42 1
  84   41   88 1
  85   41   89 1
  86   42   43 1
  87   42   90 1
  88   42   91 1
  89   43   44 1
  90   43   45 1
  91   43   46 1
  92   44   92 1
  93   44   93 1
  94   44   94 1
  95   45   95 1
  96   45   96 1
  97   45   97 1
  98   46   98 1
  99   46   99 1
 100   46  100 1
 101   48   49 1
 102   48   51 1
 103   48   50 1
 104   49  101 1
 105   49  102 1
 106   49  103 1
 107   50  104 1
 108   50  105 1
 109   50  106 1
 110   51  107 1
 111   51  108 1
 112   51  109 1

#	End of record

