#	Name: ASD01420686
#	Creating user name:	WinNT
#	Creation time:	15. 06. 2019 19:20

#	Modifying user name:	WinNT
#	Modification time:	15. 06. 2019 19:20

#	Program:	/corina/corina34_cracker 3.40 0067  02.08.2006

@<TRIPOS>MOLECULE
ASD01420686
  48   50    0    0    0
SMALL
NO_CHARGES


@<TRIPOS>ATOM
   1 N1            -0.0153     1.2802     0.0091 N.pl3   
   2 N2             0.0021    -0.0041     0.0020 N.2     
   3 C3             1.2455    -0.4440    -0.0122 C.2     
   4 C4             2.0903     0.6961    -0.0142 C.2     
   5 C5             1.2523     1.7667    -0.0004 C.2     
   6 C6             1.6764    -1.8547    -0.0239 C.2     
   7 O7             2.8611    -2.1284    -0.0362 O.2     
   8 N8             0.7571    -2.8402    -0.0209 N.am    
   9 N9             0.9420    -6.9631    -0.7622 N.am    
  10 C10            0.5540    -6.5738     0.6004 C.3     
  11 C11            0.0889    -5.1143     0.5825 C.3     
  12 C12            1.1850    -4.2412    -0.0325 C.3     
  13 C13            1.4427    -4.6837    -1.4747 C.3     
  14 C14            1.9232    -6.1383    -1.4802 C.3     
  15 S15            0.2909    -8.3099    -1.4726 S.o2    
  16 O16            1.2712    -8.7163    -2.4175 O.2     
  17 O17           -0.0640    -9.1458    -0.3796 O.2     
  18 C18           -1.1947    -7.7024    -2.3179 C.3     
  19 N19            3.4929     0.7146    -0.0266 N.am    
  20 C20            4.1513     1.8906    -0.0267 C.2     
  21 C21            5.6278     1.9101    -0.0397 C.ar    
  22 C22            6.3408     1.9135     1.1622 C.ar    
  23 C23            7.7215     1.9318     1.1418 C.ar    
  24 C24            8.3988     1.9469    -0.0643 C.ar    
  25 C25            7.7001     1.9441    -1.2582 C.ar    
  26 C26            6.3194     1.9196    -1.2542 C.ar    
  27 O27            3.5296     2.9355    -0.0160 O.2     
  28 Cl28           5.4448     1.9077    -2.7537 Cl      
  29 Cl29           5.4930     1.8952     2.6770 Cl      
  30 H30           -0.8184     1.8242     0.0160 H       
  31 H31            1.5405     2.8076     0.0021 H       
  32 H32           -0.1880    -2.6218    -0.0111 H       
  33 H33           -0.2594    -7.2123     0.9452 H       
  34 H34            1.4099    -6.6764     1.2674 H       
  35 H35           -0.8205    -5.0295    -0.0124 H       
  36 H36           -0.1106    -4.7835     1.6018 H       
  37 H37            2.1013    -4.3459     0.5484 H       
  38 H38            0.5206    -4.6029    -2.0503 H       
  39 H39            2.2069    -4.0464    -1.9197 H       
  40 H40            2.8907    -6.2054    -0.9828 H       
  41 H41            2.0133    -6.4895    -2.5082 H       
  42 H42           -0.9118    -6.9504    -3.0544 H       
  43 H43           -1.6927    -8.5325    -2.8190 H       
  44 H44           -1.8724    -7.2594    -1.5881 H       
  45 H45            3.9889    -0.1189    -0.0351 H       
  46 H46            8.2739     1.9348     2.0699 H       
  47 H47            9.4786     1.9612    -0.0738 H       
  48 H48            8.2358     1.9566    -2.1958 H       
@<TRIPOS>BOND
   1    1    2 1
   2    1    5 1
   3    1   30 1
   4    2    3 2
   5    3    4 1
   6    3    6 1
   7    4    5 2
   8    4   19 1
   9    5   31 1
  10    6    7 2
  11    6    8 am
  12    8   12 1
  13    8   32 1
  14    9   10 1
  15    9   14 1
  16    9   15 am
  17   10   11 1
  18   10   33 1
  19   10   34 1
  20   11   12 1
  21   11   35 1
  22   11   36 1
  23   12   13 1
  24   12   37 1
  25   13   14 1
  26   13   38 1
  27   13   39 1
  28   14   40 1
  29   14   41 1
  30   15   16 2
  31   15   17 2
  32   15   18 1
  33   18   42 1
  34   18   43 1
  35   18   44 1
  36   19   20 am
  37   19   45 1
  38   20   21 1
  39   20   27 2
  40   21   22 ar
  41   21   26 ar
  42   22   23 ar
  43   22   29 1
  44   23   24 ar
  45   23   46 1
  46   24   25 ar
  47   24   47 1
  48   25   26 ar
  49   25   48 1
  50   26   28 1

#	End of record

