#	Name: ASD01830041
#	Creating user name:	WinNT
#	Creation time:	15. 06. 2019 19:37

#	Modifying user name:	WinNT
#	Modification time:	15. 06. 2019 19:37

#	Program:	/corina/corina34_cracker 3.40 0067  02.08.2006

@<TRIPOS>MOLECULE
ASD01830041
  81   82    0    0    0
SMALL
NO_CHARGES


@<TRIPOS>ATOM
   1 Cl1            0.0000     0.0000     0.0000 Cl      
   2 H2             0.0000     1.3700     0.0000 H       
   3 Cl3            5.0000     6.3700     5.0000 Cl      
   4 H4             5.0000     7.7400     5.0000 H       
   5 Cl5           10.0000    12.7400    10.0000 Cl      
   6 H6            10.0000    14.1100    10.0000 H       
   7 C7            17.1845    24.5836    15.8885 C.3     
   8 C8            17.1964    23.0602    16.0306 C.3     
   9 H9            17.6485    22.6091    15.1473 H       
  10 C10           15.7550    22.5382    16.2072 C.3     
  11 C11           15.9213    21.3966    17.2446 C.3     
  12 C12           17.0385    21.9627    18.1563 C.3     
  13 N13           17.9548    22.6747    17.2348 N.3     
  14 C14           18.5463    23.8523    17.8839 C.3     
  15 C15           19.0997    23.4593    19.2294 C.2     
  16 S16           18.2184    23.4813    20.7551 S.3     
  17 C17           19.6532    22.8980    21.5932 C.2     
  18 N18           19.7399    22.6467    22.9546 N.pl3   
  19 C19           20.9315    22.1868    23.5017 C.ar    
  20 N20           21.9978    21.9892    22.7291 N.ar    
  21 C21           23.1317    21.5538    23.2395 C.ar    
  22 N22           23.2639    21.2952    24.5245 N.ar    
  23 C23           22.2452    21.4667    25.3647 C.ar    
  24 N24           22.3939    21.1923    26.7172 N.3     
  25 C25           22.0557    22.3667    27.5332 C.3     
  26 C26           22.1551    22.0002    29.0158 C.3     
  27 N27           23.5161    21.5312    29.3116 N.3     
  28 C28           23.6734    21.2407    30.7429 C.3     
  29 C29           23.6945    22.5524    31.5303 C.3     
  30 C30           23.8558    22.2544    32.9987 C.2     
  31 O31           23.9007    23.2600    33.8866 O.3     
  32 O32           23.9448    21.1103    33.3767 O.2     
  33 C33           23.8543    20.3568    28.4956 C.3     
  34 H34           23.1589    19.5473    28.7175 H       
  35 C35           25.2810    19.9063    28.8159 C.3     
  36 F36           26.1552    20.9890    28.6719 F       
  37 C37           23.7548    20.7233    27.0129 C.3     
  38 C38           21.0300    21.9312    24.8671 C.ar    
  39 F39           19.9733    22.1236    25.6866 F       
  40 N40           20.6163    22.7400    20.7388 N.2     
  41 C41           20.3492    23.0260    19.4715 C.2     
  42 C42           21.3606    22.8821    18.3962 C.ar    
  43 C43           20.9711    22.4842    17.1186 C.ar    
  44 C44           21.9161    22.3518    16.1216 C.ar    
  45 C45           23.2488    22.6135    16.3888 C.ar    
  46 Cl46          24.4326    22.4451    15.1302 Cl      
  47 C47           23.6409    23.0096    17.6563 C.ar    
  48 C48           22.7033    23.1501    18.6586 C.ar    
  49 C49           25.0935    23.2934    17.9400 C.3     
  50 F50           25.2417    23.6736    19.2781 F       
  51 F51           25.8499    22.1421    17.6958 F       
  52 F52           25.5374    24.3279    17.1093 F       
  53 H53           18.2076    24.9477    15.7951 H       
  54 H54           16.6174    24.8612    15.0000 H       
  55 H55           16.7200    25.0270    16.7693 H       
  56 H56           15.1062    23.3222    16.5977 H       
  57 H57           15.3677    22.1496    15.2654 H       
  58 H58           15.0000    21.2420    17.8061 H       
  59 H59           16.2419    20.4737    16.7614 H       
  60 H60           16.6184    22.6552    18.8858 H       
  61 H61           17.5641    21.1518    18.6604 H       
  62 H62           19.3500    24.2452    17.2611 H       
  63 H63           17.7812    24.6174    18.0151 H       
  64 H64           18.9687    22.7921    23.5247 H       
  65 H65           23.9777    21.4040    22.5851 H       
  66 H66           22.7511    23.1762    27.3112 H       
  67 H67           21.0391    22.6874    27.3053 H       
  68 H68           21.9329    22.8777    29.6230 H       
  69 H69           21.4404    21.2094    29.2437 H       
  70 H70           22.8396    20.6264    31.0828 H       
  71 H71           24.6089    20.7050    30.9043 H       
  72 H72           24.5283    23.1668    31.1904 H       
  73 H73           22.7590    23.0881    31.3689 H       
  74 H74           24.0052    23.0195    34.8174 H       
  75 H75           25.3242    19.5382    29.8409 H       
  76 H76           25.5729    19.1100    28.1312 H       
  77 H77           23.9771    19.8458    26.4057 H       
  78 H78           24.4695    21.5141    26.7850 H       
  79 H79           19.9315    22.2794    16.9093 H       
  80 H80           21.6153    22.0431    15.1313 H       
  81 H81           23.0096    23.4630    19.6459 H       
@<TRIPOS>BOND
   1    1    2 1
   2    3    4 1
   3    5    6 1
   4    7    8 1
   5    7   53 1
   6    7   54 1
   7    7   55 1
   8    8    9 1
   9    8   13 1
  10    8   10 1
  11   10   11 1
  12   10   56 1
  13   10   57 1
  14   11   12 1
  15   11   58 1
  16   11   59 1
  17   12   13 1
  18   12   60 1
  19   12   61 1
  20   13   14 1
  21   14   15 1
  22   14   62 1
  23   14   63 1
  24   15   41 2
  25   15   16 1
  26   16   17 1
  27   17   18 1
  28   17   40 2
  29   18   19 1
  30   18   64 1
  31   19   38 ar
  32   19   20 ar
  33   20   21 ar
  34   21   22 ar
  35   21   65 1
  36   22   23 ar
  37   23   24 1
  38   23   38 ar
  39   24   37 1
  40   24   25 1
  41   25   26 1
  42   25   66 1
  43   25   67 1
  44   26   27 1
  45   26   68 1
  46   26   69 1
  47   27   28 1
  48   27   33 1
  49   28   29 1
  50   28   70 1
  51   28   71 1
  52   29   30 1
  53   29   72 1
  54   29   73 1
  55   30   31 1
  56   30   32 2
  57   31   74 1
  58   33   34 1
  59   33   35 1
  60   33   37 1
  61   35   36 1
  62   35   75 1
  63   35   76 1
  64   37   77 1
  65   37   78 1
  66   38   39 1
  67   40   41 1
  68   41   42 1
  69   42   48 ar
  70   42   43 ar
  71   43   44 ar
  72   43   79 1
  73   44   45 ar
  74   44   80 1
  75   45   46 1
  76   45   47 ar
  77   47   48 ar
  78   47   49 1
  79   48   81 1
  80   49   50 1
  81   49   51 1
  82   49   52 1

#	End of record

