#	Name: ASD01880580
#	Creating user name:	WinNT
#	Creation time:	15. 06. 2019 19:41

#	Modifying user name:	WinNT
#	Modification time:	15. 06. 2019 19:41

#	Program:	/corina/corina34_cracker 3.40 0067  02.08.2006

@<TRIPOS>MOLECULE
ASD01880580
  49   52    0    0    0
SMALL
NO_CHARGES


@<TRIPOS>ATOM
   1 N1             0.0056     1.3287    -0.1719 N.ar    
   2 C2             0.0071     0.0114    -0.1812 C.ar    
   3 N3             1.1159    -0.6850    -0.0185 N.ar    
   4 C4             2.2807    -0.0821     0.1616 C.ar    
   5 C5             2.3296     1.3009     0.1785 C.ar    
   6 C6             1.1374     2.0083     0.0038 C.ar    
   7 C7             3.6354     2.0254     0.3812 C.3     
   8 O8             4.6666     1.0780     0.6659 O.3     
   9 C9             5.9140     1.5696     0.8760 C.ar    
  10 C10            6.9647     0.7020     1.1580 C.ar    
  11 C11            8.2261     1.2005     1.3698 C.ar    
  12 C12            8.4632     2.5775     1.3041 C.ar    
  13 C13            7.4045     3.4445     1.0201 C.ar    
  14 C14            6.1420     2.9387     0.8036 C.ar    
  15 C15            9.5516     0.5550     1.6887 C.3     
  16 N16           10.5248     1.6481     1.7939 N.am    
  17 C17            9.8927     2.8131     1.5713 C.2     
  18 O18           10.4250     3.9061     1.5877 O.2     
  19 Br19          -1.6262    -0.9074    -0.4342 Br      
  20 C20            1.1326     3.4909     0.0128 C.ar    
  21 C21            2.1004     4.1954    -0.7036 C.ar    
  22 C22            2.0971     5.5723    -0.6956 C.ar    
  23 C23            1.1238     6.2639     0.0300 C.ar    
  24 C24            0.1548     5.5572     0.7468 C.ar    
  25 C25            0.1569     4.1803     0.7330 C.ar    
  26 C26            1.1197     7.6959     0.0395 C.1     
  27 N27            1.1165     8.8318     0.0470 N.1     
  28 C28           14.2194     1.1650     1.0994 C.3     
  29 C29           12.7302     1.3251     0.7872 C.3     
  30 C30           11.9508     1.4948     2.0928 C.3     
  31 H31            3.1818    -0.6626     0.2941 H       
  32 H32            3.8889     2.5775    -0.5238 H       
  33 H33            3.5397     2.7201     1.2158 H       
  34 H34            6.7880    -0.3622     1.2105 H       
  35 H35            7.5768     4.5094     0.9675 H       
  36 H36            5.3244     3.6092     0.5838 H       
  37 H37            9.4885     0.0171     2.6346 H       
  38 H38            9.8387    -0.1266     0.8880 H       
  39 H39            2.8526     3.6606    -1.2644 H       
  40 H40            2.8469     6.1175    -1.2498 H       
  41 H41           -0.5979     6.0907     1.3083 H       
  42 H42           -0.5921     3.6339     1.2870 H       
  43 H43           14.5779     2.0506     1.6240 H       
  44 H44           14.3666     0.2863     1.7272 H       
  45 H45           14.7747     1.0441     0.1692 H       
  46 H46           12.5830     2.2039     0.1593 H       
  47 H47           12.3717     0.4395     0.2625 H       
  48 H48           12.3093     2.3804     2.6175 H       
  49 H49           12.0980     0.6160     2.7206 H       
@<TRIPOS>BOND
   1    1    2 ar
   2    1    6 ar
   3    2    3 ar
   4    2   19 1
   5    3    4 ar
   6    4    5 ar
   7    4   31 1
   8    5    6 ar
   9    5    7 1
  10    6   20 1
  11    7    8 1
  12    7   32 1
  13    7   33 1
  14    8    9 1
  15    9   10 ar
  16    9   14 ar
  17   10   11 ar
  18   10   34 1
  19   11   12 ar
  20   11   15 1
  21   12   13 ar
  22   12   17 1
  23   13   14 ar
  24   13   35 1
  25   14   36 1
  26   15   16 1
  27   15   37 1
  28   15   38 1
  29   16   17 am
  30   16   30 1
  31   17   18 2
  32   20   21 ar
  33   20   25 ar
  34   21   22 ar
  35   21   39 1
  36   22   23 ar
  37   22   40 1
  38   23   24 ar
  39   23   26 1
  40   24   25 ar
  41   24   41 1
  42   25   42 1
  43   26   27 3
  44   28   29 1
  45   28   43 1
  46   28   44 1
  47   28   45 1
  48   29   30 1
  49   29   46 1
  50   29   47 1
  51   30   48 1
  52   30   49 1

#	End of record

