#	Name: ASD01916762
#	Creating user name:	WinNT
#	Creation time:	15. 06. 2019 20:07

#	Modifying user name:	WinNT
#	Modification time:	15. 06. 2019 20:07

#	Program:	/corina/corina34_cracker 3.40 0067  02.08.2006

@<TRIPOS>MOLECULE
ASD01916762
  60   64    0    0    0
SMALL
NO_CHARGES


@<TRIPOS>ATOM
   1 C1             0.0154     1.2885     0.1875 C.ar    
   2 C2             0.0654    -0.0677     0.4550 C.ar    
   3 C3             1.2846    -0.7050     0.5986 C.ar    
   4 C4             2.4587     0.0102     0.4755 C.ar    
   5 C5             2.4141     1.3764     0.2057 C.ar    
   6 C6             1.1833     2.0132     0.0619 C.ar    
   7 C7             3.6733     2.1506     0.0722 C.2     
   8 N8             4.9088     1.6511     0.1889 N.2     
   9 N9             3.7552     3.4379    -0.1856 N.2     
  10 N10            5.1213     3.7605    -0.2261 N.pl3   
  11 C11            5.7935     2.6102     0.0135 C.2     
  12 C12            7.2636     2.4578     0.0698 C.ar    
  13 C13            8.0747     3.5729     0.2858 C.ar    
  14 C14            5.7039     5.0802    -0.4815 C.3     
  15 C15            5.8280     5.8344     0.8173 C.2     
  16 O16            5.4656     5.3201     1.8542 O.2     
  17 N17            6.3419     7.0803     0.8267 N.am    
  18 C18            6.4720     7.8338     2.0830 C.3     
  19 C19            7.9085     8.3564     2.1907 C.3     
  20 N20            8.2439     9.1114     0.9761 N.3     
  21 C21            8.2115     8.2494    -0.2130 C.3     
  22 C22            6.7931     7.7201    -0.4184 C.3     
  23 C23            9.4782     9.7378     1.1038 C.ar    
  24 N24           10.1716     9.5994     2.2234 N.ar    
  25 C25            9.9764    10.4999     0.0523 C.ar    
  26 C26           11.3468    10.1770     2.3853 C.ar    
  27 C27           11.8984    10.9524     1.3850 C.ar    
  28 C28           11.2061    11.1179     0.1929 C.ar    
  29 C29            7.8428     1.1978    -0.0874 C.ar    
  30 C30            9.2131     1.0597    -0.0344 C.ar    
  31 C31           10.0174     2.1724     0.1755 C.ar    
  32 C32            9.4442     3.4270     0.3376 C.ar    
  33 O33           11.3674     2.0324     0.2276 O.3     
  34 C34           12.1346     3.2179     0.4464 C.3     
  35 F35           11.8907     4.1286    -0.5872 F       
  36 F36           11.7687     3.7912     1.6690 F       
  37 H37           -0.9392     1.7803     0.0722 H       
  38 H38           -0.8509    -0.6310     0.5525 H       
  39 H39            1.3180    -1.7640     0.8078 H       
  40 H40            3.4101    -0.4882     0.5886 H       
  41 H41            1.1431     3.0719    -0.1476 H       
  42 H42            7.6297     4.5488     0.4120 H       
  43 H43            6.6909     4.9613    -0.9284 H       
  44 H44            5.0605     5.6355    -1.1640 H       
  45 H45            5.7763     8.6730     2.0804 H       
  46 H46            6.2565     7.1786     2.9270 H       
  47 H47            7.9940     9.0088     3.0597 H       
  48 H48            8.5942     7.5159     2.2976 H       
  49 H49            8.5168     8.8243    -1.0874 H       
  50 H50            8.8931     7.4104    -0.0727 H       
  51 H51            6.7880     6.9915    -1.2291 H       
  52 H52            6.1254     8.5468    -0.6611 H       
  53 H53            9.4111    10.6075    -0.8617 H       
  54 H54           11.8840    10.0418     3.3124 H       
  55 H55           12.8608    11.4217     1.5265 H       
  56 H56           11.6162    11.7195    -0.6048 H       
  57 H57            7.2180     0.3320    -0.2499 H       
  58 H58            9.6620     0.0849    -0.1559 H       
  59 H59           10.0727     4.2901     0.5003 H       
  60 H60           13.1949     2.9661     0.4660 H       
@<TRIPOS>BOND
   1    1    2 ar
   2    1    6 ar
   3    1   37 1
   4    2    3 ar
   5    2   38 1
   6    3    4 ar
   7    3   39 1
   8    4    5 ar
   9    4   40 1
  10    5    6 ar
  11    5    7 1
  12    6   41 1
  13    7    8 1
  14    7    9 2
  15    8   11 2
  16    9   10 1
  17   10   11 1
  18   10   14 1
  19   11   12 1
  20   12   13 ar
  21   12   29 ar
  22   13   32 ar
  23   13   42 1
  24   14   15 1
  25   14   43 1
  26   14   44 1
  27   15   16 2
  28   15   17 am
  29   17   18 1
  30   17   22 1
  31   18   19 1
  32   18   45 1
  33   18   46 1
  34   19   20 1
  35   19   47 1
  36   19   48 1
  37   20   21 1
  38   20   23 1
  39   21   22 1
  40   21   49 1
  41   21   50 1
  42   22   51 1
  43   22   52 1
  44   23   24 ar
  45   23   25 ar
  46   24   26 ar
  47   25   28 ar
  48   25   53 1
  49   26   27 ar
  50   26   54 1
  51   27   28 ar
  52   27   55 1
  53   28   56 1
  54   29   30 ar
  55   29   57 1
  56   30   31 ar
  57   30   58 1
  58   31   32 ar
  59   31   33 1
  60   32   59 1
  61   33   34 1
  62   34   35 1
  63   34   36 1
  64   34   60 1

#	End of record

