#	Name: ASD02198641
#	Creating user name:	WinNT
#	Creation time:	15. 06. 2019 20:19

#	Modifying user name:	WinNT
#	Modification time:	15. 06. 2019 20:19

#	Program:	/corina/corina34_cracker 3.40 0067  02.08.2006

@<TRIPOS>MOLECULE
ASD02198641
  52   56    0    0    0
SMALL
NO_CHARGES


@<TRIPOS>ATOM
   1 C1            -0.2324     1.5167    -0.0725 C.2     
   2 C2            -0.2340     0.2161    -0.4734 C.2     
   3 N3            -1.3976    -0.4461    -0.6688 N.pl3   
   4 N4            -2.5494     0.0886    -0.4953 N.2     
   5 C5            -2.6910     1.3397    -0.1085 C.2     
   6 C6            -1.4874     2.1457     0.1366 C.2     
   7 C7            -1.3406    -1.7819    -1.0815 C.ar    
   8 C8            -2.0102    -2.1837    -2.2334 C.ar    
   9 C9            -1.9527    -3.5032    -2.6402 C.ar    
  10 C10           -1.2269    -4.4270    -1.8990 C.ar    
  11 C11           -0.5589    -4.0247    -0.7484 C.ar    
  12 C12           -0.6109    -2.7064    -0.3445 C.ar    
  13 C13           -4.0360     1.9205     0.0807 C.2     
  14 N14           -4.5118     2.5140     1.2160 N.pl3   
  15 N15           -5.8270     2.9238     0.9641 N.2     
  16 C16           -6.1416     2.5977    -0.2642 C.2     
  17 C17           -5.0448     1.9711    -0.8560 C.2     
  18 C18           -3.8098     2.6822     2.4163 C.ar    
  19 C19           -3.8880     3.8853     3.1054 C.ar    
  20 C20           -3.1947     4.0481     4.2886 C.ar    
  21 C21           -2.4231     3.0146     4.7874 C.ar    
  22 C22           -2.3431     1.8153     4.1036 C.ar    
  23 C23           -3.0387     1.6443     2.9228 C.ar    
  24 O24           -1.5637     3.3116     0.4969 O.2     
  25 O25            0.9327     2.1894     0.1266 O.3     
  26 C26            2.1452     1.4691    -0.1040 C.3     
  27 F27           -2.7163    -1.2845    -2.9533 F       
  28 N28           -1.1686    -5.7608    -2.3099 N.3     
  29 C29           -1.3394    -5.8722    -3.7781 C.3     
  30 C30           -0.4505    -7.0198    -4.1985 C.2     
  31 C31            0.4114    -7.2755    -3.2462 C.2     
  32 C32            0.1851    -6.3245    -2.0938 C.3     
  33 H33            0.7041    -0.2931    -0.6378 H       
  34 H34           -2.4723    -3.8162    -3.5338 H       
  35 H35            0.0046    -4.7437    -0.1723 H       
  36 H36           -0.0912    -2.3948     0.5495 H       
  37 H37           -7.0918     2.7865    -0.7416 H       
  38 H38           -4.9973     1.5889    -1.8650 H       
  39 H39           -4.4902     4.6930     2.7161 H       
  40 H40           -3.2548     4.9837     4.8248 H       
  41 H41           -1.8815     3.1445     5.7127 H       
  42 H42           -1.7393     1.0102     4.4955 H       
  43 H43           -2.9758     0.7074     2.3892 H       
  44 H44            2.1755     1.1310    -1.1398 H       
  45 H45            2.9973     2.1204     0.0907 H       
  46 H46            2.1876     0.6066     0.5612 H       
  47 H47           -2.3790    -6.0910    -4.0218 H       
  48 H48           -1.0223    -4.9506    -4.2661 H       
  49 H49           -0.5159    -7.5473    -5.1386 H       
  50 H50            1.1671    -8.0464    -3.2795 H       
  51 H51            0.9315    -5.5303    -2.1075 H       
  52 H52            0.2231    -6.8630    -1.1468 H       
@<TRIPOS>BOND
   1    1    2 2
   2    1   25 1
   3    1    6 1
   4    2    3 1
   5    2   33 1
   6    3    4 1
   7    3    7 1
   8    4    5 2
   9    5    6 1
  10    5   13 1
  11    6   24 2
  12    7    8 ar
  13    7   12 ar
  14    8    9 ar
  15    8   27 1
  16    9   10 ar
  17    9   34 1
  18   10   11 ar
  19   10   28 1
  20   11   12 ar
  21   11   35 1
  22   12   36 1
  23   13   14 1
  24   13   17 2
  25   14   15 1
  26   14   18 1
  27   15   16 2
  28   16   17 1
  29   16   37 1
  30   17   38 1
  31   18   19 ar
  32   18   23 ar
  33   19   20 ar
  34   19   39 1
  35   20   21 ar
  36   20   40 1
  37   21   22 ar
  38   21   41 1
  39   22   23 ar
  40   22   42 1
  41   23   43 1
  42   25   26 1
  43   26   44 1
  44   26   45 1
  45   26   46 1
  46   28   29 1
  47   28   32 1
  48   29   30 1
  49   29   47 1
  50   29   48 1
  51   30   31 2
  52   30   49 1
  53   31   32 1
  54   31   50 1
  55   32   51 1
  56   32   52 1

#	End of record

