#	Name: ASD01811959
#	Creating user name:	WinNT
#	Creation time:	15. 06. 2019 19:27

#	Modifying user name:	WinNT
#	Modification time:	15. 06. 2019 19:27

#	Program:	/corina/corina34_cracker 3.40 0067  02.08.2006

@<TRIPOS>MOLECULE
ASD01811959
  39   41    0    0    0
SMALL
NO_CHARGES


@<TRIPOS>ATOM
   1 C1             0.0135     1.4331    -0.0616 C.ar    
   2 C2             0.0130     0.0472    -0.0700 C.ar    
   3 C3             1.2049    -0.6420    -0.0612 C.ar    
   4 C4             2.4266     0.0475    -0.0438 C.ar    
   5 C5             2.4238     1.4414    -0.0369 C.ar    
   6 C6             1.2054     2.1235    -0.0451 C.ar    
   7 C7             3.6612    -0.7526    -0.0317 C.2     
   8 N8             4.7069    -0.4811     0.6658 N.2     
   9 C9             4.7710     0.6922     1.5363 C.3     
  10 C10            4.6696     1.9322     0.6906 C.2     
  11 N11            3.5802     2.2047    -0.0243 N.am    
  12 S12            5.9025     2.9495     0.6493 S.2     
  13 C13            3.7025    -1.9618    -0.8866 C.ar    
  14 C14            2.8670    -2.0618    -1.9988 C.ar    
  15 C15            2.9105    -3.1904    -2.7916 C.ar    
  16 C16            3.7802    -4.2216    -2.4847 C.ar    
  17 C17            4.6111    -4.1284    -1.3825 C.ar    
  18 C18            4.5812    -3.0023    -0.5858 C.ar    
  19 Cl19          -1.4908    -0.8199    -0.0910 Cl      
  20 C20            3.6105     0.6551     2.5326 C.3     
  21 C21            3.7075    -0.6141     3.3815 C.3     
  22 C22            3.6797     1.8835     3.4421 C.3     
  23 H23           -0.9220     1.9726    -0.0726 H       
  24 H24            1.1993    -1.7220    -0.0675 H       
  25 H25            1.1975     3.2035    -0.0391 H       
  26 H26            5.7180     0.6949     2.0761 H       
  27 H27            3.5972     2.9998    -0.5796 H       
  28 H28            2.1872    -1.2577    -2.2390 H       
  29 H29            2.2640    -3.2690    -3.6531 H       
  30 H30            3.8104    -5.1031    -3.1080 H       
  31 H31            5.2877    -4.9368    -1.1478 H       
  32 H32            5.2306    -2.9305     0.2742 H       
  33 H33            2.6653     0.6578     1.9897 H       
  34 H34            3.6582    -1.4892     2.7336 H       
  35 H35            4.6526    -0.6167     3.9244 H       
  36 H36            2.8807    -0.6405     4.0913 H       
  37 H37            3.6106     2.7877     2.8373 H       
  38 H38            2.8529     1.8571     4.1519 H       
  39 H39            4.6249     1.8808     3.9850 H       
@<TRIPOS>BOND
   1    1    2 ar
   2    1    6 ar
   3    1   23 1
   4    2    3 ar
   5    2   19 1
   6    3    4 ar
   7    3   24 1
   8    4    5 ar
   9    4    7 1
  10    5    6 ar
  11    5   11 1
  12    6   25 1
  13    7    8 2
  14    7   13 1
  15    8    9 1
  16    9   10 1
  17    9   20 1
  18    9   26 1
  19   10   11 am
  20   10   12 2
  21   11   27 1
  22   13   14 ar
  23   13   18 ar
  24   14   15 ar
  25   14   28 1
  26   15   16 ar
  27   15   29 1
  28   16   17 ar
  29   16   30 1
  30   17   18 ar
  31   17   31 1
  32   18   32 1
  33   20   21 1
  34   20   22 1
  35   20   33 1
  36   21   34 1
  37   21   35 1
  38   21   36 1
  39   22   37 1
  40   22   38 1
  41   22   39 1

#	End of record

