#	Name: ASD09116377
#	Creating user name:	WinNT
#	Creation time:	15. 06. 2019 21:21

#	Modifying user name:	WinNT
#	Modification time:	15. 06. 2019 21:21

#	Program:	/corina/corina34_cracker 3.40 0067  02.08.2006

@<TRIPOS>MOLECULE
ASD09116377
  74   80    0    0    0
SMALL
NO_CHARGES


@<TRIPOS>ATOM
   1 N1            -0.0102     1.2351    -0.1685 N.2     
   2 N2            -0.0181    -0.1046    -0.5890 N.pl3   
   3 C3             1.2411     1.6283    -0.1665 C.2     
   4 N4             2.0179     0.6127    -0.5613 N.2     
   5 C5             1.2728    -0.4405    -0.8200 C.2     
   6 N6             1.7277    -1.6723    -1.2507 N.pl3   
   7 C7            -1.1360    -0.9274    -0.7387 C.ar    
   8 N8             1.6897     2.9002     0.1891 N.pl3   
   9 C9             3.0631     3.1652     0.2547 C.ar    
  10 C10            3.5380     4.4412    -0.0194 C.ar    
  11 C11            3.9499     2.1535     0.5995 C.ar    
  12 C12            5.3041     2.4149     0.6642 C.ar    
  13 C13            5.7795     3.6894     0.3845 C.ar    
  14 C14            4.8923     4.7025     0.0454 C.ar    
  15 N15           -1.0957    -1.9537    -1.5752 N.ar    
  16 N16           -2.0997    -2.7357    -1.7569 N.ar    
  17 C17           -3.2425    -2.5584    -1.1136 C.ar    
  18 C18           -3.3706    -1.5132    -0.1943 C.ar    
  19 C19           -2.2952    -0.6719    -0.0018 C.ar    
  20 C20           -4.4182    -3.4248    -1.3611 C.ar    
  21 C21           -5.6549    -2.8284    -1.6119 C.ar    
  22 C22           -5.7506    -1.3288    -1.6796 C.3     
  23 C23           -5.7275    -0.7059    -0.2864 C.3     
  24 C24           -4.6480    -1.3526     0.5774 C.3     
  25 C25           -4.3052    -4.8106    -1.3423 C.ar    
  26 C26           -5.4254    -5.5909    -1.5541 C.ar    
  27 C27           -6.6532    -4.9959    -1.7812 C.ar    
  28 C28           -6.7682    -3.6167    -1.8095 C.ar    
  29 N29            7.1523     3.9543     0.4501 N.3     
  30 C30            7.4341     5.3569     0.1189 C.3     
  31 C31            8.9478     5.5740     0.0583 C.3     
  32 C32            9.5644     5.2163     1.4134 C.3     
  33 C33            9.2155     3.7656     1.7571 C.3     
  34 C34            7.6941     3.6009     1.7685 C.3     
  35 N35           11.0240     5.3669     1.3436 N.3     
  36 C36           11.3984     6.7667     1.0709 C.3     
  37 C37           12.3305     7.2215     2.2136 C.3     
  38 C38           12.8864     5.8823     2.7652 C.3     
  39 C39           11.6611     4.9473     2.6100 C.3     
  40 H40            2.6768    -1.8177    -1.3885 H       
  41 H41            1.0979    -2.3914    -1.4154 H       
  42 H42            1.0503     3.6012     0.3909 H       
  43 H43            2.8481     5.2290    -0.2835 H       
  44 H44            3.5801     1.1625     0.8174 H       
  45 H45            5.9937     1.6282     0.9327 H       
  46 H46            5.2620     5.6936    -0.1725 H       
  47 H47           -2.3496     0.1581     0.6871 H       
  48 H48           -4.9098    -0.9436    -2.2564 H       
  49 H49           -6.6798    -1.0529    -2.1782 H       
  50 H50           -5.5253     0.3616    -0.3740 H       
  51 H51           -6.6990    -0.8487     0.1867 H       
  52 H52           -4.9927    -2.3324     0.9079 H       
  53 H53           -4.4634    -0.7255     1.4496 H       
  54 H54           -3.3465    -5.2746    -1.1635 H       
  55 H55           -5.3422    -6.6676    -1.5427 H       
  56 H56           -7.5271    -5.6108    -1.9376 H       
  57 H57           -7.7301    -3.1585    -1.9861 H       
  58 H58            6.9937     5.5971    -0.8488 H       
  59 H59            7.0047     6.0040     0.8838 H       
  60 H60            9.3760     4.9373    -0.7159 H       
  61 H61            9.1566     6.6187    -0.1722 H       
  62 H62            9.1653     5.8787     2.1815 H       
  63 H63            9.6480     3.1004     1.0097 H       
  64 H64            9.6157     3.5182     2.7403 H       
  65 H65            7.2635     4.2562     2.5256 H       
  66 H66            7.4425     2.5656     1.9989 H       
  67 H67           11.9221     6.8314     0.1172 H       
  68 H68           10.5057     7.3918     1.0494 H       
  69 H69           13.1377     7.8441     1.8277 H       
  70 H70           11.7677     7.7510     2.9823 H       
  71 H71           13.7247     5.5304     2.1641 H       
  72 H72           13.1727     5.9802     3.8124 H       
  73 H73           10.9726     5.0825     3.4442 H       
  74 H74           11.9827     3.9077     2.5469 H       
@<TRIPOS>BOND
   1    1    2 1
   2    1    3 2
   3    2    7 1
   4    2    5 1
   5    3    4 1
   6    3    8 1
   7    4    5 2
   8    5    6 1
   9    6   40 1
  10    6   41 1
  11    7   15 ar
  12    7   19 ar
  13    8    9 1
  14    8   42 1
  15    9   10 ar
  16    9   11 ar
  17   10   14 ar
  18   10   43 1
  19   11   12 ar
  20   11   44 1
  21   12   13 ar
  22   12   45 1
  23   13   14 ar
  24   13   29 1
  25   14   46 1
  26   15   16 ar
  27   16   17 ar
  28   17   18 ar
  29   17   20 1
  30   18   19 ar
  31   18   24 1
  32   19   47 1
  33   20   21 ar
  34   20   25 ar
  35   21   22 1
  36   21   28 ar
  37   22   23 1
  38   22   48 1
  39   22   49 1
  40   23   24 1
  41   23   50 1
  42   23   51 1
  43   24   52 1
  44   24   53 1
  45   25   26 ar
  46   25   54 1
  47   26   27 ar
  48   26   55 1
  49   27   28 ar
  50   27   56 1
  51   28   57 1
  52   29   30 1
  53   29   34 1
  54   30   31 1
  55   30   58 1
  56   30   59 1
  57   31   32 1
  58   31   60 1
  59   31   61 1
  60   32   33 1
  61   32   35 1
  62   32   62 1
  63   33   34 1
  64   33   63 1
  65   33   64 1
  66   34   65 1
  67   34   66 1
  68   35   36 1
  69   35   39 1
  70   36   37 1
  71   36   67 1
  72   36   68 1
  73   37   38 1
  74   37   69 1
  75   37   70 1
  76   38   39 1
  77   38   71 1
  78   38   72 1
  79   39   73 1
  80   39   74 1

#	End of record

