#	Name: ASD01948082
#	Creating user name:	WinNT
#	Creation time:	15. 06. 2019 20:13

#	Modifying user name:	WinNT
#	Modification time:	15. 06. 2019 20:13

#	Program:	/corina/corina34_cracker 3.40 0067  02.08.2006

@<TRIPOS>MOLECULE
ASD01948082
  34   36    0    0    0
SMALL
NO_CHARGES


@<TRIPOS>ATOM
   1 C1            -0.0154     1.3776    -0.1637 C.2     
   2 C2            -0.0260     0.0061    -0.1673 C.2     
   3 C3             1.1681    -0.7115    -0.0357 C.2     
   4 C4             2.3531     0.0048     0.0971 C.2     
   5 C5             2.3153     1.3893     0.0950 C.2     
   6 N6             1.1415     2.0776    -0.0340 N.am    
   7 S7            -1.3838     2.4901    -0.3209 S.3     
   8 C8             1.0296     3.5357    -0.0437 C.3     
   9 C9            -0.4091     4.0190    -0.2047 C.3     
  10 O10            3.3598     2.0124     0.2121 O.2     
  11 N11           -1.3085    -0.7194    -0.3110 N.pl3   
  12 O12           -2.3590    -0.1032    -0.3202 O.2     
  13 O13           -1.3130    -1.9325    -0.4200 O.2     
  14 C14            3.6666    -0.7194     0.2426 C.3     
  15 N15            1.1699    -2.0969    -0.0370 N.pl3   
  16 C16            0.5536    -2.7984     1.0051 C.ar    
  17 C17            0.4501    -4.1845     0.9469 C.ar    
  18 C18           -0.1591    -4.8739     1.9788 C.ar    
  19 C19           -0.6655    -4.1860     3.0675 C.ar    
  20 C20           -0.5640    -2.8081     3.1270 C.ar    
  21 C21            0.0493    -2.1134     2.1019 C.ar    
  22 I22           -1.5886    -5.2343     4.6289 I       
  23 F23            0.9437    -4.8558    -0.1165 F       
  24 H24            1.4299     3.9253     0.8923 H       
  25 H25            1.6253     3.9285    -0.8677 H       
  26 H26           -0.5108     4.6063    -1.1173 H       
  27 H27           -0.7179     4.6031     0.6622 H       
  28 H28            4.0971    -0.8928    -0.7437 H       
  29 H29            4.3514    -0.1141     0.8366 H       
  30 H30            3.5015    -1.6751     0.7401 H       
  31 H31            1.5985    -2.5806    -0.7604 H       
  32 H32           -0.2402    -5.9499     1.9351 H       
  33 H33           -0.9606    -2.2746     3.9780 H       
  34 H34            0.1321    -1.0378     2.1520 H       
@<TRIPOS>BOND
   1    1    2 2
   2    1    6 1
   3    1    7 1
   4    2    3 1
   5    2   11 1
   6    3    4 2
   7    3   15 1
   8    4    5 1
   9    4   14 1
  10    5    6 am
  11    5   10 2
  12    6    8 1
  13    7    9 1
  14    8    9 1
  15    8   24 1
  16    8   25 1
  17    9   26 1
  18    9   27 1
  19   11   12 2
  20   11   13 2
  21   14   28 1
  22   14   29 1
  23   14   30 1
  24   15   16 1
  25   15   31 1
  26   16   17 ar
  27   16   21 ar
  28   17   18 ar
  29   17   23 1
  30   18   19 ar
  31   18   32 1
  32   19   20 ar
  33   19   22 1
  34   20   21 ar
  35   20   33 1
  36   21   34 1

#	End of record

