#	Name: ASD08070005
#	Creating user name:	WinNT
#	Creation time:	15. 06. 2019 21:14

#	Modifying user name:	WinNT
#	Modification time:	15. 06. 2019 21:14

#	Program:	/corina/corina34_cracker 3.40 0067  02.08.2006

@<TRIPOS>MOLECULE
ASD08070005
  36   37    0    0    0
SMALL
NO_CHARGES


@<TRIPOS>ATOM
   1 C1            -0.0202     1.0287    -0.4284 C.ar    
   2 C2            -0.1116    -0.3500    -0.4476 C.ar    
   3 C3            -1.3428    -0.9726    -0.3276 C.ar    
   4 C4            -2.4915    -0.2218    -0.1877 C.ar    
   5 C5            -2.4134     1.1746    -0.1667 C.ar    
   6 C6            -1.1646     1.8000    -0.2832 C.ar    
   7 Cl7           -4.0317    -1.0088    -0.0384 Cl      
   8 N8            -4.3211     2.3778    -1.1102 N.am    
   9 C9            -3.6369     1.9836    -0.0180 C.2     
  10 C10           -5.5351     3.0463    -0.9680 C.ar    
  11 C11           -5.8895     4.0422    -1.8733 C.ar    
  12 O12           -4.0287     2.2952     1.0902 O.2     
  13 C13           -6.3933     2.7127     0.0756 C.ar    
  14 C14           -7.5936     3.3707     0.2188 C.ar    
  15 C15           -7.9502     4.3757    -0.6854 C.ar    
  16 C16           -7.0880     4.7046    -1.7358 C.ar    
  17 Cl17           1.5293     1.7967    -0.5791 Cl      
  18 O18           -1.0760     3.1538    -0.2642 O.3     
  19 C19           -0.9025     3.7748     1.0111 C.3     
  20 C20           -9.2356     5.0825    -0.5355 C.2     
  21 O21           -9.5777     6.0509    -1.4079 O.3     
  22 C22          -10.8577     6.7040    -1.1992 C.3     
  23 O23           -9.9862     4.7919     0.3747 O.2     
  24 H24            0.7827    -0.9456    -0.5571 H       
  25 H25           -1.4039    -2.0507    -0.3441 H       
  26 H26           -3.9682     2.1960    -1.9953 H       
  27 H27           -5.2230     4.2958    -2.6844 H       
  28 H28           -6.1172     1.9363     0.7737 H       
  29 H29           -8.2594     3.1108     1.0285 H       
  30 H30           -7.3604     5.4804    -2.4361 H       
  31 H31           -1.7475     3.5275     1.6536 H       
  32 H32            0.0191     3.4145     1.4682 H       
  33 H33           -0.8466     4.8559     0.8841 H       
  34 H34          -11.6563     5.9642    -1.2546 H       
  35 H35          -10.8683     7.1772    -0.2173 H       
  36 H36          -11.0092     7.4607    -1.9689 H       
@<TRIPOS>BOND
   1    1    2 ar
   2    1   17 1
   3    1    6 ar
   4    2    3 ar
   5    2   24 1
   6    3    4 ar
   7    3   25 1
   8    4    5 ar
   9    4    7 1
  10    5    6 ar
  11    5    9 1
  12    6   18 1
  13    8    9 am
  14    8   10 1
  15    8   26 1
  16    9   12 2
  17   10   11 ar
  18   10   13 ar
  19   11   16 ar
  20   11   27 1
  21   13   14 ar
  22   13   28 1
  23   14   15 ar
  24   14   29 1
  25   15   16 ar
  26   15   20 1
  27   16   30 1
  28   18   19 1
  29   19   31 1
  30   19   32 1
  31   19   33 1
  32   20   21 1
  33   20   23 2
  34   21   22 1
  35   22   34 1
  36   22   35 1
  37   22   36 1

#	End of record

