#	Name: ASD08170352
#	Creating user name:	WinNT
#	Creation time:	15. 06. 2019 21:17

#	Modifying user name:	WinNT
#	Modification time:	15. 06. 2019 21:17

#	Program:	/corina/corina34_cracker 3.40 0067  02.08.2006

@<TRIPOS>MOLECULE
ASD08170352
  76   81    0    0    0
SMALL
NO_CHARGES


@<TRIPOS>ATOM
   1 C1            -0.0155     1.2910     0.0091 C.2     
   2 N2             0.0021    -0.0041     0.0020 N.2     
   3 N3            -1.1192    -0.5842     0.0096 N.2     
   4 C4            -2.1834     0.1604     0.0237 C.2     
   5 S5            -1.7028     1.8047     0.0357 S.3     
   6 C6             1.1892     2.1964     0.0025 C.3     
   7 C7             1.5828     2.5110    -1.4422 C.3     
   8 C8             2.8059     3.4301    -1.4489 C.3     
   9 C9             3.1995     3.7447    -2.8935 C.3     
  10 C10            4.4042     4.6501    -2.9002 C.2     
  11 C11            5.1208     5.2044    -4.1153 C.3     
  12 C12            6.2368     6.0363    -3.5147 C.2     
  13 N13            6.1078     5.9230    -2.2240 N.2     
  14 N14            5.0316     5.1152    -1.8716 N.2     
  15 N15            7.1891     6.7606    -4.1930 N.am    
  16 C16            8.1217     7.4536    -3.5100 C.2     
  17 O17            8.1212     7.4385    -2.2975 O.2     
  18 C18            9.1651     8.2473    -4.2532 C.3     
  19 C19            8.4915     9.2901    -5.1075 C.2     
  20 C20            7.6181     9.0375    -6.0836 C.2     
  21 N21           -3.4954    -0.3008     0.0334 N.am    
  22 C22           -3.7441    -1.6254     0.0287 C.2     
  23 O23           -2.8238    -2.4152     0.0161 O.2     
  24 C24           -5.1658    -2.1251     0.0391 C.3     
  25 C25           -5.8881    -1.6159    -1.1815 C.2     
  26 C26           -6.0706    -0.3303    -1.4866 C.2     
  27 C27           -5.1705    -3.6569     0.0356 C.3     
  28 C28           -4.5026    -4.1645     1.3162 C.3     
  29 O29           -5.1922    -3.6389     2.4521 O.3     
  30 C30           -5.1799    -2.2122     2.5335 C.3     
  31 C31           -5.8757    -1.6244     1.3007 C.3     
  32 C32           10.0989     8.9317    -3.2503 C.3     
  33 C33           10.8357     7.8626    -2.4391 C.3     
  34 O34           11.5552     7.0046    -3.3270 O.3     
  35 C35           10.7284     6.3016    -4.2568 C.3     
  36 C36            9.9859     7.3084    -5.1426 C.3     
  37 C37           -6.7652    -0.1026    -2.6621 C.2     
  38 C38           -7.1468    -1.2034    -3.3116 C.2     
  39 S39           -6.6129    -2.6260    -2.4257 S.3     
  40 S40            8.7309    11.0267    -4.9651 S.3     
  41 C41            7.6040    11.3204    -6.2832 C.2     
  42 C42            7.1294    10.1579    -6.7333 C.2     
  43 H43            0.9501     3.1232     0.5240 H       
  44 H44            2.0193     1.7002     0.5054 H       
  45 H45            1.8219     1.5842    -1.9637 H       
  46 H46            0.7527     3.0071    -1.9450 H       
  47 H47            2.5668     4.3569    -0.9274 H       
  48 H48            3.6360     2.9340    -0.9460 H       
  49 H49            3.4386     2.8179    -3.4151 H       
  50 H50            2.3694     4.2409    -3.3964 H       
  51 H51            5.5282     4.3964    -4.7230 H       
  52 H52            4.4502     5.8295    -4.7049 H       
  53 H53            7.1895     6.7728    -5.1629 H       
  54 H54            7.3155     8.0349    -6.3473 H       
  55 H55           -4.2314     0.3309     0.0435 H       
  56 H56           -5.7044     0.4722    -0.8635 H       
  57 H57           -6.1982    -4.0179    -0.0069 H       
  58 H58           -4.6195    -4.0209    -0.8316 H       
  59 H59           -4.5413    -5.2535     1.3393 H       
  60 H60           -3.4632    -3.8370     1.3384 H       
  61 H61           -5.7065    -1.8949     3.4335 H       
  62 H62           -4.1493    -1.8592     2.5716 H       
  63 H63           -5.8281    -0.5361     1.3399 H       
  64 H64           -6.9177    -1.9439     1.2836 H       
  65 H65           10.8228     9.5452    -3.7866 H       
  66 H66            9.5143     9.5601    -2.5784 H       
  67 H67           11.5333     8.3432    -1.7532 H       
  68 H68           10.1139     7.2753    -1.8715 H       
  69 H69           11.3487     5.6577    -4.8802 H       
  70 H70           10.0052     5.6939    -3.7129 H       
  71 H71            9.3217     6.7748    -5.8225 H       
  72 H72           10.7072     7.8891    -5.7175 H       
  73 H73           -6.9820     0.8910    -3.0256 H       
  74 H74           -7.6963    -1.2188    -4.2412 H       
  75 H75            7.3348    12.2933    -6.6671 H       
  76 H76            6.4191    10.0953    -7.5444 H       
@<TRIPOS>BOND
   1    1    2 2
   2    1    6 1
   3    1    5 1
   4    2    3 1
   5    3    4 2
   6    4    5 1
   7    4   21 1
   8    6    7 1
   9    6   43 1
  10    6   44 1
  11    7    8 1
  12    7   45 1
  13    7   46 1
  14    8    9 1
  15    8   47 1
  16    8   48 1
  17    9   10 1
  18    9   49 1
  19    9   50 1
  20   10   11 1
  21   10   14 2
  22   11   12 1
  23   11   51 1
  24   11   52 1
  25   12   13 2
  26   12   15 1
  27   13   14 1
  28   15   16 am
  29   15   53 1
  30   16   17 2
  31   16   18 1
  32   18   19 1
  33   18   32 1
  34   18   36 1
  35   19   20 2
  36   19   40 1
  37   20   42 1
  38   20   54 1
  39   21   22 am
  40   21   55 1
  41   22   23 2
  42   22   24 1
  43   24   25 1
  44   24   27 1
  45   24   31 1
  46   25   26 2
  47   25   39 1
  48   26   37 1
  49   26   56 1
  50   27   28 1
  51   27   57 1
  52   27   58 1
  53   28   29 1
  54   28   59 1
  55   28   60 1
  56   29   30 1
  57   30   31 1
  58   30   61 1
  59   30   62 1
  60   31   63 1
  61   31   64 1
  62   32   33 1
  63   32   65 1
  64   32   66 1
  65   33   34 1
  66   33   67 1
  67   33   68 1
  68   34   35 1
  69   35   36 1
  70   35   69 1
  71   35   70 1
  72   36   71 1
  73   36   72 1
  74   37   38 2
  75   37   73 1
  76   38   39 1
  77   38   74 1
  78   40   41 1
  79   41   42 2
  80   41   75 1
  81   42   76 1

#	End of record

