#	Name: ASD08070195
#	Creating user name:	WinNT
#	Creation time:	15. 06. 2019 21:14

#	Modifying user name:	WinNT
#	Modification time:	15. 06. 2019 21:14

#	Program:	/corina/corina34_cracker 3.40 0067  02.08.2006

@<TRIPOS>MOLECULE
ASD08070195
  35   36    0    0    0
SMALL
NO_CHARGES


@<TRIPOS>ATOM
   1 C1            -0.0167     1.3818     0.0096 C.ar    
   2 C2             0.0021    -0.0041     0.0020 C.ar    
   3 C3             1.2105    -0.6864    -0.0128 C.ar    
   4 C4             2.3994     0.0127    -0.0204 C.ar    
   5 C5             2.3851     1.4093    -0.0132 C.ar    
   6 C6             1.1662     2.0901     0.0021 C.ar    
   7 N7             3.6387     3.5112    -0.0139 N.am    
   8 C8             3.6552     2.1636    -0.0209 C.2     
   9 O9             4.7154     1.5687    -0.0334 O.2     
  10 Cl10           1.2257    -2.4223    -0.0211 Cl      
  11 C11            4.8984     4.2592    -0.0215 C.3     
  12 C12            4.6639     5.6468    -0.6221 C.3     
  13 C13            5.4140     4.4043     1.4117 C.3     
  14 C14            6.7295     5.1855     1.4038 C.3     
  15 C15            6.4951     6.5730     0.8032 C.3     
  16 C16            5.9794     6.4280    -0.6300 C.3     
  17 C17            4.1483     5.5017    -2.0552 C.3     
  18 F18           -1.1600    -0.6931     0.0095 F       
  19 H19           -0.9599     1.9079     0.0170 H       
  20 H20            3.3395    -0.5187    -0.0316 H       
  21 H21            1.1499     3.1699     0.0074 H       
  22 H22            2.7929     3.9858    -0.0039 H       
  23 H23            5.6352     3.7239    -0.6203 H       
  24 H24            3.9271     6.1821    -0.0232 H       
  25 H25            4.6771     4.9396     2.0105 H       
  26 H26            5.5810     3.4158     1.8395 H       
  27 H27            7.0969     5.2888     2.4248 H       
  28 H28            7.4664     4.6502     0.8049 H       
  29 H29            5.7582     7.1083     1.4020 H       
  30 H30            7.4323     7.1296     0.7976 H       
  31 H31            6.7163     5.8927    -1.2288 H       
  32 H32            5.8124     7.4165    -1.0578 H       
  33 H33            3.2111     4.9452    -2.0496 H       
  34 H34            3.9813     6.4902    -2.4831 H       
  35 H35            4.8852     4.9664    -2.6540 H       
@<TRIPOS>BOND
   1    1    2 ar
   2    1    6 ar
   3    1   19 1
   4    2    3 ar
   5    2   18 1
   6    3    4 ar
   7    3   10 1
   8    4    5 ar
   9    4   20 1
  10    5    6 ar
  11    5    8 1
  12    6   21 1
  13    7    8 am
  14    7   11 1
  15    7   22 1
  16    8    9 2
  17   11   12 1
  18   11   13 1
  19   11   23 1
  20   12   17 1
  21   12   16 1
  22   12   24 1
  23   13   14 1
  24   13   25 1
  25   13   26 1
  26   14   15 1
  27   14   27 1
  28   14   28 1
  29   15   16 1
  30   15   29 1
  31   15   30 1
  32   16   31 1
  33   16   32 1
  34   17   33 1
  35   17   34 1
  36   17   35 1

#	End of record

