#	Name: ASD01940423
#	Creating user name:	WinNT
#	Creation time:	15. 06. 2019 20:12

#	Modifying user name:	WinNT
#	Modification time:	15. 06. 2019 20:12

#	Program:	/corina/corina34_cracker 3.40 0067  02.08.2006

@<TRIPOS>MOLECULE
ASD01940423
  39   42    0    0    0
SMALL
NO_CHARGES


@<TRIPOS>ATOM
   1 C1             2.1418     3.3274     3.2500 C.3     
   2 C2             2.9297     2.5463     4.3036 C.3     
   3 C3             3.6397     3.0813     3.0583 C.3     
   4 S4             0.9980     2.3933     2.1966 S.o2    
   5 O5             1.7071     1.4523     1.4024 O.2     
   6 O6            -0.1562     2.0096     2.9314 O.2     
   7 N7             0.4369     3.5069     1.1069 N.am    
   8 N8             3.8365     6.4706    -2.1000 N.pl3   
   9 N9             3.1343     7.6815    -2.0674 N.2     
  10 C10            2.0658     7.5509    -1.3359 C.2     
  11 C11            2.0122     6.2253    -0.8434 C.ar    
  12 C12            1.1048     5.5343    -0.0217 C.ar    
  13 C13            1.3389     4.2027     0.2869 C.ar    
  14 C14            2.4646     3.5527    -0.2121 C.ar    
  15 C15            3.3605     4.2202    -1.0172 C.ar    
  16 C16            3.1462     5.5572    -1.3410 C.ar    
  17 N17           -0.0257     6.1849     0.4810 N.pl3   
  18 C18            0.0805     6.9944     1.6162 C.ar    
  19 C19           -1.0622     7.5413     2.1920 C.ar    
  20 C20           -0.9528     8.3407     3.3145 C.ar    
  21 C21            0.2911     8.5964     3.8644 C.ar    
  22 C22            1.4280     8.0543     3.2934 C.ar    
  23 C23            1.3255     7.2497     2.1747 C.ar    
  24 I24            0.4524     9.8084     5.5656 I       
  25 F25           -2.2764     7.2919     1.6547 F       
  26 H26            1.8266     4.3392     3.5050 H       
  27 H27            3.1329     3.0442     5.2517 H       
  28 H28            2.7608     1.4712     4.3637 H       
  29 H29            3.9378     2.3581     2.2992 H       
  30 H30            4.3099     3.9312     3.1872 H       
  31 H31           -0.5152     3.6783     1.0352 H       
  32 H32            4.6638     6.3045    -2.5785 H       
  33 H33            1.3404     8.3260    -1.1373 H       
  34 H34            2.6369     2.5155     0.0347 H       
  35 H35            4.2303     3.7058    -1.3982 H       
  36 H36           -0.8838     6.0748     0.0423 H       
  37 H37           -1.8387     8.7662     3.7623 H       
  38 H38            2.3970     8.2564     3.7252 H       
  39 H39            2.2138     6.8230     1.7328 H       
@<TRIPOS>BOND
   1    1    2 1
   2    1    3 1
   3    1    4 1
   4    1   26 1
   5    2    3 1
   6    2   27 1
   7    2   28 1
   8    3   29 1
   9    3   30 1
  10    4    5 2
  11    4    6 2
  12    4    7 am
  13    7   13 1
  14    7   31 1
  15    8    9 1
  16    8   16 1
  17    8   32 1
  18    9   10 2
  19   10   11 1
  20   10   33 1
  21   11   12 ar
  22   11   16 ar
  23   12   13 ar
  24   12   17 1
  25   13   14 ar
  26   14   15 ar
  27   14   34 1
  28   15   16 ar
  29   15   35 1
  30   17   18 1
  31   17   36 1
  32   18   19 ar
  33   18   23 ar
  34   19   20 ar
  35   19   25 1
  36   20   21 ar
  37   20   37 1
  38   21   22 ar
  39   21   24 1
  40   22   23 ar
  41   22   38 1
  42   23   39 1

#	End of record

