#	Name: ASD01910082
#	Creating user name:	WinNT
#	Creation time:	15. 06. 2019 19:55

#	Modifying user name:	WinNT
#	Modification time:	15. 06. 2019 19:55

#	Program:	/corina/corina34_cracker 3.40 0067  02.08.2006

@<TRIPOS>MOLECULE
ASD01910082
  32   34    0    0    0
SMALL
NO_CHARGES


@<TRIPOS>ATOM
   1 C1            -0.0158     1.3144     0.0093 C.ar    
   2 N2             0.0021    -0.0041     0.0020 N.ar    
   3 C3             1.1439    -0.6689    -0.0125 C.ar    
   4 C4             2.3463     0.0506    -0.0202 C.ar    
   5 C5             2.2776     1.4501    -0.0120 C.ar    
   6 N6             1.0910     2.0311     0.0025 N.ar    
   7 C7             3.6088    -0.6249    -0.0354 C.1     
   8 C8             4.6439    -1.1788    -0.0479 C.1     
   9 C9             5.9065    -1.8543    -0.0632 C.ar    
  10 C10            7.0950    -1.1170    -0.0707 C.ar    
  11 C11            8.3074    -1.7680    -0.0854 C.ar    
  12 C12            8.3515    -3.1625    -0.0929 C.ar    
  13 C13            7.1669    -3.8997    -0.0859 C.ar    
  14 C14            5.9526    -3.2522    -0.0649 C.ar    
  15 C15            9.6587    -3.8619    -0.1087 C.ar    
  16 C16            9.7068    -5.2552    -0.1163 C.ar    
  17 C17           10.9264    -5.9007    -0.1315 C.ar    
  18 C18           12.0997    -5.1680    -0.1388 C.ar    
  19 C19           12.0582    -3.7853    -0.1310 C.ar    
  20 C20           10.8444    -3.1288    -0.1220 C.ar    
  21 H21           -0.9680     1.8239     0.0165 H       
  22 H22            1.1503    -1.7488    -0.0180 H       
  23 H23            3.1796     2.0440    -0.0171 H       
  24 H24            7.0613    -0.0376    -0.0652 H       
  25 H25            9.2254    -1.1990    -0.0915 H       
  26 H26            7.2029    -4.9790    -0.0921 H       
  27 H27            5.0359    -3.8231    -0.0595 H       
  28 H28            8.7913    -5.8282    -0.1098 H       
  29 H29           10.9649    -6.9800    -0.1373 H       
  30 H30           13.0520    -5.6775    -0.1504 H       
  31 H31           12.9775    -3.2185    -0.1360 H       
  32 H32           10.8132    -2.0493    -0.1162 H       
@<TRIPOS>BOND
   1    1    2 ar
   2    1    6 ar
   3    1   21 1
   4    2    3 ar
   5    3    4 ar
   6    3   22 1
   7    4    5 ar
   8    4    7 1
   9    5    6 ar
  10    5   23 1
  11    7    8 3
  12    8    9 1
  13    9   10 ar
  14    9   14 ar
  15   10   11 ar
  16   10   24 1
  17   11   12 ar
  18   11   25 1
  19   12   13 ar
  20   12   15 1
  21   13   14 ar
  22   13   26 1
  23   14   27 1
  24   15   16 ar
  25   15   20 ar
  26   16   17 ar
  27   16   28 1
  28   17   18 ar
  29   17   29 1
  30   18   19 ar
  31   18   30 1
  32   19   20 ar
  33   19   31 1
  34   20   32 1

#	End of record

