#	Name: ASD01914602
#	Creating user name:	WinNT
#	Creation time:	15. 06. 2019 20:03

#	Modifying user name:	WinNT
#	Modification time:	15. 06. 2019 20:03

#	Program:	/corina/corina34_cracker 3.40 0067  02.08.2006

@<TRIPOS>MOLECULE
ASD01914602
  38   42    0    0    0
SMALL
NO_CHARGES


@<TRIPOS>ATOM
   1 C1            -0.0167     1.3823     0.0096 C.ar    
   2 C2             0.0021    -0.0041     0.0020 C.ar    
   3 C3             1.2052    -0.6781    -0.0145 C.ar    
   4 C4             2.4128     0.0315    -0.0238 C.ar    
   5 C5             2.3896     1.4251    -0.0132 C.ar    
   6 C6             1.1659     2.0911     0.0022 C.ar    
   7 C7             3.6717    -0.7401    -0.0495 C.2     
   8 N8             4.8055    -0.4308    -0.7149 N.pl3   
   9 C9             4.9976     0.7596    -1.5517 C.3     
  10 C10            4.7173     1.9606    -0.6796 C.2     
  11 N11            3.5524     2.2018    -0.0131 N.pl3   
  12 C12            5.5619     2.9905    -0.4098 C.2     
  13 N13            4.9100     3.8402     0.4249 N.2     
  14 C14            3.7181     3.3727     0.6655 C.2     
  15 C15            6.8930     3.1502    -0.9131 C.1     
  16 C16            7.9842     3.2812    -1.3257 C.1     
  17 C17            9.3153     3.4410    -1.8290 C.ar    
  18 C18           10.0742     4.5569    -1.4657 C.ar    
  19 C19           11.3556     4.7037    -1.9540 C.ar    
  20 C20           11.8901     3.7498    -2.8021 C.ar    
  21 C21           11.1447     2.6422    -3.1663 C.ar    
  22 C22            9.8640     2.4788    -2.6813 C.ar    
  23 N23            5.7290    -1.4458    -0.4498 N.2     
  24 N24            3.8922    -1.8773     0.5861 N.2     
  25 F25           -1.1588    -0.6951     0.0112 F       
  26 C26            5.1303    -2.2992     0.3432 C.2     
  27 H27           -0.9600     1.9083     0.0170 H       
  28 H28            1.2164    -1.7580    -0.0198 H       
  29 H29            1.1435     3.1708     0.0078 H       
  30 H30            6.0241     0.7962    -1.9166 H       
  31 H31            4.3035     0.7397    -2.3919 H       
  32 H32            2.9791     3.8385     1.3005 H       
  33 H33            9.6581     5.3026    -0.8045 H       
  34 H34           11.9432     5.5656    -1.6742 H       
  35 H35           12.8939     3.8704    -3.1820 H       
  36 H36           11.5683     1.9019    -3.8288 H       
  37 H37            9.2833     1.6140    -2.9664 H       
  38 H38            5.5719    -3.2025     0.7375 H       
@<TRIPOS>BOND
   1    1    2 ar
   2    1    6 ar
   3    1   27 1
   4    2    3 ar
   5    2   25 1
   6    3    4 ar
   7    3   28 1
   8    4    5 ar
   9    4    7 1
  10    5    6 ar
  11    5   11 1
  12    6   29 1
  13    7    8 1
  14    7   24 2
  15    8    9 1
  16    8   23 1
  17    9   10 1
  18    9   30 1
  19    9   31 1
  20   10   11 1
  21   10   12 2
  22   11   14 1
  23   12   13 1
  24   12   15 1
  25   13   14 2
  26   14   32 1
  27   15   16 3
  28   16   17 1
  29   17   18 ar
  30   17   22 ar
  31   18   19 ar
  32   18   33 1
  33   19   20 ar
  34   19   34 1
  35   20   21 ar
  36   20   35 1
  37   21   22 ar
  38   21   36 1
  39   22   37 1
  40   23   26 2
  41   24   26 1
  42   26   38 1

#	End of record

