#	Name: ASD02401021
#	Creating user name:	WinNT
#	Creation time:	15. 06. 2019 20:20

#	Modifying user name:	WinNT
#	Modification time:	15. 06. 2019 20:20

#	Program:	/corina/corina34_cracker 3.40 0067  02.08.2006

@<TRIPOS>MOLECULE
ASD02401021
  35   36    0    0    0
SMALL
NO_CHARGES


@<TRIPOS>ATOM
   1 C1            -0.0168     1.3875     0.0097 C.ar    
   2 C2             0.0021    -0.0041     0.0020 C.ar    
   3 C3            -1.1900    -0.7100     0.0096 C.ar    
   4 C4            -2.3949    -0.0320     0.0247 C.ar    
   5 C5            -2.4136     1.3502     0.0323 C.ar    
   6 C6            -1.2275     2.0607     0.0306 C.ar    
   7 C7            -3.7297     2.0841     0.0487 C.3     
   8 C8            -4.1549     2.3212     1.4749 C.ar    
   9 C9            -3.7659     3.4759     2.1277 C.ar    
  10 C10           -4.1538     3.6982     3.4360 C.ar    
  11 C11           -4.9340     2.7625     4.0957 C.ar    
  12 C12           -5.3256     1.5999     3.4385 C.ar    
  13 C13           -4.9379     1.3858     2.1258 C.ar    
  14 O14           -6.0915     0.6785     4.0819 O.3     
  15 O15            1.1507     2.0850     0.0023 O.3     
  16 O16           -5.3160     2.9795     5.3828 O.3     
  17 C17           -4.8768     4.1942     5.9939 C.3     
  18 O18            1.1880    -0.6694    -0.0133 O.3     
  19 C19            1.1308    -2.0973    -0.0204 C.3     
  20 H20           -1.1781    -1.7899     0.0033 H       
  21 H21           -3.3234    -0.5835     0.0302 H       
  22 H22           -1.2449     3.1406     0.0369 H       
  23 H23           -3.6184     3.0411    -0.4611 H       
  24 H24           -4.4854     1.4866    -0.4612 H       
  25 H25           -3.1574     4.2059     1.6146 H       
  26 H26           -3.8483     4.6011     3.9438 H       
  27 H27           -5.2408     0.4846     1.6134 H       
  28 H28           -7.0430     0.8193     3.9823 H       
  29 H29            1.4799     2.2914    -0.8832 H       
  30 H30           -3.7872     4.2231     6.0029 H       
  31 H31           -5.2581     5.0442     5.4280 H       
  32 H32           -5.2500     4.2420     7.0169 H       
  33 H33            0.6116    -2.4445     0.8729 H       
  34 H34            0.5940    -2.4350    -0.9069 H       
  35 H35            2.1430    -2.5014    -0.0326 H       
@<TRIPOS>BOND
   1    1    2 ar
   2    1   15 1
   3    1    6 ar
   4    2    3 ar
   5    2   18 1
   6    3    4 ar
   7    3   20 1
   8    4    5 ar
   9    4   21 1
  10    5    6 ar
  11    5    7 1
  12    6   22 1
  13    7    8 1
  14    7   23 1
  15    7   24 1
  16    8    9 ar
  17    8   13 ar
  18    9   10 ar
  19    9   25 1
  20   10   11 ar
  21   10   26 1
  22   11   12 ar
  23   11   16 1
  24   12   13 ar
  25   12   14 1
  26   13   27 1
  27   14   28 1
  28   15   29 1
  29   16   17 1
  30   17   30 1
  31   17   31 1
  32   17   32 1
  33   18   19 1
  34   19   33 1
  35   19   34 1
  36   19   35 1

#	End of record

