#	Name: ASD05430660
#	Creating user name:	WinNT
#	Creation time:	15. 06. 2019 21:00

#	Modifying user name:	WinNT
#	Modification time:	15. 06. 2019 21:00

#	Program:	/corina/corina34_cracker 3.40 0067  02.08.2006

@<TRIPOS>MOLECULE
ASD05430660
  21   21    0    0    0
SMALL
NO_CHARGES


@<TRIPOS>ATOM
   1 C1            -0.0167     1.3782     0.0096 C.ar    
   2 C2             0.0021    -0.0041     0.0020 C.ar    
   3 C3            -1.1849    -0.7118     0.0091 C.ar    
   4 C4            -2.4106     1.3485     0.0439 C.ar    
   5 C5            -1.2224     2.0541     0.0305 C.ar    
   6 C6             1.2784     2.1488     0.0014 C.3     
   7 C7            -2.3932    -0.0359     0.0243 C.ar    
   8 C8             1.3360     3.0361    -1.2437 C.3     
   9 C9             1.3598     3.0227     1.2546 C.3     
  10 F10           -3.5542    -0.7267     0.0312 F       
  11 H11            0.9447    -0.5311    -0.0098 H       
  12 H12           -1.1700    -1.7917     0.0024 H       
  13 H13           -3.3525     1.8767     0.0606 H       
  14 H14           -1.2357     3.1339     0.0458 H       
  15 H15            2.1160     1.4515    -0.0104 H       
  16 H16            2.2727     3.5935    -1.2497 H       
  17 H17            1.2779     2.4136    -2.1365 H       
  18 H18            0.4983     3.7335    -1.2320 H       
  19 H19            1.3188     2.3906     2.1417 H       
  20 H20            2.2965     3.5801     1.2487 H       
  21 H21            0.5221     3.7201     1.2664 H       
@<TRIPOS>BOND
   1    1    2 ar
   2    1    6 1
   3    1    5 ar
   4    2    3 ar
   5    2   11 1
   6    3    7 ar
   7    3   12 1
   8    4    5 ar
   9    4    7 ar
  10    4   13 1
  11    5   14 1
  12    6    8 1
  13    6    9 1
  14    6   15 1
  15    7   10 1
  16    8   16 1
  17    8   17 1
  18    8   18 1
  19    9   19 1
  20    9   20 1
  21    9   21 1

#	End of record

