#	Name: ASD06660023
#	Creating user name:	WinNT
#	Creation time:	15. 06. 2019 21:07

#	Modifying user name:	WinNT
#	Modification time:	15. 06. 2019 21:07

#	Program:	/corina/corina34_cracker 3.40 0067  02.08.2006

@<TRIPOS>MOLECULE
ASD06660023
  75   78    0    0    0
SMALL
NO_CHARGES


@<TRIPOS>ATOM
   1 C1             0.0685     1.6584     0.9332 C.2     
   2 C2             0.0103     0.2631     0.3669 C.3     
   3 C3            -1.0695     0.1964    -0.7150 C.3     
   4 O4             1.0899     2.2994     0.8566 O.2     
   5 O5            -1.0160     2.1912     1.5178 O.3     
   6 C6            -1.2186    -1.2264    -1.1889 C.ar    
   7 C7            -2.0912    -2.0814    -0.5410 C.ar    
   8 C8            -2.2302    -3.3859    -0.9727 C.ar    
   9 C9            -1.4923    -3.8387    -2.0590 C.ar    
  10 C10           -0.6167    -2.9771    -2.7076 C.ar    
  11 C11           -0.4867    -1.6722    -2.2742 C.ar    
  12 N12           -1.6301    -5.1575    -2.4980 N.3     
  13 C13           -0.7622    -5.4212    -3.6528 C.3     
  14 C14           -1.0450    -6.8239    -4.1954 C.3     
  15 C15           -0.7859    -7.8542    -3.0927 C.3     
  16 C16           -1.6669    -7.5284    -1.8834 C.3     
  17 C17           -1.3660    -6.1053    -1.4079 C.3     
  18 C18           -1.1200    -9.2324    -3.6025 C.2     
  19 N19           -0.9681   -10.3035    -2.7987 N.am    
  20 O20           -1.5255    -9.3777    -4.7359 O.2     
  21 C21           -1.2744   -11.5670    -3.2661 C.2     
  22 N22           -1.7044   -11.6957    -4.4765 N.2     
  23 C23           -2.0705   -12.9740    -5.0754 C.3     
  24 C24           -1.4217   -14.1312    -4.3125 C.3     
  25 C25           -1.6927   -13.9366    -2.8130 C.3     
  26 N26           -1.1053   -12.6428    -2.4278 N.pl3   
  27 N27            1.3089    -0.0813    -0.2174 N.am    
  28 C28            2.3347    -0.4356     0.5817 C.2     
  29 C29            3.6691    -0.6950     0.0004 C.ar    
  30 C30            4.0670    -2.0020    -0.2862 C.ar    
  31 C31            5.3131    -2.2370    -0.8289 C.ar    
  32 C32            6.1684    -1.1807    -1.0889 C.ar    
  33 C33            5.7805     0.1169    -0.8068 C.ar    
  34 C34            4.5343     0.3663    -0.2696 C.ar    
  35 O35            2.1628    -0.5419     1.7803 O.2     
  36 C36            4.1110     1.7810     0.0312 C.3     
  37 C37            3.1372    -3.1537    -0.0028 C.3     
  38 C38            2.2024    -3.3600    -1.1962 C.3     
  39 H39           -0.2286    -0.4424     1.1627 H       
  40 H40           -2.0175     0.5437    -0.3040 H       
  41 H41           -0.7831     0.8307    -1.5539 H       
  42 H42           -0.9304     3.0892     1.8662 H       
  43 H43           -2.6643    -1.7289     0.3038 H       
  44 H44           -2.9116    -4.0533    -0.4660 H       
  45 H45           -0.0415    -3.3259    -3.5525 H       
  46 H46            0.1903    -1.0005    -2.7809 H       
  47 H47           -0.9595    -4.6841    -4.4312 H       
  48 H48            0.2814    -5.3542    -3.3455 H       
  49 H49           -2.0849    -6.8874    -4.5156 H       
  50 H50           -0.3897    -7.0253    -5.0428 H       
  51 H51            0.2633    -7.8178    -2.7993 H       
  52 H52           -2.7166    -7.6030    -2.1673 H       
  53 H53           -1.4559    -8.2331    -1.0791 H       
  54 H54           -0.3196    -6.0351    -1.1111 H       
  55 H55           -2.0019    -5.8651    -0.5558 H       
  56 H56           -0.6437   -10.1872    -1.8919 H       
  57 H57           -3.1542   -13.0873    -5.0465 H       
  58 H58           -1.7351   -12.9943    -6.1123 H       
  59 H59           -1.8523   -15.0762    -4.6437 H       
  60 H60           -0.3469   -14.1335    -4.4939 H       
  61 H61           -2.7669   -13.9300    -2.6283 H       
  62 H62           -1.2230   -14.7392    -2.2443 H       
  63 H63           -0.6116   -12.5502    -1.5979 H       
  64 H64            1.4303    -0.0544    -1.1794 H       
  65 H65            5.6221    -3.2478    -1.0511 H       
  66 H66            7.1431    -1.3702    -1.5135 H       
  67 H67            6.4528     0.9368    -1.0118 H       
  68 H68            4.4048     2.0396     1.0485 H       
  69 H69            4.5932     2.4616    -0.6704 H       
  70 H70            3.0286     1.8650    -0.0668 H       
  71 H71            3.7207    -4.0594     0.1626 H       
  72 H72            2.5474    -2.9339     0.8871 H       
  73 H73            1.6915    -2.4243    -1.4236 H       
  74 H74            2.7834    -3.6765    -2.0625 H       
  75 H75            1.4662    -4.1261    -0.9529 H       
@<TRIPOS>BOND
   1    1    2 1
   2    1    4 2
   3    1    5 1
   4    2    3 1
   5    2   27 1
   6    2   39 1
   7    3    6 1
   8    3   40 1
   9    3   41 1
  10    5   42 1
  11    6    7 ar
  12    6   11 ar
  13    7    8 ar
  14    7   43 1
  15    8    9 ar
  16    8   44 1
  17    9   10 ar
  18    9   12 1
  19   10   11 ar
  20   10   45 1
  21   11   46 1
  22   12   13 1
  23   12   17 1
  24   13   14 1
  25   13   47 1
  26   13   48 1
  27   14   15 1
  28   14   49 1
  29   14   50 1
  30   15   16 1
  31   15   18 1
  32   15   51 1
  33   16   17 1
  34   16   52 1
  35   16   53 1
  36   17   54 1
  37   17   55 1
  38   18   19 am
  39   18   20 2
  40   19   21 1
  41   19   56 1
  42   21   22 2
  43   21   26 1
  44   22   23 1
  45   23   24 1
  46   23   57 1
  47   23   58 1
  48   24   25 1
  49   24   59 1
  50   24   60 1
  51   25   26 1
  52   25   61 1
  53   25   62 1
  54   26   63 1
  55   27   28 am
  56   27   64 1
  57   28   29 1
  58   28   35 2
  59   29   30 ar
  60   29   34 ar
  61   30   31 ar
  62   30   37 1
  63   31   32 ar
  64   31   65 1
  65   32   33 ar
  66   32   66 1
  67   33   34 ar
  68   33   67 1
  69   34   36 1
  70   36   68 1
  71   36   69 1
  72   36   70 1
  73   37   38 1
  74   37   71 1
  75   37   72 1
  76   38   73 1
  77   38   74 1
  78   38   75 1

#	End of record

