#	Name: ASD01814295
#	Creating user name:	WinNT
#	Creation time:	15. 06. 2019 19:32

#	Modifying user name:	WinNT
#	Modification time:	15. 06. 2019 19:32

#	Program:	/corina/corina34_cracker 3.40 0067  02.08.2006

@<TRIPOS>MOLECULE
ASD01814295
  49   53    0    0    0
SMALL
NO_CHARGES


@<TRIPOS>ATOM
   1 C1            -0.0168     1.3869     0.0097 C.ar    
   2 C2             0.0021    -0.0041     0.0020 C.ar    
   3 C3             1.1801    -0.6897    -0.0129 C.ar    
   4 C4             2.3948     0.0129    -0.0207 C.ar    
   5 C5             2.3717     1.4289    -0.0129 C.ar    
   6 C6             1.1456     2.1014     0.0024 C.ar    
   7 C7             3.6294    -0.6695    -0.0365 C.ar    
   8 C8             4.8032     0.0059    -0.0446 C.ar    
   9 C9             4.8363     1.4093    -0.0369 C.ar    
  10 C10            3.6406     2.1511    -0.0211 C.ar    
  11 C11            6.1027     2.1516    -0.0451 C.2     
  12 N12            6.0336     3.5031    -0.0368 N.am    
  13 C13            4.8302     4.1313    -0.0215 C.2     
  14 N14            3.6959     3.4932    -0.0145 N.2     
  15 C15            3.6423    -2.1764    -0.0442 C.3     
  16 C16            3.5085    -2.6727    -1.4608 C.ar    
  17 C17            4.6396    -2.8892    -2.2260 C.ar    
  18 C18            4.5196    -3.3441    -3.5249 C.ar    
  19 C19            3.2629    -3.5838    -4.0613 C.ar    
  20 C20            2.1295    -3.3658    -3.2915 C.ar    
  21 C21            2.2551    -2.9162    -1.9913 C.ar    
  22 O22            7.1746     1.5733    -0.0584 O.2     
  23 C23            7.2156     4.2615    -0.0435 C.2     
  24 N24            7.3152     5.5947     0.0571 N.2     
  25 N25            8.5567     5.9267     0.0130 N.2     
  26 N26            9.2961     4.8808    -0.1125 N.pl3   
  27 C27            8.4859     3.7888    -0.1475 C.2     
  28 C28           10.7587     4.8681    -0.1968 C.3     
  29 O29            3.1422    -4.0309    -5.3390 O.3     
  30 C30            1.8174    -4.2561    -5.8251 C.3     
  31 H31           -0.9630     1.9075     0.0169 H       
  32 H32           -0.9305    -0.5488     0.0083 H       
  33 H33            1.1787    -1.7697    -0.0183 H       
  34 H34            1.1189     3.1811     0.0088 H       
  35 H35            5.7316    -0.5457    -0.0567 H       
  36 H36            4.8133     5.2111    -0.0152 H       
  37 H37            4.5811    -2.5339     0.3789 H       
  38 H38            2.8096    -2.5499     0.5518 H       
  39 H39            5.6177    -2.7022    -1.8080 H       
  40 H40            5.4034    -3.5128    -4.1223 H       
  41 H41            1.1501    -3.5516    -3.7069 H       
  42 H42            1.3731    -2.7467    -1.3915 H       
  43 H43            8.7896     2.7570    -0.2455 H       
  44 H44           11.1796     4.7830     0.8051 H       
  45 H45           11.0805     4.0189    -0.7995 H       
  46 H46           11.1040     5.7931    -0.6586 H       
  47 H47            1.3253    -5.0053    -5.2049 H       
  48 H48            1.2529    -3.3245    -5.7863 H       
  49 H49            1.8636    -4.6103    -6.8549 H       
@<TRIPOS>BOND
   1    1    2 ar
   2    1    6 ar
   3    1   31 1
   4    2    3 ar
   5    2   32 1
   6    3    4 ar
   7    3   33 1
   8    4    5 ar
   9    4    7 ar
  10    5    6 ar
  11    5   10 ar
  12    6   34 1
  13    7    8 ar
  14    7   15 1
  15    8    9 ar
  16    8   35 1
  17    9   10 ar
  18    9   11 1
  19   10   14 1
  20   11   12 am
  21   11   22 2
  22   12   13 1
  23   12   23 1
  24   13   14 2
  25   13   36 1
  26   15   16 1
  27   15   37 1
  28   15   38 1
  29   16   17 ar
  30   16   21 ar
  31   17   18 ar
  32   17   39 1
  33   18   19 ar
  34   18   40 1
  35   19   20 ar
  36   19   29 1
  37   20   21 ar
  38   20   41 1
  39   21   42 1
  40   23   24 1
  41   23   27 2
  42   24   25 2
  43   25   26 1
  44   26   27 1
  45   26   28 1
  46   27   43 1
  47   28   44 1
  48   28   45 1
  49   28   46 1
  50   29   30 1
  51   30   47 1
  52   30   48 1
  53   30   49 1

#	End of record

