#	Name: ASD03331187
#	Creating user name:	WinNT
#	Creation time:	15. 06. 2019 20:38

#	Modifying user name:	WinNT
#	Modification time:	15. 06. 2019 20:38

#	Program:	/corina/corina34_cracker 3.40 0067  02.08.2006

@<TRIPOS>MOLECULE
ASD03331187
  66   69    0    0    0
SMALL
NO_CHARGES


@<TRIPOS>ATOM
   1 N1            -0.3056     1.6539     0.4190 N.am    
   2 C2            -0.2556     0.3552     1.1076 C.3     
   3 C3             0.3578    -0.6772     0.1557 C.3     
   4 N4             1.6525    -0.1817    -0.3306 N.3     
   5 C5             1.4913     1.0504    -1.1141 C.3     
   6 C6             0.9242     2.1536    -0.2142 C.3     
   7 C7            -1.4495     2.3646     0.3650 C.2     
   8 O8            -2.4804     1.8915     0.8027 O.2     
   9 N9            -1.4506     3.5997    -0.1744 N.am    
  10 C10           -2.6595     4.2773    -0.3688 C.ar    
  11 C11           -2.7097     5.6597    -0.2471 C.ar    
  12 C12           -3.9043     6.3255    -0.4401 C.ar    
  13 C13           -5.0495     5.6171    -0.7541 C.ar    
  14 C14           -5.0028     4.2404    -0.8759 C.ar    
  15 C15           -3.8102     3.5692    -0.6894 C.ar    
  16 C16            2.3522    -1.2126    -1.1087 C.3     
  17 C17            3.5479    -0.6010    -1.7922 C.ar    
  18 C18            4.7733    -0.5801    -1.1526 C.ar    
  19 C19            5.8725    -0.0195    -1.7771 C.ar    
  20 C20            5.7486     0.5211    -3.0420 C.ar    
  21 C21            4.5196     0.5013    -3.6863 C.ar    
  22 C22            3.4197    -0.0667    -3.0599 C.ar    
  23 C23            5.7942     2.8271    -5.6259 C.ar    
  24 C24            5.5210     1.4686    -5.5540 C.ar    
  25 O25            4.3949     1.0329    -4.9306 O.3     
  26 C26            6.9394     3.2674    -6.2606 C.ar    
  27 C27            7.8128     2.3557    -6.8244 C.ar    
  28 C28            7.5431     1.0014    -6.7538 C.ar    
  29 C29            6.3994     0.5558    -6.1202 C.ar    
  30 C30            9.0612     2.8390    -7.5166 C.3     
  31 C31            9.9271     3.6159    -6.5229 C.3     
  32 C32            9.8469     1.6385    -8.0480 C.3     
  33 C33            8.6769     3.7531    -8.6817 C.3     
  34 H34            0.3602     0.4390     2.0030 H       
  35 H35           -1.2646     0.0467     1.3812 H       
  36 H36            0.5044    -1.6185     0.6854 H       
  37 H37           -0.3118    -0.8355    -0.6897 H       
  38 H38            2.4598     1.3620    -1.5053 H       
  39 H39            0.8059     0.8680    -1.9418 H       
  40 H40            0.6953     3.0341    -0.8145 H       
  41 H41            1.6535     2.4102     0.5542 H       
  42 H42           -0.6134     4.0191    -0.4277 H       
  43 H43           -1.8157     6.2136    -0.0015 H       
  44 H44           -3.9440     7.4006    -0.3452 H       
  45 H45           -5.9825     6.1400    -0.9041 H       
  46 H46           -5.8990     3.6899    -1.1213 H       
  47 H47           -3.7734     2.4945    -0.7891 H       
  48 H48            2.6828    -2.0091    -0.4420 H       
  49 H49            1.6759    -1.6236    -1.8583 H       
  50 H50            4.8723    -1.0019    -0.1633 H       
  51 H51            6.8286    -0.0041    -1.2751 H       
  52 H52            6.6072     0.9590    -3.5291 H       
  53 H53            2.4622    -0.0833    -3.5591 H       
  54 H54            5.1099     3.5398    -5.1899 H       
  55 H55            7.1525     4.3246    -6.3169 H       
  56 H56            8.2266     0.2914    -7.1955 H       
  57 H57            6.1888    -0.5021    -6.0659 H       
  58 H58           10.2009     2.9646    -5.6929 H       
  59 H59           10.8300     3.9654    -7.0236 H       
  60 H60            9.3673     4.4711    -6.1444 H       
  61 H61            9.2300     1.0850    -8.7559 H       
  62 H62           10.7498     1.9880    -8.5486 H       
  63 H63           10.1207     0.9872    -7.2179 H       
  64 H64            8.1171     4.6084    -8.3032 H       
  65 H65            9.5798     4.1026    -9.1824 H       
  66 H66            8.0600     3.1996    -9.3897 H       
@<TRIPOS>BOND
   1    1    2 1
   2    1    6 1
   3    1    7 am
   4    2    3 1
   5    2   34 1
   6    2   35 1
   7    3    4 1
   8    3   36 1
   9    3   37 1
  10    4    5 1
  11    4   16 1
  12    5    6 1
  13    5   38 1
  14    5   39 1
  15    6   40 1
  16    6   41 1
  17    7    8 2
  18    7    9 am
  19    9   10 1
  20    9   42 1
  21   10   11 ar
  22   10   15 ar
  23   11   12 ar
  24   11   43 1
  25   12   13 ar
  26   12   44 1
  27   13   14 ar
  28   13   45 1
  29   14   15 ar
  30   14   46 1
  31   15   47 1
  32   16   17 1
  33   16   48 1
  34   16   49 1
  35   17   18 ar
  36   17   22 ar
  37   18   19 ar
  38   18   50 1
  39   19   20 ar
  40   19   51 1
  41   20   21 ar
  42   20   52 1
  43   21   22 ar
  44   21   25 1
  45   22   53 1
  46   23   24 ar
  47   23   26 ar
  48   23   54 1
  49   24   25 1
  50   24   29 ar
  51   26   27 ar
  52   26   55 1
  53   27   28 ar
  54   27   30 1
  55   28   29 ar
  56   28   56 1
  57   29   57 1
  58   30   31 1
  59   30   32 1
  60   30   33 1
  61   31   58 1
  62   31   59 1
  63   31   60 1
  64   32   61 1
  65   32   62 1
  66   32   63 1
  67   33   64 1
  68   33   65 1
  69   33   66 1

#	End of record

