#	Name: ASD04590045
#	Creating user name:	WinNT
#	Creation time:	15. 06. 2019 20:50

#	Modifying user name:	WinNT
#	Modification time:	15. 06. 2019 20:50

#	Program:	/corina/corina34_cracker 3.40 0067  02.08.2006

@<TRIPOS>MOLECULE
ASD04590045
  33   35    0    0    0
SMALL
NO_CHARGES


@<TRIPOS>ATOM
   1 N1            -0.1093     1.2566    -0.0491 N.pl3   
   2 N2            -0.0381    -0.0254    -0.0157 N.2     
   3 C3             1.2009    -0.4202    -0.2395 C.2     
   4 C4             1.9818     0.7488    -0.4326 C.2     
   5 C5             1.1145     1.7881    -0.3040 C.2     
   6 C6             1.6831    -1.8130    -0.2807 C.2     
   7 O7             2.8572    -2.0438    -0.4976 O.2     
   8 N8             0.8226    -2.8303    -0.0779 N.am    
   9 C9             1.2595    -4.1534    -0.2104 C.ar    
  10 C10            2.5442    -4.5041     0.1831 C.ar    
  11 C11            2.9733    -5.8102     0.0514 C.ar    
  12 C12            2.1235    -6.7698    -0.4726 C.ar    
  13 C13            0.8420    -6.4222    -0.8656 C.ar    
  14 C14            0.4069    -5.1183    -0.7303 C.ar    
  15 F15            2.5453    -8.0468    -0.6009 F       
  16 N16            3.3572     0.8177    -0.6990 N.pl3   
  17 C17            3.9501     2.0430    -0.9807 C.ar    
  18 C18            5.2918     2.1011    -1.3527 C.ar    
  19 N19            3.2387     3.1603    -0.9016 N.ar    
  20 N20            5.8501     3.2660    -1.6196 N.ar    
  21 C21            5.1383     4.3777    -1.5345 C.ar    
  22 C22            3.8063     4.3239    -1.1709 C.ar    
  23 H23           -0.9208     1.7710     0.0843 H       
  24 H24            1.3535     2.8379    -0.3885 H       
  25 H25           -0.0994    -2.6455     0.1599 H       
  26 H26            3.2075    -3.7560     0.5915 H       
  27 H27            3.9725    -6.0834     0.3570 H       
  28 H28            0.1808    -7.1720    -1.2743 H       
  29 H29           -0.5941    -4.8486    -1.0328 H       
  30 H30            3.8946     0.0103    -0.6865 H       
  31 H31            5.8736     1.1938    -1.4220 H       
  32 H32            5.5984     5.3299    -1.7537 H       
  33 H33            3.2278     5.2336    -1.1067 H       
@<TRIPOS>BOND
   1    1    2 1
   2    1    5 1
   3    1   23 1
   4    2    3 2
   5    3    4 1
   6    3    6 1
   7    4    5 2
   8    4   16 1
   9    5   24 1
  10    6    7 2
  11    6    8 am
  12    8    9 1
  13    8   25 1
  14    9   10 ar
  15    9   14 ar
  16   10   11 ar
  17   10   26 1
  18   11   12 ar
  19   11   27 1
  20   12   13 ar
  21   12   15 1
  22   13   14 ar
  23   13   28 1
  24   14   29 1
  25   16   17 1
  26   16   30 1
  27   17   18 ar
  28   17   19 ar
  29   18   20 ar
  30   18   31 1
  31   19   22 ar
  32   20   21 ar
  33   21   22 ar
  34   21   32 1
  35   22   33 1

#	End of record

