#	Name: ASD00170432
#	Creating user name:	WinNT
#	Creation time:	15. 06. 2019 18:32

#	Modifying user name:	WinNT
#	Modification time:	15. 06. 2019 18:32

#	Program:	/corina/corina34_cracker 3.40 0067  02.08.2006

@<TRIPOS>MOLECULE
ASD00170432
  67   71    0    0    0
SMALL
NO_CHARGES


@<TRIPOS>ATOM
   1 C1            -4.7631    -0.4592    -1.1015 C.2     
   2 C2            -3.8264    -0.9218    -0.2036 C.2     
   3 C3            -3.0791    -2.0512    -0.7055 C.2     
   4 C4            -3.4511    -2.4164    -1.9413 C.2     
   5 S5            -4.7426    -1.3859    -2.5313 S.3     
   6 C6            -1.9947    -2.7460     0.0770 C.3     
   7 N7            -5.6073     0.6061    -0.8719 N.pl3   
   8 C8            -3.6109    -0.3313     1.1176 C.2     
   9 C9            -2.5949     0.7277     1.2972 C.ar    
  10 O10           -4.2683    -0.7121     2.0694 O.2     
  11 C11           -2.4668     1.3746     2.5279 C.ar    
  12 C12           -1.5170     2.3612     2.6895 C.ar    
  13 C13           -0.6910     2.7108     1.6340 C.ar    
  14 C14           -0.8134     2.0726     0.4107 C.ar    
  15 C15           -1.7558     1.0808     0.2386 C.ar    
  16 Cl16           0.5019     3.9543     1.8449 Cl      
  17 N17           -2.4789    -3.0368     1.4330 N.3     
  18 C18           -2.8601    -3.5329    -2.6972 C.2     
  19 C19           -3.3345    -4.2310     1.4416 C.3     
  20 C20           -1.3587    -3.1851     2.3716 C.3     
  21 C21           -4.5544    -3.9907     0.5500 C.3     
  22 C22           -5.4455    -5.2345     0.5590 C.3     
  23 C23           -4.6546    -6.4323     0.0293 C.3     
  24 C24           -3.4347    -6.6725     0.9209 C.3     
  25 C25           -2.5436    -5.4288     0.9120 C.3     
  26 C26           -0.6490    -1.8395     2.5353 C.3     
  27 C27            0.5178    -1.9939     3.5128 C.3     
  28 C28           -0.0125    -2.4593     4.8705 C.3     
  29 C29           -0.7221    -3.8049     4.7068 C.3     
  30 C30           -1.8889    -3.6505     3.7292 C.3     
  31 C31           -3.3209    -4.0080    -3.8742 C.2     
  32 C32           -2.5978    -5.0637    -4.3915 C.2     
  33 C33           -1.5552    -5.4529    -3.6504 C.2     
  34 S34           -1.4401    -4.4496    -2.2108 S.3     
  35 Cl35          -0.4732    -6.7494    -4.0528 Cl      
  36 H36           -1.7275    -3.6780    -0.4211 H       
  37 H37           -1.1181    -2.1007     0.1348 H       
  38 H38           -5.6169     1.0391    -0.0040 H       
  39 H39           -6.1918     0.9228    -1.5784 H       
  40 H40           -3.1105     1.1031     3.3515 H       
  41 H41           -1.4173     2.8626     3.6409 H       
  42 H42           -0.1668     2.3497    -0.4088 H       
  43 H43           -1.8503     0.5839    -0.7157 H       
  44 H44           -3.6636    -4.4347     2.4606 H       
  45 H45           -0.6552    -3.9221     1.9842 H       
  46 H46           -5.1179    -3.1374     0.9274 H       
  47 H47           -4.2253    -3.7870    -0.4689 H       
  48 H48           -5.7746    -5.4382     1.5779 H       
  49 H49           -6.3146    -5.0633    -0.0762 H       
  50 H50           -5.2894    -7.3184     0.0357 H       
  51 H51           -4.3255    -6.2285    -0.9896 H       
  52 H52           -3.7638    -6.8763     1.9399 H       
  53 H53           -2.8713    -7.5259     0.5436 H       
  54 H54           -2.2145    -5.2250    -0.1070 H       
  55 H55           -1.6745    -5.5999     1.5472 H       
  56 H56           -0.2712    -1.5080     1.5681 H       
  57 H57           -1.3524    -1.1025     2.9227 H       
  58 H58            1.2213    -2.7310     3.1255 H       
  59 H59            1.0234    -1.0353     3.6295 H       
  60 H60            0.8188    -2.5693     5.5669 H       
  61 H61           -0.7159    -1.7223     5.2578 H       
  62 H62           -0.0187    -4.5419     4.3194 H       
  63 H63           -1.0999    -4.1364     5.6740 H       
  64 H64           -2.5924    -2.9134     4.1166 H       
  65 H65           -2.3945    -4.6091     3.6126 H       
  66 H66           -4.1865    -3.5952    -4.3709 H       
  67 H67           -2.8553    -5.5404    -5.3257 H       
@<TRIPOS>BOND
   1    1    2 2
   2    1    7 1
   3    1    5 1
   4    2    3 1
   5    2    8 1
   6    3    4 2
   7    3    6 1
   8    4    5 1
   9    4   18 1
  10    6   17 1
  11    6   36 1
  12    6   37 1
  13    7   38 1
  14    7   39 1
  15    8    9 1
  16    8   10 2
  17    9   11 ar
  18    9   15 ar
  19   11   12 ar
  20   11   40 1
  21   12   13 ar
  22   12   41 1
  23   13   14 ar
  24   13   16 1
  25   14   15 ar
  26   14   42 1
  27   15   43 1
  28   17   19 1
  29   17   20 1
  30   18   31 2
  31   18   34 1
  32   19   21 1
  33   19   25 1
  34   19   44 1
  35   20   26 1
  36   20   30 1
  37   20   45 1
  38   21   22 1
  39   21   46 1
  40   21   47 1
  41   22   23 1
  42   22   48 1
  43   22   49 1
  44   23   24 1
  45   23   50 1
  46   23   51 1
  47   24   25 1
  48   24   52 1
  49   24   53 1
  50   25   54 1
  51   25   55 1
  52   26   27 1
  53   26   56 1
  54   26   57 1
  55   27   28 1
  56   27   58 1
  57   27   59 1
  58   28   29 1
  59   28   60 1
  60   28   61 1
  61   29   30 1
  62   29   62 1
  63   29   63 1
  64   30   64 1
  65   30   65 1
  66   31   32 1
  67   31   66 1
  68   32   33 2
  69   32   67 1
  70   33   34 1
  71   33   35 1

#	End of record

