#	Name: ASD00069348
#	Creating user name:	WinNT
#	Creation time:	15. 06. 2019 18:29

#	Modifying user name:	WinNT
#	Modification time:	15. 06. 2019 18:29

#	Program:	/corina/corina34_cracker 3.40 0067  02.08.2006

@<TRIPOS>MOLECULE
ASD00069348
  56   59    0    0    0
SMALL
NO_CHARGES


@<TRIPOS>ATOM
   1 C1            -0.0972     1.1992    -0.5382 C.2     
   2 N2             0.0007    -0.0057    -0.0192 N.2     
   3 C3             1.2443    -0.4624    -0.2078 C.2     
   4 C4             1.9520     0.4991    -0.8730 C.2     
   5 N5             1.1111     1.5390    -1.0793 N.pl3   
   6 C6            -1.3081     2.0390    -0.5413 C.2     
   7 O7            -1.2819     3.1421    -1.0533 O.2     
   8 N8            -2.4446     1.5849     0.0233 N.am    
   9 C9             0.9492    -2.6563     0.8878 C.2     
  10 C10            1.7643    -1.7827     0.2291 C.2     
  11 C11            3.1038    -2.1398    -0.0357 C.2     
  12 C12            3.5598    -3.3561     0.3737 C.2     
  13 C13            2.6891    -4.2287     1.0497 C.2     
  14 N14            1.4156    -3.8652     1.2899 N.am    
  15 O15            3.0896    -5.3206     1.4200 O.2     
  16 C16            0.5216    -4.7866     1.9956 C.3     
  17 F17            1.0863    -6.0665     2.0080 F       
  18 F18            0.3396    -4.3445     3.3104 F       
  19 C19           -3.5598     2.4257     0.1263 C.ar    
  20 C20           -4.8457     1.8972     0.0210 C.ar    
  21 C21           -5.9470     2.7365     0.1240 C.ar    
  22 C22           -5.7654     4.0931     0.3306 C.ar    
  23 C23           -4.4895     4.6156     0.4348 C.ar    
  24 C24           -3.3880     3.7857     0.3391 C.ar    
  25 F25           -7.1951     2.2294     0.0222 F       
  26 N26           -5.0259     0.5240    -0.1886 N.3     
  27 C27           -5.7971    -0.0787     0.9062 C.3     
  28 C28           -5.8497    -1.5967     0.7195 C.3     
  29 C29           -6.5033    -1.9181    -0.6273 C.3     
  30 C30           -5.7088    -1.2389    -1.7463 C.3     
  31 C31           -5.6603     0.2687    -1.4882 C.3     
  32 C32           -6.5038    -3.4322    -0.8471 C.3     
  33 N33           -7.2363    -3.7478    -2.0807 N.3     
  34 H34            2.9869     0.4403    -1.1760 H       
  35 H35            1.3260     2.3714    -1.5285 H       
  36 H36           -2.4900     0.6757     0.3582 H       
  37 H37           -0.0746    -2.3815     1.0945 H       
  38 H38            3.7589    -1.4572    -0.5566 H       
  39 H39            4.5815    -3.6480     0.1802 H       
  40 H40           -0.4417    -4.8194     1.4867 H       
  41 H41           -6.6226     4.7453     0.4103 H       
  42 H42           -4.3530     5.6747     0.5960 H       
  43 H43           -2.3932     4.1971     0.4255 H       
  44 H44           -5.3193     0.1539     1.8579 H       
  45 H45           -6.8103     0.3232     0.9009 H       
  46 H46           -4.8376    -2.0010     0.7386 H       
  47 H47           -6.4353    -2.0421     1.5237 H       
  48 H48           -7.5285    -1.5480    -0.6322 H       
  49 H49           -4.6945    -1.6376    -1.7660 H       
  50 H50           -6.1937    -1.4288    -2.7038 H       
  51 H51           -6.6741     0.6690    -1.4823 H       
  52 H52           -5.0831     0.7536    -2.2755 H       
  53 H53           -5.4768    -3.7872    -0.9334 H       
  54 H54           -6.9876    -3.9218    -0.0019 H       
  55 H55           -6.8459    -3.2540    -2.8693 H       
  56 H56           -7.2508    -4.7427    -2.2482 H       
@<TRIPOS>BOND
   1    1    2 2
   2    1    5 1
   3    1    6 1
   4    2    3 1
   5    3    4 2
   6    3   10 1
   7    4    5 1
   8    4   34 1
   9    5   35 1
  10    6    7 2
  11    6    8 am
  12    8   19 1
  13    8   36 1
  14    9   10 2
  15    9   14 1
  16    9   37 1
  17   10   11 1
  18   11   12 2
  19   11   38 1
  20   12   13 1
  21   12   39 1
  22   13   14 am
  23   13   15 2
  24   14   16 1
  25   16   17 1
  26   16   18 1
  27   16   40 1
  28   19   20 ar
  29   19   24 ar
  30   20   21 ar
  31   20   26 1
  32   21   22 ar
  33   21   25 1
  34   22   23 ar
  35   22   41 1
  36   23   24 ar
  37   23   42 1
  38   24   43 1
  39   26   27 1
  40   26   31 1
  41   27   28 1
  42   27   44 1
  43   27   45 1
  44   28   29 1
  45   28   46 1
  46   28   47 1
  47   29   30 1
  48   29   32 1
  49   29   48 1
  50   30   31 1
  51   30   49 1
  52   30   50 1
  53   31   51 1
  54   31   52 1
  55   32   33 1
  56   32   53 1
  57   32   54 1
  58   33   55 1
  59   33   56 1

#	End of record

