#	Name: ASD02030212
#	Creating user name:	WinNT
#	Creation time:	15. 06. 2019 20:14

#	Modifying user name:	WinNT
#	Modification time:	15. 06. 2019 20:14

#	Program:	/corina/corina34_cracker 3.40 0067  02.08.2006

@<TRIPOS>MOLECULE
ASD02030212
  61   65    0    0    0
SMALL
NO_CHARGES


@<TRIPOS>ATOM
   1 N1            -0.1251     1.4377    -0.8124 N.am    
   2 C2            -0.1510    -0.0293    -0.7281 C.3     
   3 C3            -0.9341    -0.4343     0.5268 C.3     
   4 N4            -2.2079     0.2986     0.5424 N.am    
   5 C5            -2.1821     1.7656     0.4580 C.3     
   6 C6            -1.3986     2.1709    -0.7913 C.3     
   7 C7             1.0458     2.0991    -0.9019 C.2     
   8 C8             2.3218     1.3633    -0.7765 C.2     
   9 N9             3.5214     1.8999    -0.7131 N.2     
  10 N10            2.4607     0.0269    -0.7011 N.2     
  11 C11            3.7406    -0.2259    -0.5983 C.2     
  12 N12            4.3915     0.9555    -0.6071 N.pl3   
  13 O13            1.0526     3.3007    -1.0858 O.2     
  14 C14           -3.3788    -0.3628     0.6319 C.2     
  15 C15           -3.3955    -1.8420     0.6201 C.ar    
  16 O16           -4.4210     0.2560     0.7224 O.2     
  17 C17           -1.1258     3.6761    -0.7604 C.3     
  18 C18           -2.2069     1.8175    -2.0414 C.3     
  19 C19            5.7795     1.1268    -0.5167 C.ar    
  20 C20            6.3254     2.4028    -0.5374 C.ar    
  21 C21            7.6951     2.5684    -0.4475 C.ar    
  22 C22            8.5207     1.4634    -0.3376 C.ar    
  23 C23            7.9787     0.1914    -0.3169 C.ar    
  24 C24            6.6109     0.0204    -0.4006 C.ar    
  25 C25           -4.5292    -2.5011     0.1825 C.ar    
  26 Cl26           8.3795     4.1635    -0.4732 Cl      
  27 N27           -2.3121    -2.5106     1.0276 N.ar    
  28 C28           -2.2554    -3.8234     1.0438 C.ar    
  29 C29           -3.3666    -4.5861     0.6194 C.ar    
  30 C30           -4.5313    -3.9083     0.1761 C.ar    
  31 O31           -1.1294    -4.4466     1.4676 O.3     
  32 C32           -0.0441    -3.6144     1.8819 C.3     
  33 C33           -5.6436    -4.6481    -0.2483 C.ar    
  34 C34           -3.3453    -5.9867     0.6218 C.ar    
  35 C35           -4.4430    -6.6780     0.2033 C.ar    
  36 C36           -5.5902    -6.0125    -0.2288 C.ar    
  37 F37           -6.6614    -6.7273    -0.6370 F       
  38 H38           -0.6401    -0.4380    -1.6123 H       
  39 H39            0.8683    -0.4099    -0.6619 H       
  40 H40           -1.1292    -1.5065     0.5061 H       
  41 H41           -0.3562    -0.1822     1.4160 H       
  42 H42           -3.2013     2.1462     0.3919 H       
  43 H43           -1.6930     2.1743     1.3423 H       
  44 H44            4.1934    -1.2031    -0.5178 H       
  45 H45           -0.3208     3.8851    -0.0559 H       
  46 H46           -0.8346     4.0130    -1.7553 H       
  47 H47           -2.0278     4.2025    -0.4481 H       
  48 H48           -3.1578     2.3499    -2.0217 H       
  49 H49           -1.6466     2.1073    -2.9302 H       
  50 H50           -2.3921     0.7436    -2.0627 H       
  51 H51            5.6811     3.2652    -0.6238 H       
  52 H52            9.5905     1.5946    -0.2683 H       
  53 H53            8.6256    -0.6692    -0.2314 H       
  54 H54            6.1885    -0.9735    -0.3839 H       
  55 H55           -5.3957    -1.9473    -0.1474 H       
  56 H56           -0.3636    -2.9885     2.7151 H       
  57 H57            0.7927    -4.2382     2.1962 H       
  58 H58            0.2666    -2.9817     1.0504 H       
  59 H59           -6.5360    -4.1432    -0.5876 H       
  60 H60           -2.4640    -6.5159     0.9530 H       
  61 H61           -4.4239    -7.7578     0.2057 H       
@<TRIPOS>BOND
   1    1    2 1
   2    1    7 am
   3    1    6 1
   4    2    3 1
   5    2   38 1
   6    2   39 1
   7    3    4 1
   8    3   40 1
   9    3   41 1
  10    4    5 1
  11    4   14 am
  12    5    6 1
  13    5   42 1
  14    5   43 1
  15    6   17 1
  16    6   18 1
  17    7    8 1
  18    7   13 2
  19    8    9 2
  20    8   10 1
  21    9   12 1
  22   10   11 2
  23   11   12 1
  24   11   44 1
  25   12   19 1
  26   14   15 1
  27   14   16 2
  28   15   27 ar
  29   15   25 ar
  30   17   45 1
  31   17   46 1
  32   17   47 1
  33   18   48 1
  34   18   49 1
  35   18   50 1
  36   19   20 ar
  37   19   24 ar
  38   20   21 ar
  39   20   51 1
  40   21   22 ar
  41   21   26 1
  42   22   23 ar
  43   22   52 1
  44   23   24 ar
  45   23   53 1
  46   24   54 1
  47   25   30 ar
  48   25   55 1
  49   27   28 ar
  50   28   29 ar
  51   28   31 1
  52   29   30 ar
  53   29   34 ar
  54   30   33 ar
  55   31   32 1
  56   32   56 1
  57   32   57 1
  58   32   58 1
  59   33   36 ar
  60   33   59 1
  61   34   35 ar
  62   34   60 1
  63   35   36 ar
  64   35   61 1
  65   36   37 1

#	End of record

