#	Name: ASD01150594
#	Creating user name:	WinNT
#	Creation time:	15. 06. 2019 19:04

#	Modifying user name:	WinNT
#	Modification time:	15. 06. 2019 19:04

#	Program:	/corina/corina34_cracker 3.40 0067  02.08.2006

@<TRIPOS>MOLECULE
ASD01150594
  45   47    0    0    0
SMALL
NO_CHARGES


@<TRIPOS>ATOM
   1 C1             0.4940     1.3928    -0.9444 C.ar    
   2 C2             0.4600     0.0122    -0.9191 C.ar    
   3 C3             1.9461     0.0071     0.9680 C.ar    
   4 C4             1.9822     1.3937     0.9444 C.ar    
   5 C5             1.2553     2.0879    -0.0126 C.ar    
   6 N6             1.2894     3.4867    -0.0394 N.am    
   7 C7             0.1379     4.1763    -0.1205 C.2     
   8 N8             0.1338     5.5220    -0.1485 N.am    
   9 C9             1.2975     6.2026    -0.0945 C.2     
  10 C10            2.5604     5.4544    -0.0052 C.2     
  11 N11            2.5215     4.1482     0.0243 N.2     
  12 O12            1.3021     7.4193    -0.1197 O.2     
  13 C13           -1.1353     6.2483    -0.2382 C.3     
  14 O14           -0.9175     3.5740    -0.1698 O.2     
  15 C15           -1.6540     6.5266     1.1492 C.ar    
  16 O16            3.7486     6.1106     0.0508 O.3     
  17 C17            4.9288     5.3094     0.1363 C.3     
  18 C18            1.1830    -0.6826     0.0331 C.ar    
  19 N19            2.6782    -0.6966     1.9314 N.am    
  20 C20            2.9412    -0.1291     3.1253 C.2     
  21 C21            3.6350    -0.9242     4.2011 C.3     
  22 O22            2.6194     1.0216     3.3337 O.2     
  23 C23           -1.2976     7.6938     1.7985 C.ar    
  24 C24           -1.7730     7.9503     3.0706 C.ar    
  25 C25           -2.6064     7.0376     3.6947 C.ar    
  26 C26           -2.9626     5.8689     3.0433 C.ar    
  27 C27           -2.4903     5.6170     1.7692 C.ar    
  28 Cl28           1.1373    -2.4178     0.0611 Cl      
  29 F29           -3.0714     7.2871     4.9384 F       
  30 H30           -0.0682     1.9326    -1.6921 H       
  31 H31           -0.1328    -0.5257    -1.6441 H       
  32 H32            2.5746     1.9320     1.6696 H       
  33 H33           -0.9784     7.1906    -0.7632 H       
  34 H34           -1.8614     5.6452    -0.7833 H       
  35 H35            4.8888     4.6986     1.0382 H       
  36 H36            4.9927     4.6620    -0.7384 H       
  37 H37            5.8052     5.9564     0.1742 H       
  38 H38            2.9963    -1.5927     1.7398 H       
  39 H39            3.8438    -1.9287     3.8329 H       
  40 H40            4.5707    -0.4336     4.4692 H       
  41 H41            2.9922    -0.9855     5.0793 H       
  42 H42           -0.6472     8.4054     1.3117 H       
  43 H43           -1.4942     8.8621     3.5778 H       
  44 H44           -3.6127     5.1563     3.5291 H       
  45 H45           -2.7680     4.7055     1.2609 H       
@<TRIPOS>BOND
   1    1    2 ar
   2    1    5 ar
   3    1   30 1
   4    2   18 ar
   5    2   31 1
   6    3    4 ar
   7    3   19 1
   8    3   18 ar
   9    4    5 ar
  10    4   32 1
  11    5    6 1
  12    6    7 am
  13    6   11 1
  14    7    8 am
  15    7   14 2
  16    8    9 am
  17    8   13 1
  18    9   10 1
  19    9   12 2
  20   10   11 2
  21   10   16 1
  22   13   15 1
  23   13   33 1
  24   13   34 1
  25   15   23 ar
  26   15   27 ar
  27   16   17 1
  28   17   35 1
  29   17   36 1
  30   17   37 1
  31   18   28 1
  32   19   20 am
  33   19   38 1
  34   20   21 1
  35   20   22 2
  36   21   39 1
  37   21   40 1
  38   21   41 1
  39   23   24 ar
  40   23   42 1
  41   24   25 ar
  42   24   43 1
  43   25   26 ar
  44   25   29 1
  45   26   27 ar
  46   26   44 1
  47   27   45 1

#	End of record

