#	Name: ASD08710106
#	Creating user name:	WinNT
#	Creation time:	15. 06. 2019 21:19

#	Modifying user name:	WinNT
#	Modification time:	15. 06. 2019 21:19

#	Program:	/corina/corina34_cracker 3.40 0067  02.08.2006

@<TRIPOS>MOLECULE
ASD08710106
  46   48    0    0    0
SMALL
NO_CHARGES


@<TRIPOS>ATOM
   1 N1            -0.1006     1.4320     0.3535 N.am    
   2 C2            -0.1267    -0.0373     0.3657 C.3     
   3 C3             0.9875    -0.5550    -0.5524 C.3     
   4 N4             2.2387     0.1341    -0.2068 N.am    
   5 C5             2.2649     1.6035    -0.2191 C.3     
   6 C6             1.1507     2.1211     0.6990 C.3     
   7 S7             3.5948    -0.7297     0.1898 S.o2    
   8 O8             4.4058     0.1344     0.9739 O.2     
   9 O9             3.1438    -1.9979     0.6452 O.2     
  10 C10            4.4812    -1.0240    -1.3043 C.ar    
  11 C11            5.4334    -0.1181    -1.7329 C.ar    
  12 C12            6.1288    -0.3490    -2.9051 C.ar    
  13 C13            5.8724    -1.4859    -3.6484 C.ar    
  14 C14            4.9208    -2.3922    -3.2193 C.ar    
  15 C15            4.2285    -2.1635    -2.0449 C.ar    
  16 C16            6.6298    -1.7371    -4.9268 C.3     
  17 F17            7.7902    -2.4662    -4.6458 F       
  18 F18            5.8249    -2.4641    -5.8106 F       
  19 F19            6.9772    -0.5143    -5.5110 F       
  20 C20           -1.2029     2.1349     0.0258 C.2     
  21 O21           -2.1982     1.5571    -0.3654 O.2     
  22 C22           -1.6629     4.4039    -0.9080 C.ar    
  23 C23           -1.2014     3.6088     0.1421 C.ar    
  24 C24           -0.7376     4.2303     1.3075 C.ar    
  25 C25           -0.7578     5.6129     1.3660 C.ar    
  26 C26           -1.2309     6.3295     0.2817 C.ar    
  27 N27           -1.6620     5.7164    -0.8043 N.ar    
  28 C28           -2.1606     3.7548    -2.1736 C.3     
  29 H29            0.0389    -0.3977     1.3810 H       
  30 H30           -1.0925    -0.3891     0.0031 H       
  31 H31            1.1097    -1.6287    -0.4098 H       
  32 H32            0.7309    -0.3483    -1.5914 H       
  33 H33            3.2307     1.9552     0.1436 H       
  34 H34            2.0992     1.9638    -1.2344 H       
  35 H35            1.0284     3.1948     0.5564 H       
  36 H36            1.4072     1.9144     1.7380 H       
  37 H37            5.6338     0.7701    -1.1522 H       
  38 H38            6.8722     0.3590    -3.2404 H       
  39 H39            4.7202    -3.2803    -3.8003 H       
  40 H40            3.4877    -2.8734    -1.7078 H       
  41 H41           -0.3737     3.6459     2.1397 H       
  42 H42           -0.4080     6.1268     2.2491 H       
  43 H43           -1.2477     7.4085     0.3247 H       
  44 H44           -3.2075     3.4768    -2.0520 H       
  45 H45           -2.0647     4.4553    -3.0032 H       
  46 H46           -1.5696     2.8627    -2.3812 H       
@<TRIPOS>BOND
   1    1    2 1
   2    1    6 1
   3    1   20 am
   4    2    3 1
   5    2   29 1
   6    2   30 1
   7    3    4 1
   8    3   31 1
   9    3   32 1
  10    4    5 1
  11    4    7 am
  12    5    6 1
  13    5   33 1
  14    5   34 1
  15    6   35 1
  16    6   36 1
  17    7    8 2
  18    7    9 2
  19    7   10 1
  20   10   11 ar
  21   10   15 ar
  22   11   12 ar
  23   11   37 1
  24   12   13 ar
  25   12   38 1
  26   13   14 ar
  27   13   16 1
  28   14   15 ar
  29   14   39 1
  30   15   40 1
  31   16   17 1
  32   16   18 1
  33   16   19 1
  34   20   21 2
  35   20   23 1
  36   22   23 ar
  37   22   27 ar
  38   22   28 1
  39   23   24 ar
  40   24   25 ar
  41   24   41 1
  42   25   26 ar
  43   25   42 1
  44   26   27 ar
  45   26   43 1
  46   28   44 1
  47   28   45 1
  48   28   46 1

#	End of record

