#	Name: ASD01881038
#	Creating user name:	WinNT
#	Creation time:	15. 06. 2019 19:41

#	Modifying user name:	WinNT
#	Modification time:	15. 06. 2019 19:41

#	Program:	/corina/corina34_cracker 3.40 0067  02.08.2006

@<TRIPOS>MOLECULE
ASD01881038
  41   43    0    0    0
SMALL
NO_CHARGES


@<TRIPOS>ATOM
   1 O1            -0.0177     1.4528     0.0100 O.3     
   2 C2             0.0021    -0.0041     0.0020 C.3     
   3 C3             1.5020    -0.3567    -0.0142 C.3     
   4 N4             2.1700     0.9538    -0.0135 N.am    
   5 C5             1.2374     1.9159     0.0005 C.2     
   6 C6            -0.6652    -0.5565     1.2632 C.3     
   7 O7            -2.0581    -0.2381     1.2435 O.3     
   8 O8             1.5070     3.1008     0.0039 O.2     
   9 C9             3.5539     1.1619    -0.0256 C.ar    
  10 C10            4.0633     2.4537    -0.0236 C.ar    
  11 C11            5.4295     2.6558    -0.0356 C.ar    
  12 C12            6.2899     1.5733    -0.0501 C.ar    
  13 C13            5.7858     0.2857    -0.0527 C.ar    
  14 C14            4.4206     0.0769    -0.0340 C.ar    
  15 C15           -2.8023    -0.6597     2.2996 C.ar    
  16 C16           -2.2043    -1.3652     3.3334 C.ar    
  17 C17           -2.9631    -1.7928     4.4059 C.ar    
  18 C18           -4.3172    -1.5181     4.4493 C.ar    
  19 C19           -4.9159    -0.8153     3.4198 C.ar    
  20 C20           -4.1606    -0.3803     2.3483 C.ar    
  21 C21           -5.1893    -0.5792     0.1008 C.3     
  22 C22           -4.8135     0.3860     1.2269 C.3     
  23 H23           -0.4904    -0.3880    -0.8914 H       
  24 H24            1.7715    -0.9243     0.8765 H       
  25 H25            1.7544    -0.9146    -0.9159 H       
  26 H26           -0.5402    -1.6388     1.2960 H       
  27 H27           -0.2029    -0.1105     2.1438 H       
  28 H28            3.3918     3.2996    -0.0129 H       
  29 H29            5.8263     3.6602    -0.0340 H       
  30 H30            7.3578     1.7339    -0.0598 H       
  31 H31            6.4603    -0.5577    -0.0647 H       
  32 H32            4.0275    -0.9290    -0.0360 H       
  33 H33           -1.1465    -1.5804     3.2997 H       
  34 H34           -2.4980    -2.3425     5.2109 H       
  35 H35           -4.9087    -1.8532     5.2886 H       
  36 H36           -5.9741    -0.6022     3.4558 H       
  37 H37           -4.2906    -1.0716    -0.2707 H       
  38 H38           -5.8834    -1.3286     0.4811 H       
  39 H39           -5.6615    -0.0249    -0.7103 H       
  40 H40           -5.7122     0.8784     1.5984 H       
  41 H41           -4.1194     1.1354     0.8466 H       
@<TRIPOS>BOND
   1    1    2 1
   2    1    5 1
   3    2    3 1
   4    2    6 1
   5    2   23 1
   6    3    4 1
   7    3   24 1
   8    3   25 1
   9    4    5 am
  10    4    9 1
  11    5    8 2
  12    6    7 1
  13    6   26 1
  14    6   27 1
  15    7   15 1
  16    9   10 ar
  17    9   14 ar
  18   10   11 ar
  19   10   28 1
  20   11   12 ar
  21   11   29 1
  22   12   13 ar
  23   12   30 1
  24   13   14 ar
  25   13   31 1
  26   14   32 1
  27   15   16 ar
  28   15   20 ar
  29   16   17 ar
  30   16   33 1
  31   17   18 ar
  32   17   34 1
  33   18   19 ar
  34   18   35 1
  35   19   20 ar
  36   19   36 1
  37   20   22 1
  38   21   22 1
  39   21   37 1
  40   21   38 1
  41   21   39 1
  42   22   40 1
  43   22   41 1

#	End of record

