#	Name: ASD06170018
#	Creating user name:	WinNT
#	Creation time:	15. 06. 2019 21:05

#	Modifying user name:	WinNT
#	Modification time:	15. 06. 2019 21:05

#	Program:	/corina/corina34_cracker 3.40 0067  02.08.2006

@<TRIPOS>MOLECULE
ASD06170018
  66   71    0    0    0
SMALL
NO_CHARGES


@<TRIPOS>ATOM
   1 N1             0.6913     0.2597     1.2406 N.pl3   
   2 N2             0.1933    -0.3828     0.1035 N.am    
   3 C3             1.1584    -0.4181    -0.8371 C.2     
   4 C4             2.3394     0.2411    -0.2633 C.2     
   5 C5             1.9834     0.6375     1.0252 C.2     
   6 C6             3.6362     0.4423    -0.9166 C.2     
   7 O7             4.5052     1.0866    -0.3587 O.2     
   8 N8             3.8663    -0.0862    -2.1349 N.am    
   9 C9             2.8536     1.3435     1.9879 C.ar    
  10 C10            2.4666     2.5875     2.4876 C.ar    
  11 C11            3.2933     3.2365     3.3899 C.ar    
  12 C12            4.4787     2.6209     3.7626 C.ar    
  13 C13            4.8005     1.3841     3.2267 C.ar    
  14 N14            3.9958     0.7864     2.3754 N.ar    
  15 C15           -1.0966    -0.9050    -0.0356 C.ar    
  16 C16           -1.7709    -0.7814    -1.2435 C.ar    
  17 C17           -3.0445    -1.2986    -1.3778 C.ar    
  18 C18           -3.6485    -1.9385    -0.3110 C.ar    
  19 C19           -2.9798    -2.0632     0.8930 C.ar    
  20 C20           -1.7039    -1.5533     1.0321 C.ar    
  21 O21            1.0686    -0.9038    -1.9495 O.2     
  22 C22           -0.0627     0.4966     2.4742 C.3     
  23 C23            5.1487    -0.0254    -2.6936 C.ar    
  24 C24            5.9922     1.0334    -2.3829 C.ar    
  25 C25            7.2580     1.0926    -2.9349 C.ar    
  26 C26            7.6855     0.0927    -3.8004 C.ar    
  27 C27            6.8424    -0.9635    -4.1102 C.ar    
  28 C28            5.5795    -1.0264    -3.5538 C.ar    
  29 O29            8.9308     0.1505    -4.3438 O.3     
  30 N30           12.1365    -0.6438    -1.8737 N.ar    
  31 C31           10.9097    -0.7890    -1.4304 C.ar    
  32 C32            9.8058    -0.5309    -2.2328 C.ar    
  33 C33            9.9895    -0.1083    -3.5379 C.ar    
  34 C34           11.3149     0.0447    -4.0046 C.ar    
  35 C35           11.5801     0.4694    -5.3147 C.ar    
  36 C36           12.8673     0.6076    -5.7344 C.ar    
  37 C37           13.9336     0.3308    -4.8740 C.ar    
  38 C38           13.7059    -0.0883    -3.5827 C.ar    
  39 C39           12.3875    -0.2387    -3.1243 C.ar    
  40 O40           15.2092     0.4767    -5.3174 O.3     
  41 C41           15.3810     0.9142    -6.6669 C.3     
  42 F42            8.0791     2.1223    -2.6338 F       
  43 H43            3.1434    -0.5087    -2.6246 H       
  44 H44            1.5362     3.0381     2.1750 H       
  45 H45            3.0210     4.2005     3.7937 H       
  46 H46            5.1451     3.1011     4.4639 H       
  47 H47            5.7230     0.9025     3.5153 H       
  48 H48           -1.3000    -0.2812    -2.0768 H       
  49 H49           -3.5693    -1.2029    -2.3168 H       
  50 H50           -4.6447    -2.3414    -0.4183 H       
  51 H51           -3.4543    -2.5635     1.7242 H       
  52 H52           -1.1805    -1.6549     1.9713 H       
  53 H53           -1.0952     0.1759     2.3362 H       
  54 H54            0.3877    -0.0694     3.2896 H       
  55 H55           -0.0414     1.5596     2.7145 H       
  56 H56            5.6592     1.8102    -1.7105 H       
  57 H57            7.1750    -1.7401    -4.7830 H       
  58 H58            4.9252    -1.8520    -3.7919 H       
  59 H59           10.7543    -1.1183    -0.4136 H       
  60 H60            8.8081    -0.6602    -1.8402 H       
  61 H61           10.7647     0.6860    -5.9890 H       
  62 H62           13.0672     0.9347    -6.7441 H       
  63 H63           14.5368    -0.2996    -2.9259 H       
  64 H64           14.9160     0.1969    -7.3433 H       
  65 H65           14.9130     1.8903    -6.7948 H       
  66 H66           16.4448     0.9890    -6.8920 H       
@<TRIPOS>BOND
   1    1    2 1
   2    1    5 1
   3    1   22 1
   4    2    3 am
   5    2   15 1
   6    3    4 1
   7    3   21 2
   8    4    5 2
   9    4    6 1
  10    5    9 1
  11    6    7 2
  12    6    8 am
  13    8   23 1
  14    8   43 1
  15    9   10 ar
  16    9   14 ar
  17   10   11 ar
  18   10   44 1
  19   11   12 ar
  20   11   45 1
  21   12   13 ar
  22   12   46 1
  23   13   14 ar
  24   13   47 1
  25   15   16 ar
  26   15   20 ar
  27   16   17 ar
  28   16   48 1
  29   17   18 ar
  30   17   49 1
  31   18   19 ar
  32   18   50 1
  33   19   20 ar
  34   19   51 1
  35   20   52 1
  36   22   53 1
  37   22   54 1
  38   22   55 1
  39   23   24 ar
  40   23   28 ar
  41   24   25 ar
  42   24   56 1
  43   25   26 ar
  44   25   42 1
  45   26   27 ar
  46   26   29 1
  47   27   28 ar
  48   27   57 1
  49   28   58 1
  50   29   33 1
  51   30   31 ar
  52   30   39 ar
  53   31   32 ar
  54   31   59 1
  55   32   33 ar
  56   32   60 1
  57   33   34 ar
  58   34   35 ar
  59   34   39 ar
  60   35   36 ar
  61   35   61 1
  62   36   37 ar
  63   36   62 1
  64   37   38 ar
  65   37   40 1
  66   38   39 ar
  67   38   63 1
  68   40   41 1
  69   41   64 1
  70   41   65 1
  71   41   66 1

#	End of record

