#	Name: ASD01000035
#	Creating user name:	WinNT
#	Creation time:	15. 06. 2019 18:54

#	Modifying user name:	WinNT
#	Modification time:	15. 06. 2019 18:54

#	Program:	/corina/corina34_cracker 3.40 0067  02.08.2006

@<TRIPOS>MOLECULE
ASD01000035
  46   48    0    0    0
SMALL
NO_CHARGES


@<TRIPOS>ATOM
   1 C1            -0.0539     1.3312    -1.3927 C.ar    
   2 C2            -0.1182     0.1024    -0.7524 C.ar    
   3 C3            -1.2746    -0.6508    -0.8201 C.ar    
   4 C4            -2.3668    -0.1807    -1.5251 C.ar    
   5 C5            -2.3051     1.0438    -2.1646 C.ar    
   6 C6            -1.1535     1.8034    -2.0949 C.ar    
   7 C7            -1.3450    -1.9862    -0.1251 C.3     
   8 N8            -2.6804    -2.1118     0.4826 N.am    
   9 C9            -0.9411    -3.0534    -1.1220 C.2     
  10 C10           -1.8280    -4.0388    -1.3820 C.2     
  11 N11           -3.0470    -4.0704    -0.7662 N.am    
  12 C12           -3.4543    -3.1543     0.1213 C.2     
  13 C13            0.3212    -3.0189    -1.7590 C.2     
  14 O14            1.2363    -2.0966    -1.3939 O.3     
  15 S15           -5.0090    -3.3127     0.8205 S.2     
  16 O16            0.5822    -3.8209    -2.6362 O.2     
  17 O17            1.0824     2.0739    -1.3277 O.3     
  18 C18            2.4899    -2.1198    -2.0794 C.3     
  19 C19            3.3902    -1.0097    -1.5335 C.3     
  20 C20           -3.9197    -5.1194    -1.0811 C.ar    
  21 C21           -4.8754    -4.9549    -2.0752 C.ar    
  22 C22           -5.7342    -5.9915    -2.3838 C.ar    
  23 C23           -5.6433    -7.1923    -1.7040 C.ar    
  24 C24           -4.6931    -7.3591    -0.7133 C.ar    
  25 C25           -3.8275    -6.3283    -0.4040 C.ar    
  26 C26           -1.4669    -5.1202    -2.3676 C.3     
  27 H27            0.7349    -0.2655    -0.2018 H       
  28 H28           -3.2698    -0.7710    -1.5768 H       
  29 H29           -3.1595     1.4086    -2.7154 H       
  30 H30           -1.1059     2.7599    -2.5942 H       
  31 H31           -0.6090    -1.9824     0.6789 H       
  32 H32           -2.9955    -1.4597     1.1279 H       
  33 H33            1.7119     1.8927    -2.0390 H       
  34 H34            2.9704    -3.0860    -1.9254 H       
  35 H35            2.3242    -1.9621    -3.1452 H       
  36 H36            4.3465    -1.0274    -2.0564 H       
  37 H37            2.9097    -0.0435    -1.6875 H       
  38 H38            3.5559    -1.1674    -0.4678 H       
  39 H39           -4.9471    -4.0171    -2.6062 H       
  40 H40           -6.4779    -5.8640    -3.1565 H       
  41 H41           -6.3161    -8.0014    -1.9472 H       
  42 H42           -4.6248    -8.2980    -0.1840 H       
  43 H43           -3.0824    -6.4608     0.3665 H       
  44 H44           -0.5507    -5.6147    -2.0449 H       
  45 H45           -2.2750    -5.8499    -2.4185 H       
  46 H46           -1.3139    -4.6782    -3.3521 H       
@<TRIPOS>BOND
   1    1    2 ar
   2    1   17 1
   3    1    6 ar
   4    2    3 ar
   5    2   27 1
   6    3    4 ar
   7    3    7 1
   8    4    5 ar
   9    4   28 1
  10    5    6 ar
  11    5   29 1
  12    6   30 1
  13    7    8 1
  14    7    9 1
  15    7   31 1
  16    8   12 am
  17    8   32 1
  18    9   10 2
  19    9   13 1
  20   10   26 1
  21   10   11 1
  22   11   20 1
  23   11   12 am
  24   12   15 2
  25   13   14 1
  26   13   16 2
  27   14   18 1
  28   17   33 1
  29   18   19 1
  30   18   34 1
  31   18   35 1
  32   19   36 1
  33   19   37 1
  34   19   38 1
  35   20   21 ar
  36   20   25 ar
  37   21   22 ar
  38   21   39 1
  39   22   23 ar
  40   22   40 1
  41   23   24 ar
  42   23   41 1
  43   24   25 ar
  44   24   42 1
  45   25   43 1
  46   26   44 1
  47   26   45 1
  48   26   46 1

#	End of record

