#	Name: ASD04750002
#	Creating user name:	WinNT
#	Creation time:	15. 06. 2019 20:52

#	Modifying user name:	WinNT
#	Modification time:	15. 06. 2019 20:52

#	Program:	/corina/corina34_cracker 3.40 0067  02.08.2006

@<TRIPOS>MOLECULE
ASD04750002
  50   53    0    0    0
SMALL
NO_CHARGES


@<TRIPOS>ATOM
   1 C1            -0.0448     2.6243    -3.1084 C.ar    
   2 C2            -0.5719     1.3924    -2.7639 C.ar    
   3 C3             0.1794     0.4968    -2.0336 C.ar    
   4 C4             1.4791     0.8326    -1.6380 C.ar    
   5 C5             2.0020     2.0760    -1.9897 C.ar    
   6 C6             1.2396     2.9639    -2.7216 C.ar    
   7 C7             2.4800     0.0683    -0.8631 C.2     
   8 C8             3.6874     0.8833    -0.7281 C.2     
   9 C9             3.4055     2.1824    -1.4455 C.3     
  10 C10            4.8272     0.5422    -0.0884 C.2     
  11 C11            5.8963     1.5367     0.0899 C.ar    
  12 C12            5.5772     2.8695     0.3713 C.ar    
  13 C13            7.2378     1.1536    -0.0151 C.ar    
  14 C14            8.2339     2.0917     0.1539 C.ar    
  15 C15            7.9097     3.4093     0.4273 C.ar    
  16 C16            6.5851     3.7954     0.5376 C.ar    
  17 N17            4.3600     2.3669    -2.5468 N.3     
  18 C18            4.2328     1.2916    -3.5394 C.3     
  19 C19            4.1298     1.8997    -4.9396 C.3     
  20 C20            5.4615     0.3828    -3.4672 C.3     
  21 C21            5.3290    -0.7372    -4.5011 C.3     
  22 C22            5.2260    -0.1291    -5.9013 C.3     
  23 C23            3.9973     0.7797    -5.9736 C.3     
  24 O24            2.3251    -1.0519    -0.4126 O.2     
  25 C25            9.0050     4.4279     0.6115 C.3     
  26 H26           -0.6356     3.3210    -3.6845 H       
  27 H27           -1.5751     1.1320    -3.0677 H       
  28 H28           -0.2351    -0.4640    -1.7663 H       
  29 H29            1.6468     3.9266    -2.9932 H       
  30 H30            3.4735     3.0170    -0.7477 H       
  31 H31            4.9536    -0.4606     0.2920 H       
  32 H32            4.5441     3.1722     0.4577 H       
  33 H33            7.4923     0.1258    -0.2277 H       
  34 H34            9.2700     1.7976     0.0730 H       
  35 H35            6.3403     4.8254     0.7511 H       
  36 H36            4.2447     3.2721    -2.9774 H       
  37 H37            3.3364     0.7079    -3.3300 H       
  38 H38            3.2544     2.5471    -4.9911 H       
  39 H39            5.0262     2.4833    -5.1491 H       
  40 H40            6.3579     0.9665    -3.6767 H       
  41 H41            5.5349    -0.0504    -2.4697 H       
  42 H42            6.2044    -1.3846    -4.4496 H       
  43 H43            4.4326    -1.3208    -4.2916 H       
  44 H44            6.1224     0.4545    -6.1108 H       
  45 H45            5.1316    -0.9270    -6.6379 H       
  46 H46            3.1009     0.1960    -5.7641 H       
  47 H47            3.9239     1.2129    -6.9711 H       
  48 H48            9.1876     4.9400    -0.3332 H       
  49 H49            8.7027     5.1541     1.3660 H       
  50 H50            9.9171     3.9262     0.9350 H       
@<TRIPOS>BOND
   1    1    2 ar
   2    1    6 ar
   3    1   26 1
   4    2    3 ar
   5    2   27 1
   6    3    4 ar
   7    3   28 1
   8    4    5 ar
   9    4    7 1
  10    5    6 ar
  11    5    9 1
  12    6   29 1
  13    7    8 1
  14    7   24 2
  15    8    9 1
  16    8   10 2
  17    9   17 1
  18    9   30 1
  19   10   11 1
  20   10   31 1
  21   11   12 ar
  22   11   13 ar
  23   12   16 ar
  24   12   32 1
  25   13   14 ar
  26   13   33 1
  27   14   15 ar
  28   14   34 1
  29   15   16 ar
  30   15   25 1
  31   16   35 1
  32   17   18 1
  33   17   36 1
  34   18   19 1
  35   18   20 1
  36   18   37 1
  37   19   23 1
  38   19   38 1
  39   19   39 1
  40   20   21 1
  41   20   40 1
  42   20   41 1
  43   21   22 1
  44   21   42 1
  45   21   43 1
  46   22   23 1
  47   22   44 1
  48   22   45 1
  49   23   46 1
  50   23   47 1
  51   25   48 1
  52   25   49 1
  53   25   50 1

#	End of record

