#	Name: ASD03090895
#	Creating user name:	WinNT
#	Creation time:	15. 06. 2019 20:29

#	Modifying user name:	WinNT
#	Modification time:	15. 06. 2019 20:29

#	Program:	/corina/corina34_cracker 3.40 0067  02.08.2006

@<TRIPOS>MOLECULE
ASD03090895
  35   37    0    0    0
SMALL
NO_CHARGES


@<TRIPOS>ATOM
   1 N1            -0.0175     1.3431    -0.0906 N.am    
   2 C2             0.0011    -0.0044    -0.0713 C.2     
   3 O3             1.0646    -0.5993    -0.0810 O.2     
   4 N4            -1.1477    -0.6888    -0.0417 N.2     
   5 C5             1.2408     2.0927    -0.1231 C.3     
   6 C6            -1.2962     2.0581    -0.0851 C.3     
   7 S7             0.2602    -3.0341    -0.0312 S.3     
   8 C8            -1.1293    -2.0169    -0.0227 C.2     
   9 N9            -2.2051    -2.8505     0.0078 N.pl3   
  10 C10           -1.9628    -4.1714     0.0233 C.2     
  11 C11           -0.6618    -4.5475     0.0068 C.2     
  12 C12           -0.1490    -5.8649     0.0167 C.2     
  13 O13            1.0512    -6.0494    -0.0013 O.2     
  14 O14           -7.4479    -1.1232     0.0426 O.3     
  15 C15           -8.0576    -2.3948     0.3331 C.3     
  16 O16           -7.0940    -3.3530    -0.1428 O.3     
  17 C17           -5.8846    -2.7252    -0.0615 C.ar    
  18 C18           -6.1018    -1.3535     0.0526 C.ar    
  19 C19           -4.5919    -3.2201    -0.0762 C.ar    
  20 C20           -3.5146    -2.3497     0.0230 C.ar    
  21 C21           -3.7340    -0.9839     0.1368 C.ar    
  22 C22           -5.0241    -0.4887     0.1520 C.ar    
  23 F23           -8.2574    -2.5410     1.7100 F       
  24 F24           -9.2669    -2.5293    -0.3574 F       
  25 H25            1.5352     2.2637    -1.1585 H       
  26 H26            1.1061     3.0506     0.3793 H       
  27 H27            2.0172     1.5215     0.3859 H       
  28 H28           -1.6006     2.2503     0.9437 H       
  29 H29           -1.1854     3.0047    -0.6141 H       
  30 H30           -2.0539     1.4514    -0.5809 H       
  31 H31           -2.7635    -4.8957     0.0479 H       
  32 H32           -0.8246    -6.7071     0.0403 H       
  33 H33           -4.4213    -4.2829    -0.1642 H       
  34 H34           -2.8957    -0.3074     0.2139 H       
  35 H35           -5.1925     0.5744     0.2404 H       
@<TRIPOS>BOND
   1    1    2 am
   2    1    5 1
   3    1    6 1
   4    2    3 2
   5    2    4 1
   6    4    8 2
   7    5   25 1
   8    5   26 1
   9    5   27 1
  10    6   28 1
  11    6   29 1
  12    6   30 1
  13    7    8 1
  14    7   11 1
  15    8    9 1
  16    9   10 1
  17    9   20 1
  18   10   11 2
  19   10   31 1
  20   11   12 1
  21   12   13 2
  22   12   32 1
  23   14   15 1
  24   14   18 1
  25   15   16 1
  26   15   23 1
  27   15   24 1
  28   16   17 1
  29   17   18 ar
  30   17   19 ar
  31   18   22 ar
  32   19   20 ar
  33   19   33 1
  34   20   21 ar
  35   21   22 ar
  36   21   34 1
  37   22   35 1

#	End of record

