#	Name: ASD04590040
#	Creating user name:	WinNT
#	Creation time:	15. 06. 2019 20:50

#	Modifying user name:	WinNT
#	Modification time:	15. 06. 2019 20:50

#	Program:	/corina/corina34_cracker 3.40 0067  02.08.2006

@<TRIPOS>MOLECULE
ASD04590040
  41   43    0    0    0
SMALL
NO_CHARGES


@<TRIPOS>ATOM
   1 N1            -0.0767     1.2683    -0.0493 N.pl3   
   2 N2            -0.0362    -0.0145     0.0020 N.2     
   3 C3             1.1935    -0.4418    -0.2149 C.2     
   4 C4             2.0021     0.7053    -0.4235 C.2     
   5 C5             1.1602     1.7666    -0.3104 C.2     
   6 C6             1.6424    -1.8460    -0.2358 C.2     
   7 O7             2.8108    -2.1077    -0.4483 O.2     
   8 N8             0.7578    -2.8395    -0.0194 N.am    
   9 C9             1.1624    -4.1744    -0.1354 C.ar    
  10 C10            2.4404    -4.5501     0.2569 C.ar    
  11 C11            2.8377    -5.8678     0.1416 C.ar    
  12 C12            1.9627    -6.8140    -0.3649 C.ar    
  13 C13            0.6880    -6.4414    -0.7571 C.ar    
  14 C14            0.2846    -5.1259    -0.6377 C.ar    
  15 F15            2.3533    -8.1025    -0.4769 F       
  16 N16            3.3788     0.7373    -0.6896 N.pl3   
  17 C17            4.0584     2.0212    -0.8798 C.3     
  18 C18            5.5416     1.8689    -0.5363 C.3     
  19 C19            6.2513     3.2097    -0.7349 C.3     
  20 C20            6.1081     3.6516    -2.1927 C.3     
  21 C21            4.6250     3.8039    -2.5361 C.3     
  22 C22            3.9152     2.4631    -2.3375 C.3     
  23 H23           -0.8757     1.8038     0.0760 H       
  24 H24            1.4244     2.8091    -0.4100 H       
  25 H25           -0.1593    -2.6295     0.2167 H       
  26 H26            3.1233    -3.8124     0.6517 H       
  27 H27            3.8317    -6.1604     0.4463 H       
  28 H28            0.0072    -7.1808    -1.1522 H       
  29 H29           -0.7113    -4.8366    -0.9393 H       
  30 H30            3.8810    -0.0905    -0.7478 H       
  31 H31            3.6094     2.7701    -0.2273 H       
  32 H32            5.6436     1.5541     0.5022 H       
  33 H33            5.9906     1.1200    -1.1888 H       
  34 H34            5.8023     3.9586    -0.0825 H       
  35 H35            7.3079     3.1012    -0.4902 H       
  36 H36            6.6137     4.6068    -2.3341 H       
  37 H37            6.5571     2.9027    -2.8451 H       
  38 H38            4.1760     4.5528    -1.8837 H       
  39 H39            4.5229     4.1187    -3.5747 H       
  40 H40            4.3642     1.7142    -2.9900 H       
  41 H41            2.8586     2.5715    -2.5822 H       
@<TRIPOS>BOND
   1    1    2 1
   2    1    5 1
   3    1   23 1
   4    2    3 2
   5    3    4 1
   6    3    6 1
   7    4    5 2
   8    4   16 1
   9    5   24 1
  10    6    7 2
  11    6    8 am
  12    8    9 1
  13    8   25 1
  14    9   10 ar
  15    9   14 ar
  16   10   11 ar
  17   10   26 1
  18   11   12 ar
  19   11   27 1
  20   12   13 ar
  21   12   15 1
  22   13   14 ar
  23   13   28 1
  24   14   29 1
  25   16   17 1
  26   16   30 1
  27   17   18 1
  28   17   22 1
  29   17   31 1
  30   18   19 1
  31   18   32 1
  32   18   33 1
  33   19   20 1
  34   19   34 1
  35   19   35 1
  36   20   21 1
  37   20   36 1
  38   20   37 1
  39   21   22 1
  40   21   38 1
  41   21   39 1
  42   22   40 1
  43   22   41 1

#	End of record

