#	Name: ASD01410172
#	Creating user name:	WinNT
#	Creation time:	15. 06. 2019 19:16

#	Modifying user name:	WinNT
#	Modification time:	15. 06. 2019 19:16

#	Program:	/corina/corina34_cracker 3.40 0067  02.08.2006

@<TRIPOS>MOLECULE
ASD01410172
  46   49    0    0    0
SMALL
NO_CHARGES


@<TRIPOS>ATOM
   1 C1            -0.0315     1.5347    -0.1946 C.3     
   2 C2            -0.0232     0.0048    -0.2033 C.3     
   3 C3             0.8640    -0.4940    -1.3456 C.3     
   4 C4             2.2903     0.0226    -1.1464 C.3     
   5 C5             2.2821     1.5525    -1.1377 C.3     
   6 C6             1.3948     2.0513     0.0046 C.3     
   7 C7             1.7609     4.3320     3.5254 C.ar    
   8 C8             2.3286     3.8850     2.3309 C.ar    
   9 C9             3.4006     2.9912     2.3662 C.ar    
  10 C10            3.8916     2.5557     3.5796 C.ar    
  11 C11            3.3240     3.0024     4.7597 C.ar    
  12 C12            2.2611     3.8878     4.7318 C.ar    
  13 C13            0.9512     4.3935    -1.0382 C.2     
  14 C14            1.1090     5.7061    -0.6256 C.2     
  15 C15            1.3867     3.5582     0.0132 C.2     
  16 C16            1.7970     4.3554     1.0347 C.2     
  17 N17            1.6370     5.6657     0.6682 N.pl3   
  18 C18            0.7131     6.6338    -1.5779 C.2     
  19 C19            0.2434     6.1065    -2.7397 C.2     
  20 S20            0.2814     4.3524    -2.6649 S.3     
  21 O21            1.9537     6.7914     1.4667 O.3     
  22 C22            3.2661     7.3111     1.2444 C.3     
  23 C23           -0.2290     6.8860    -3.8828 C.2     
  24 O24           -0.2195     8.1018    -3.8357 O.2     
  25 O25           -0.6756     6.2572    -4.9901 O.3     
  26 H26           -0.4214     1.9013    -1.1442 H       
  27 H27           -0.6636     1.8900     0.6192 H       
  28 H28            0.3666    -0.3619     0.7463 H       
  29 H29           -1.0394    -0.3633    -0.3452 H       
  30 H30            0.8699    -1.5840    -1.3518 H       
  31 H31            0.4741    -0.1274    -2.2951 H       
  32 H32            2.6802    -0.3441    -0.1968 H       
  33 H33            2.9225    -0.3328    -1.9602 H       
  34 H34            3.2982     1.9205    -0.9958 H       
  35 H35            1.8922     1.9191    -2.0873 H       
  36 H36            1.7847     1.6847     0.9542 H       
  37 H37            0.9343     5.0268     3.5051 H       
  38 H38            3.8441     2.6413     1.4458 H       
  39 H39            4.7208     1.8643     3.6084 H       
  40 H40            3.7120     2.6580     5.7070 H       
  41 H41            1.8226     4.2325     5.6567 H       
  42 H42            0.7733     7.6988    -1.4085 H       
  43 H43            4.0063     6.5711     1.5487 H       
  44 H44            3.3927     7.5375     0.1857 H       
  45 H45            3.4005     8.2211     1.8291 H       
  46 H46           -0.9666     6.8555    -5.6918 H       
@<TRIPOS>BOND
   1    1    2 1
   2    1    6 1
   3    1   26 1
   4    1   27 1
   5    2    3 1
   6    2   28 1
   7    2   29 1
   8    3    4 1
   9    3   30 1
  10    3   31 1
  11    4    5 1
  12    4   32 1
  13    4   33 1
  14    5    6 1
  15    5   34 1
  16    5   35 1
  17    6   15 1
  18    6   36 1
  19    7    8 ar
  20    7   12 ar
  21    7   37 1
  22    8    9 ar
  23    8   16 1
  24    9   10 ar
  25    9   38 1
  26   10   11 ar
  27   10   39 1
  28   11   12 ar
  29   11   40 1
  30   12   41 1
  31   13   15 1
  32   13   14 2
  33   13   20 1
  34   14   18 1
  35   14   17 1
  36   15   16 2
  37   16   17 1
  38   17   21 1
  39   18   19 2
  40   18   42 1
  41   19   20 1
  42   19   23 1
  43   21   22 1
  44   22   43 1
  45   22   44 1
  46   22   45 1
  47   23   24 2
  48   23   25 1
  49   25   46 1

#	End of record

