#	Name: ASD03081295
#	Creating user name:	WinNT
#	Creation time:	15. 06. 2019 20:27

#	Modifying user name:	WinNT
#	Modification time:	15. 06. 2019 20:27

#	Program:	/corina/corina34_cracker 3.40 0067  02.08.2006

@<TRIPOS>MOLECULE
ASD03081295
  27   29    0    0    0
SMALL
NO_CHARGES


@<TRIPOS>ATOM
   1 C1             0.0021    -0.0041     0.0020 C.1     
   2 C2            -0.0173     1.4278     0.0099 C.ar    
   3 C3             1.1837     2.1433     0.0023 C.ar    
   4 C4             1.1650     3.5141     0.0099 C.ar    
   5 C5            -0.0549     4.1964     0.0252 C.ar    
   6 C6            -1.2558     3.4812     0.0328 C.ar    
   7 C7            -1.2374     2.1103     0.0194 C.ar    
   8 N8             0.0175    -1.1399    -0.0042 N.1     
   9 O9            -1.1729     6.4557     0.0487 O.3     
  10 C10           -0.0749     5.6724     0.0339 C.2     
  11 N11            0.9738     6.4645     0.0290 N.2     
  12 N12            0.5831     7.6903     0.0400 N.2     
  13 C13           -0.7308     7.7293     0.0523 C.2     
  14 C14           -2.9619     8.8479     0.0780 C.ar    
  15 C15           -1.5691     8.9456     0.0666 C.ar    
  16 C16           -0.9805    10.2161     0.0694 C.ar    
  17 C17           -1.8105    11.3233     0.0834 C.ar    
  18 C18           -3.1816    11.1417     0.0941 C.ar    
  19 N19           -3.7088     9.9321     0.0916 N.ar    
  20 H20            2.1263     1.6161    -0.0092 H       
  21 H21            2.0928     4.0669     0.0043 H       
  22 H22           -2.1983     4.0084     0.0451 H       
  23 H23           -2.1654     1.5578     0.0207 H       
  24 H24           -3.4305     7.8749     0.0714 H       
  25 H25            0.0936    10.3289     0.0612 H       
  26 H26           -1.3919    12.3189     0.0864 H       
  27 H27           -3.8314    12.0042     0.1051 H       
@<TRIPOS>BOND
   1    1    2 1
   2    1    8 3
   3    2    3 ar
   4    2    7 ar
   5    3    4 ar
   6    3   20 1
   7    4    5 ar
   8    4   21 1
   9    5    6 ar
  10    5   10 1
  11    6    7 ar
  12    6   22 1
  13    7   23 1
  14    9   10 1
  15    9   13 1
  16   10   11 2
  17   11   12 1
  18   12   13 2
  19   13   15 1
  20   14   15 ar
  21   14   19 ar
  22   14   24 1
  23   15   16 ar
  24   16   17 ar
  25   16   25 1
  26   17   18 ar
  27   17   26 1
  28   18   19 ar
  29   18   27 1

#	End of record

