#	Name: ASD00845214
#	Creating user name:	WinNT
#	Creation time:	15. 06. 2019 18:52

#	Modifying user name:	WinNT
#	Modification time:	15. 06. 2019 18:52

#	Program:	/corina/corina34_cracker 3.40 0067  02.08.2006

@<TRIPOS>MOLECULE
ASD00845214
  88   93    0    0    0
SMALL
NO_CHARGES


@<TRIPOS>ATOM
   1 F1            -0.0934    -3.1266     4.7188 F       
   2 C2            -0.0167     1.3829     0.0096 C.ar    
   3 C3             0.0021    -0.0041     0.0020 C.ar    
   4 C4             1.2143    -0.6791    -0.0132 C.ar    
   5 C5             2.3989     0.0312    -0.0207 C.ar    
   6 C6             2.3774     1.4139    -0.0126 C.ar    
   7 C7             1.1710     2.0888     0.0021 C.ar    
   8 C8             1.2384    -2.1858    -0.0210 C.3     
   9 C9             0.4953    -2.7219    -1.2261 C.2     
  10 O10            2.6067    -2.6715    -0.0097 O.3     
  11 C11            3.3980    -2.2932    -1.0313 C.2     
  12 N12            4.6790    -2.7090    -1.0811 N.am    
  13 O13            2.9572    -1.5768    -1.9082 O.2     
  14 C14            5.5605    -2.3076    -2.1880 C.3     
  15 C15            6.8541    -1.7366    -1.5975 C.3     
  16 N16            7.4341    -2.7109    -0.6636 N.3     
  17 C17            6.5391    -2.9555     0.4753 C.3     
  18 C18            5.2343    -3.5714    -0.0270 C.3     
  19 C19            8.7610    -2.2767    -0.2066 C.3     
  20 C20            9.2797    -3.2491     0.8563 C.3     
  21 C21           10.6869    -2.8265     1.2842 C.3     
  22 N22           11.5768    -2.8299     0.1161 N.3     
  23 C23           11.1252    -1.8689    -0.8983 C.3     
  24 C24            9.7310    -2.2630    -1.3913 C.3     
  25 C25           12.9662    -2.5636     0.5119 C.3     
  26 O26            0.7742    -2.5259    -2.3901 O.2     
  27 N27           -0.5308    -3.4561    -0.7641 N.am    
  28 C28            0.4693    -2.7338     1.1591 C.ar    
  29 C29           -0.5745    -3.4835     0.6314 C.ar    
  30 C30            0.6333    -2.6124     2.5205 C.ar    
  31 C31           -0.2502    -3.2433     3.3820 C.ar    
  32 C32           -1.2951    -3.9938     2.8675 C.ar    
  33 C33           -1.4596    -4.1155     1.5019 C.ar    
  34 Cl34          -2.4029    -4.7849     3.9448 Cl      
  35 C35           -0.9816    -5.8522    -2.0406 C.ar    
  36 C36           -1.3050    -6.8937    -1.1910 C.ar    
  37 C37           -0.1630    -6.0787    -3.1312 C.ar    
  38 C38            0.3323    -7.3465    -3.3723 C.ar    
  39 C39            0.0093    -8.3879    -2.5225 C.ar    
  40 C40           -0.8093    -8.1614    -1.4318 C.ar    
  41 H41            0.3963    -9.3784    -2.7108 H       
  42 H42           -1.9445    -6.7167    -0.3390 H       
  43 C43           13.8934    -2.8192    -0.6779 C.3     
  44 C44           15.3405    -2.5418    -0.2657 C.3     
  45 O45           -1.1648    -0.7006     0.0099 O.3     
  46 C46           -2.3744     0.0601     0.0260 C.3     
  47 C47           -3.5740    -0.8895     0.0328 C.3     
  48 F48           -3.5417    -1.6899    -1.1142 F       
  49 F49           -3.5190    -1.7022     1.1702 F       
  50 S50           -1.6188    -4.2377    -1.7375 S.o2    
  51 O51           -2.7979    -4.4105    -0.9634 O.2     
  52 O52           -1.6010    -3.5584    -2.9855 O.2     
  53 H53           -0.9590     1.9106     0.0170 H       
  54 H54            3.3426    -0.4937    -0.0325 H       
  55 H55            3.3047     1.9675    -0.0178 H       
  56 H56            1.1569     3.1687     0.0084 H       
  57 H57            5.7917    -3.1757    -2.8053 H       
  58 H58            5.0664    -1.5464    -2.7919 H       
  59 H59            7.5631    -1.5360    -2.4008 H       
  60 H60            6.6338    -0.8104    -1.0666 H       
  61 H61            7.0197    -3.6389     1.1753 H       
  62 H62            6.3233    -2.0124     0.9773 H       
  63 H63            4.5248    -3.6485     0.7968 H       
  64 H64            5.4313    -4.5615    -0.4382 H       
  65 H65            8.6902    -1.2757     0.2190 H       
  66 H66            8.6158    -3.2314     1.7207 H       
  67 H67            9.3125    -4.2570     0.4425 H       
  68 H68           10.6511    -1.8240     1.7106 H       
  69 H69           11.0648    -3.5252     2.0306 H       
  70 H70           11.0873    -0.8709    -0.4617 H       
  71 H71           11.8213    -1.8721    -1.7370 H       
  72 H72            9.7709    -3.2553    -1.8405 H       
  73 H73            9.3896    -1.5407    -2.1328 H       
  74 H74           13.0607    -1.5252     0.8298 H       
  75 H75           13.2419    -3.2222     1.3355 H       
  76 H76            1.4496    -2.0266     2.9167 H       
  77 H77           -2.2763    -4.7021     1.1078 H       
  78 H78            0.0894    -5.2651    -3.7952 H       
  79 H79            0.9714    -7.5236    -4.2247 H       
  80 H80           -1.0619    -8.9751    -0.7681 H       
  81 H81           13.7988    -3.8575    -0.9958 H       
  82 H82           13.6176    -2.1605    -1.5015 H       
  83 H83           16.0010    -2.7239    -1.1134 H       
  84 H84           15.4350    -1.5034     0.0522 H       
  85 H85           15.6162    -3.2004     0.5579 H       
  86 H86           -2.3995     0.6837     0.9196 H       
  87 H87           -2.4172     0.6932    -0.8603 H       
  88 H88           -4.4966    -0.3093     0.0451 H       
@<TRIPOS>BOND
   1    1   31 1
   2    2    3 ar
   3    2    7 ar
   4    2   53 1
   5    3    4 ar
   6    3   45 1
   7    4    5 ar
   8    4    8 1
   9    5    6 ar
  10    5   54 1
  11    6    7 ar
  12    6   55 1
  13    7   56 1
  14    8    9 1
  15    8   10 1
  16    8   28 1
  17    9   26 2
  18    9   27 am
  19   10   11 1
  20   11   12 am
  21   11   13 2
  22   12   14 1
  23   12   18 1
  24   14   15 1
  25   14   57 1
  26   14   58 1
  27   15   16 1
  28   15   59 1
  29   15   60 1
  30   16   17 1
  31   16   19 1
  32   17   18 1
  33   17   61 1
  34   17   62 1
  35   18   63 1
  36   18   64 1
  37   19   20 1
  38   19   24 1
  39   19   65 1
  40   20   21 1
  41   20   66 1
  42   20   67 1
  43   21   22 1
  44   21   68 1
  45   21   69 1
  46   22   23 1
  47   22   25 1
  48   23   24 1
  49   23   70 1
  50   23   71 1
  51   24   72 1
  52   24   73 1
  53   25   43 1
  54   25   74 1
  55   25   75 1
  56   27   50 am
  57   27   29 1
  58   28   29 ar
  59   28   30 ar
  60   29   33 ar
  61   30   31 ar
  62   30   76 1
  63   31   32 ar
  64   32   33 ar
  65   32   34 1
  66   33   77 1
  67   35   36 ar
  68   35   37 ar
  69   35   50 1
  70   36   42 1
  71   36   40 ar
  72   37   38 ar
  73   37   78 1
  74   38   39 ar
  75   38   79 1
  76   39   40 ar
  77   39   41 1
  78   40   80 1
  79   43   44 1
  80   43   81 1
  81   43   82 1
  82   44   83 1
  83   44   84 1
  84   44   85 1
  85   45   46 1
  86   46   47 1
  87   46   86 1
  88   46   87 1
  89   47   48 1
  90   47   49 1
  91   47   88 1
  92   50   51 2
  93   50   52 2

#	End of record

