#	Name: ASD01883864
#	Creating user name:	WinNT
#	Creation time:	15. 06. 2019 19:47

#	Modifying user name:	WinNT
#	Modification time:	15. 06. 2019 19:47

#	Program:	/corina/corina34_cracker 3.40 0067  02.08.2006

@<TRIPOS>MOLECULE
ASD01883864
  57   61    0    0    0
SMALL
NO_CHARGES


@<TRIPOS>ATOM
   1 O1             0.0326     1.3410    -0.0100 O.3     
   2 C2             0.0754     0.0006     0.2002 C.2     
   3 C3            -0.3685    -2.2426    -0.4980 C.2     
   4 C4            -0.4237    -0.8583    -0.7378 C.2     
   5 C5             0.6407    -0.5137     1.3855 C.2     
   6 C6             0.6847    -1.8443     1.5962 C.2     
   7 N7            -0.4809    -4.3717    -0.5300 N.2     
   8 N8            -0.7564    -3.3024    -1.1905 N.2     
   9 N9             0.1846    -2.7108     0.6689 N.pl3   
  10 C10            0.0917    -4.0695     0.6055 C.2     
  11 C11            0.5626    -5.0448     1.6534 C.3     
  12 C12            2.0154    -5.4337     1.3721 C.3     
  13 C13            2.7175    -6.3297     2.3944 C.3     
  14 C14            2.3022    -6.8985     1.0361 C.3     
  15 C15           -1.0266    -0.3284    -2.0133 C.3     
  16 F16           -1.0916     1.0678    -1.9535 F       
  17 F17           -0.2323    -0.7123    -3.0991 F       
  18 F18           -2.3155    -0.8489    -2.1713 F       
  19 C19            1.2844     2.0170    -0.1444 C.3     
  20 C20            1.0423     3.5248    -0.2382 C.3     
  21 C21            0.3461     4.0005     1.0108 C.ar    
  22 C22           -1.5286     3.9207     2.4980 C.ar    
  23 C23           -0.9309     4.8727     3.3025 C.ar    
  24 C24            0.3024     5.3933     2.9578 C.ar    
  25 C25            0.9410     4.9570     1.8121 C.ar    
  26 C26           -0.8900     3.4844     1.3523 C.ar    
  27 C27            2.3827     4.2485    -0.3820 C.3     
  28 C28            3.0895     3.7656    -1.6501 C.3     
  29 C29            2.2140     4.0667    -2.8682 C.3     
  30 C30            0.8737     3.3430    -2.7243 C.3     
  31 C31            0.1668     3.8259    -1.4563 C.3     
  32 H32            1.0404     0.1616     2.1275 H       
  33 H33            1.1200    -2.2279     2.5071 H       
  34 H34            0.4945    -4.5815     2.6377 H       
  35 H35           -0.0638    -5.9365     1.6275 H       
  36 H36            2.6165    -4.6750     0.8710 H       
  37 H37            3.7806    -6.1608     2.5655 H       
  38 H38            2.1444    -6.6422     3.2673 H       
  39 H39            1.4560    -7.5851     1.0154 H       
  40 H40            3.0922    -7.1037     0.3136 H       
  41 H41            1.9081     1.8024     0.7234 H       
  42 H42            1.7880     1.6729    -1.0478 H       
  43 H43           -2.4922     3.5139     2.7673 H       
  44 H44           -1.4299     5.2136     4.1977 H       
  45 H45            0.7694     6.1371     3.5864 H       
  46 H46            1.9049     5.3631     1.5432 H       
  47 H47           -1.3570     2.7406     0.7237 H       
  48 H48            2.2102     5.3227    -0.4489 H       
  49 H49            3.0064     4.0340     0.4858 H       
  50 H50            4.0444     4.2812    -1.7526 H       
  51 H51            3.2620     2.6914    -1.5833 H       
  52 H52            2.0416     5.1409    -2.9350 H       
  53 H53            2.7176     3.7227    -3.7716 H       
  54 H54            0.2500     3.5576    -3.5921 H       
  55 H55            1.0462     2.2688    -2.6575 H       
  56 H56           -0.7880     3.3103    -1.3538 H       
  57 H57           -0.0056     4.9001    -1.5231 H       
@<TRIPOS>BOND
   1    1    2 1
   2    1   19 1
   3    2    5 1
   4    2    4 2
   5    3    4 1
   6    3    9 1
   7    3    8 2
   8    4   15 1
   9    5    6 2
  10    5   32 1
  11    6    9 1
  12    6   33 1
  13    7    8 1
  14    7   10 2
  15    9   10 1
  16   10   11 1
  17   11   12 1
  18   11   34 1
  19   11   35 1
  20   12   13 1
  21   12   14 1
  22   12   36 1
  23   13   14 1
  24   13   37 1
  25   13   38 1
  26   14   39 1
  27   14   40 1
  28   15   16 1
  29   15   17 1
  30   15   18 1
  31   19   20 1
  32   19   41 1
  33   19   42 1
  34   20   21 1
  35   20   27 1
  36   20   31 1
  37   21   26 ar
  38   21   25 ar
  39   22   23 ar
  40   22   26 ar
  41   22   43 1
  42   23   24 ar
  43   23   44 1
  44   24   25 ar
  45   24   45 1
  46   25   46 1
  47   26   47 1
  48   27   28 1
  49   27   48 1
  50   27   49 1
  51   28   29 1
  52   28   50 1
  53   28   51 1
  54   29   30 1
  55   29   52 1
  56   29   53 1
  57   30   31 1
  58   30   54 1
  59   30   55 1
  60   31   56 1
  61   31   57 1

#	End of record

