#	Name: ASD01120225
#	Creating user name:	WinNT
#	Creation time:	15. 06. 2019 18:59

#	Modifying user name:	WinNT
#	Modification time:	15. 06. 2019 18:59

#	Program:	/corina/corina34_cracker 3.40 0067  02.08.2006

@<TRIPOS>MOLECULE
ASD01120225
  46   47    0    0    0
SMALL
NO_CHARGES


@<TRIPOS>ATOM
   1 C1            -0.0167     1.3791     0.0096 C.ar    
   2 C2             0.0021    -0.0041     0.0020 C.ar    
   3 C3            -1.1857    -0.7112     0.0100 C.ar    
   4 C4            -2.3919    -0.0365     0.0257 C.ar    
   5 C5            -2.4113     1.3460     0.0333 C.ar    
   6 C6            -1.2245     2.0540     0.0306 C.ar    
   7 S7            -3.9495     2.2052     0.0532 S.o2    
   8 N8            -4.3617     2.4358     1.6404 N.am    
   9 C9            -3.6007     3.2226     2.4268 C.2     
  10 N10           -3.9362     3.4102     3.7186 N.am    
  11 O11           -3.6957     3.4949    -0.4869 O.2     
  12 O12           -4.9146     1.3128    -0.4865 O.2     
  13 O13           -2.6116     3.7631     1.9709 O.2     
  14 C14           -3.6884     2.7324    12.0012 C.ar    
  15 C15           -2.4870     2.3646    12.5800 C.ar    
  16 C16           -1.4025     3.2199    12.5236 C.ar    
  17 C17           -1.5183     4.4424    11.8891 C.ar    
  18 C18           -2.7188     4.8105    11.3104 C.ar    
  19 C19           -3.8022     3.9541    11.3616 C.ar    
  20 S20           -2.8655     6.3691    10.5017 S.o2    
  21 N21           -2.4534     6.1386     8.9145 N.am    
  22 C22           -3.2143     5.3518     8.1281 C.2     
  23 N23           -2.8788     5.1641     6.8363 N.am    
  24 O24           -4.2477     6.6988    10.5136 O.2     
  25 O25           -1.8620     7.2065    11.0593 O.2     
  26 O26           -4.2034     4.8113     8.5840 O.2     
  27 C27           -3.7059     4.3089     5.9815 C.3     
  28 C28           -3.1091     4.2655     4.5734 C.3     
  29 Cl29          -5.0506     1.6586    12.0711 Cl      
  30 Cl30           1.4746     2.2678     0.0002 Cl      
  31 H31            0.9445    -0.5314    -0.0105 H       
  32 H32           -1.1712    -1.7911     0.0037 H       
  33 H33           -3.3197    -0.5894     0.0316 H       
  34 H34           -1.2398     3.1339     0.0365 H       
  35 H35           -5.1507     2.0046     2.0041 H       
  36 H36           -4.7253     2.9790     4.0823 H       
  37 H37           -2.3965     1.4096    13.0761 H       
  38 H38           -0.4646     2.9330    12.9757 H       
  39 H39           -0.6708     5.1104    11.8456 H       
  40 H40           -4.7399     4.2418    10.9095 H       
  41 H41           -1.6643     6.5698     8.5508 H       
  42 H42           -2.0897     5.5954     6.4726 H       
  43 H43           -3.7347     3.3009     6.3952 H       
  44 H44           -4.7178     4.7116     5.9350 H       
  45 H45           -2.0973     3.8628     4.6199 H       
  46 H46           -3.0803     5.2735     4.1597 H       
@<TRIPOS>BOND
   1    1    2 ar
   2    1   30 1
   3    1    6 ar
   4    2    3 ar
   5    2   31 1
   6    3    4 ar
   7    3   32 1
   8    4    5 ar
   9    4   33 1
  10    5    6 ar
  11    5    7 1
  12    6   34 1
  13    7    8 am
  14    7   11 2
  15    7   12 2
  16    8    9 am
  17    8   35 1
  18    9   10 am
  19    9   13 2
  20   10   28 1
  21   10   36 1
  22   14   15 ar
  23   14   29 1
  24   14   19 ar
  25   15   16 ar
  26   15   37 1
  27   16   17 ar
  28   16   38 1
  29   17   18 ar
  30   17   39 1
  31   18   19 ar
  32   18   20 1
  33   19   40 1
  34   20   21 am
  35   20   24 2
  36   20   25 2
  37   21   22 am
  38   21   41 1
  39   22   23 am
  40   22   26 2
  41   23   27 1
  42   23   42 1
  43   27   28 1
  44   27   43 1
  45   27   44 1
  46   28   45 1
  47   28   46 1

#	End of record

