#	Name: ASD05130031
#	Creating user name:	WinNT
#	Creation time:	15. 06. 2019 20:56

#	Modifying user name:	WinNT
#	Modification time:	15. 06. 2019 20:56

#	Program:	/corina/corina34_cracker 3.40 0067  02.08.2006

@<TRIPOS>MOLECULE
ASD05130031
  57   61    0    0    0
SMALL
NO_CHARGES


@<TRIPOS>ATOM
   1 N1             0.0530     1.2397     0.0400 N.am    
   2 C2             0.0609     0.0506     0.6743 C.2     
   3 O3             1.1044    -0.4025     1.1036 O.2     
   4 N4            -1.0878    -0.6363     0.8328 N.am    
   5 C5            -1.0636    -1.9199     1.3814 C.ar    
   6 C6             0.0753    -2.6913     1.2957 C.ar    
   7 C7             0.1100    -3.9718     1.8395 C.ar    
   8 C8            -0.9766    -4.4978     2.4693 C.ar    
   9 C9            -2.1575    -3.7441     2.5781 C.ar    
  10 C10           -3.2949    -4.2613     3.2223 C.ar    
  11 C11           -4.4223    -3.5040     3.3094 C.ar    
  12 C12           -4.4677    -2.2204     2.7689 C.ar    
  13 C13           -3.3854    -1.6876     2.1377 C.ar    
  14 C14           -2.2030    -2.4370     2.0335 C.ar    
  15 C15            1.2297     1.9955    -0.0464 C.ar    
  16 C16            1.1597     3.3778    -0.1929 C.ar    
  17 C17            2.3195     4.1275    -0.2786 C.ar    
  18 C18            3.5529     3.5077    -0.2192 C.ar    
  19 C19            3.6311     2.1223    -0.0720 C.ar    
  20 C20            2.4626     1.3676     0.0197 C.ar    
  21 N21            6.9669     0.9377     1.2666 N.am    
  22 C22            5.7650     1.5440     1.2075 C.2     
  23 C23            4.9528     1.4557    -0.0081 C.2     
  24 C24            5.4223     0.7531    -1.0842 C.2     
  25 C25            6.6875     0.1251    -0.9976 C.ar    
  26 C26            7.2069    -0.6039    -2.0744 C.ar    
  27 N27            8.3843    -1.1818    -1.9774 N.ar    
  28 C28            9.1230    -1.1031    -0.8756 C.ar    
  29 C29            8.6842    -0.4004     0.2376 C.ar    
  30 C30            7.4461     0.2293     0.1889 C.ar    
  31 O31            5.3523     2.1681     2.1689 O.2     
  32 N32           10.3568    -1.7362    -0.8374 N.pl3   
  33 C33           11.1828    -1.6586     0.3700 C.3     
  34 C34            7.7722     1.0382     2.4863 C.3     
  35 F35           -0.0436     3.9890    -0.2520 F       
  36 Cl36           5.0052     4.4525    -0.3283 Cl      
  37 H37           -0.7664     1.5705    -0.3602 H       
  38 H38           -1.9314    -0.2388     0.5658 H       
  39 H39            0.9507    -2.2977     0.8006 H       
  40 H40            1.0136    -4.5581     1.7604 H       
  41 H41           -0.9310    -5.4938     2.8846 H       
  42 H42           -3.2743    -5.2547     3.6455 H       
  43 H43           -5.2949    -3.9039     3.8045 H       
  44 H44           -5.3747    -1.6400     2.8515 H       
  45 H45           -3.4349    -0.6915     1.7231 H       
  46 H46            2.2604     5.1999    -0.3925 H       
  47 H47            2.5184     0.2955     0.1374 H       
  48 H48            4.8350     0.6785    -1.9875 H       
  49 H49            6.6381    -0.6923    -2.9883 H       
  50 H50            9.2941    -0.3444     1.1271 H       
  51 H51           10.6726    -2.2303    -1.6101 H       
  52 H52           11.4153    -0.6156     0.5848 H       
  53 H53           10.6393    -2.0902     1.2105 H       
  54 H54           12.1085    -2.2123     0.2132 H       
  55 H55            7.2390     1.6359     3.2256 H       
  56 H56            7.9514     0.0403     2.8866 H       
  57 H57            8.7255     1.5131     2.2542 H       
@<TRIPOS>BOND
   1    1    2 am
   2    1   15 1
   3    1   37 1
   4    2    3 2
   5    2    4 am
   6    4    5 1
   7    4   38 1
   8    5    6 ar
   9    5   14 ar
  10    6    7 ar
  11    6   39 1
  12    7    8 ar
  13    7   40 1
  14    8    9 ar
  15    8   41 1
  16    9   10 ar
  17    9   14 ar
  18   10   11 ar
  19   10   42 1
  20   11   12 ar
  21   11   43 1
  22   12   13 ar
  23   12   44 1
  24   13   14 ar
  25   13   45 1
  26   15   16 ar
  27   15   20 ar
  28   16   17 ar
  29   16   35 1
  30   17   18 ar
  31   17   46 1
  32   18   19 ar
  33   18   36 1
  34   19   20 ar
  35   19   23 1
  36   20   47 1
  37   21   22 am
  38   21   30 1
  39   21   34 1
  40   22   23 1
  41   22   31 2
  42   23   24 2
  43   24   25 1
  44   24   48 1
  45   25   26 ar
  46   25   30 ar
  47   26   27 ar
  48   26   49 1
  49   27   28 ar
  50   28   29 ar
  51   28   32 1
  52   29   30 ar
  53   29   50 1
  54   32   33 1
  55   32   51 1
  56   33   52 1
  57   33   53 1
  58   33   54 1
  59   34   55 1
  60   34   56 1
  61   34   57 1

#	End of record

