#	Name: ASD01150121
#	Creating user name:	WinNT
#	Creation time:	15. 06. 2019 19:03

#	Modifying user name:	WinNT
#	Modification time:	15. 06. 2019 19:03

#	Program:	/corina/corina34_cracker 3.40 0067  02.08.2006

@<TRIPOS>MOLECULE
ASD01150121
  54   57    0    0    0
SMALL
NO_CHARGES


@<TRIPOS>ATOM
   1 N1            -0.0166     1.3763     0.0096 N.pl3   
   2 C2             0.0021    -0.0041     0.0020 C.2     
   3 C3            -1.3262    -0.4109     0.0125 C.2     
   4 N4            -2.0781     0.6927     0.0256 N.2     
   5 C5            -1.3102     1.7524     0.0299 C.2     
   6 C6             1.0206    -0.9813    -0.0125 C.2     
   7 N7             0.6807    -2.2871    -0.0159 N.am    
   8 C8            -0.6087    -2.6667    -0.0061 C.2     
   9 N9            -1.6103    -1.7670     0.0083 N.am    
  10 O10            2.1925    -0.6496    -0.0223 O.2     
  11 C11           -3.0026    -2.2226     0.0187 C.3     
  12 O12           -0.8774    -3.8526    -0.0100 O.2     
  13 C13            1.7328    -3.3064    -0.0310 C.3     
  14 C14            2.1070    -3.6631     1.3845 C.ar    
  15 C15            1.4454    -4.6866     2.0371 C.ar    
  16 C16            1.7881    -5.0142     3.3353 C.ar    
  17 C17            2.7936    -4.3176     3.9819 C.ar    
  18 C18            3.4553    -3.2933     3.3283 C.ar    
  19 C19            3.1155    -2.9704     2.0281 C.ar    
  20 Cl20           3.2242    -4.7281     5.6127 Cl      
  21 C21           -1.7991     3.1779     0.0446 C.3     
  22 C22           -1.9566     3.6481     1.4920 C.3     
  23 C23            1.1490     2.2638     0.0032 C.3     
  24 C24           -3.4668    -2.3869     1.4430 C.ar    
  25 C25           -4.0519    -1.3235     2.1052 C.ar    
  26 C26           -4.4783    -1.4716     3.4108 C.ar    
  27 C27           -4.3189    -2.6886     4.0575 C.ar    
  28 C28           -3.7315    -3.7540     3.3909 C.ar    
  29 C29           -3.3119    -3.6025     2.0834 C.ar    
  30 O30           -4.7371    -2.8366     5.3421 O.3     
  31 C31           -4.5411    -4.1175     5.9446 C.3     
  32 F32           -5.2304    -5.0886     5.2106 F       
  33 F33           -3.1760    -4.4234     5.9561 F       
  34 H34           -3.6294    -1.4868    -0.4852 H       
  35 H35           -3.0759    -3.1785    -0.4999 H       
  36 H36            1.3696    -4.1958    -0.5459 H       
  37 H37            2.6081    -2.9174    -0.5512 H       
  38 H38            0.6603    -5.2301     1.5324 H       
  39 H39            1.2710    -5.8136     3.8452 H       
  40 H40            4.2402    -2.7492     3.8325 H       
  41 H41            3.6320    -2.1709     1.5178 H       
  42 H42           -1.0779     3.8146    -0.4679 H       
  43 H43           -2.7616     3.2371    -0.4635 H       
  44 H44           -0.9941     3.5888     2.0001 H       
  45 H45           -2.3101     4.6791     1.5026 H       
  46 H46           -2.6777     3.0114     2.0044 H       
  47 H47            1.4282     2.4894    -1.0259 H       
  48 H48            0.9039     3.1892     0.5244 H       
  49 H49            1.9820     1.7730     0.5065 H       
  50 H50           -4.1754    -0.3762     1.6014 H       
  51 H51           -4.9349    -0.6406     3.9278 H       
  52 H52           -3.6063    -4.7024     3.8922 H       
  53 H53           -2.8546    -4.4316     1.5640 H       
  54 H54           -4.9180    -4.0995     6.9672 H       
@<TRIPOS>BOND
   1    1    2 1
   2    1   23 1
   3    1    5 1
   4    2    3 2
   5    2    6 1
   6    3    4 1
   7    3    9 1
   8    4    5 2
   9    5   21 1
  10    6    7 am
  11    6   10 2
  12    7    8 am
  13    7   13 1
  14    8    9 am
  15    8   12 2
  16    9   11 1
  17   11   24 1
  18   11   34 1
  19   11   35 1
  20   13   14 1
  21   13   36 1
  22   13   37 1
  23   14   15 ar
  24   14   19 ar
  25   15   16 ar
  26   15   38 1
  27   16   17 ar
  28   16   39 1
  29   17   18 ar
  30   17   20 1
  31   18   19 ar
  32   18   40 1
  33   19   41 1
  34   21   22 1
  35   21   42 1
  36   21   43 1
  37   22   44 1
  38   22   45 1
  39   22   46 1
  40   23   47 1
  41   23   48 1
  42   23   49 1
  43   24   25 ar
  44   24   29 ar
  45   25   26 ar
  46   25   50 1
  47   26   27 ar
  48   26   51 1
  49   27   28 ar
  50   27   30 1
  51   28   29 ar
  52   28   52 1
  53   29   53 1
  54   30   31 1
  55   31   32 1
  56   31   33 1
  57   31   54 1

#	End of record

