#	Name: ASD01917843
#	Creating user name:	WinNT
#	Creation time:	15. 06. 2019 20:10

#	Modifying user name:	WinNT
#	Modification time:	15. 06. 2019 20:10

#	Program:	/corina/corina34_cracker 3.40 0067  02.08.2006

@<TRIPOS>MOLECULE
ASD01917843
  46   50    0    0    0
SMALL
NO_CHARGES


@<TRIPOS>ATOM
   1 C1            -0.0146     1.3275     0.0002 C.2     
   2 C2            -0.0052    -0.0187     0.0026 C.2     
   3 C3            -1.2754    -0.8553     0.0140 C.3     
   4 C4            -2.4420     0.0108     0.4950 C.3     
   5 N5            -2.4110     1.2979    -0.2158 N.am    
   6 C6            -1.2589     2.1855     0.0203 C.3     
   7 C7            -3.4039     1.6536    -1.0549 C.2     
   8 O8            -4.2943     0.8649    -1.3133 O.2     
   9 S9             1.6466     1.9022    -0.0225 S.3     
  10 C10            2.2122     0.2892    -0.0220 C.2     
  11 N11            1.2189    -0.5283    -0.0075 N.2     
  12 C12            3.6635    -0.1163    -0.0369 C.3     
  13 O13            4.1069    -0.2498    -1.3888 O.3     
  14 C14            5.4024    -0.6130    -1.5802 C.ar    
  15 C15            5.8997    -0.7611    -2.8669 C.ar    
  16 C16            7.2170    -1.1304    -3.0588 C.ar    
  17 C17            8.0395    -1.3526    -1.9698 C.ar    
  18 C18            7.5462    -1.2062    -0.6865 C.ar    
  19 C19            6.2314    -0.8309    -0.4893 C.ar    
  20 C20           -3.4116     2.9902    -1.6563 C.2     
  21 C21           -2.9767     4.1828    -1.0529 C.2     
  22 N22           -3.1391     5.1656    -1.8996 N.2     
  23 N23           -3.6841     4.6734    -3.0918 N.pl3   
  24 C24           -3.8506     3.3251    -2.9521 C.2     
  25 C25           -4.0322     5.2875    -4.2571 C.2     
  26 C26           -4.5500     4.5768    -5.2839 C.2     
  27 C27           -4.7366     3.1929    -5.1636 C.2     
  28 C28           -4.3781     2.5667    -4.0054 C.2     
  29 H29           -1.4818    -1.2181    -0.9929 H       
  30 H30           -1.1479    -1.7020     0.6885 H       
  31 H31           -3.3834    -0.4978     0.2870 H       
  32 H32           -2.3493     0.1843     1.5671 H       
  33 H33           -1.3591     2.6724     0.9904 H       
  34 H34           -1.2021     2.9364    -0.7678 H       
  35 H35            4.2587     0.6450     0.4672 H       
  36 H36            3.7798    -1.0692     0.4793 H       
  37 H37            5.2575    -0.5880    -3.7177 H       
  38 H38            7.6045    -1.2462    -4.0602 H       
  39 H39            9.0691    -1.6413    -2.1219 H       
  40 H40            8.1905    -1.3809     0.1624 H       
  41 H41            5.8465    -0.7167     0.5133 H       
  42 H42           -2.5749     4.2725    -0.0544 H       
  43 H43           -3.8934     6.3534    -4.3615 H       
  44 H44           -4.8214     5.0779    -6.2013 H       
  45 H45           -5.1506     2.6256    -5.9840 H       
  46 H46           -4.5147     1.5010    -3.8959 H       
@<TRIPOS>BOND
   1    1    2 2
   2    1    9 1
   3    1    6 1
   4    2    3 1
   5    2   11 1
   6    3    4 1
   7    3   29 1
   8    3   30 1
   9    4    5 1
  10    4   31 1
  11    4   32 1
  12    5    6 1
  13    5    7 am
  14    6   33 1
  15    6   34 1
  16    7    8 2
  17    7   20 1
  18    9   10 1
  19   10   11 2
  20   10   12 1
  21   12   13 1
  22   12   35 1
  23   12   36 1
  24   13   14 1
  25   14   15 ar
  26   14   19 ar
  27   15   16 ar
  28   15   37 1
  29   16   17 ar
  30   16   38 1
  31   17   18 ar
  32   17   39 1
  33   18   19 ar
  34   18   40 1
  35   19   41 1
  36   20   21 1
  37   20   24 2
  38   21   22 2
  39   21   42 1
  40   22   23 1
  41   23   25 1
  42   23   24 1
  43   24   28 1
  44   25   26 2
  45   25   43 1
  46   26   27 1
  47   26   44 1
  48   27   28 2
  49   27   45 1
  50   28   46 1

#	End of record

