#	Name: ASD01913410
#	Creating user name:	WinNT
#	Creation time:	15. 06. 2019 20:01

#	Modifying user name:	WinNT
#	Modification time:	15. 06. 2019 20:01

#	Program:	/corina/corina34_cracker 3.40 0067  02.08.2006

@<TRIPOS>MOLECULE
ASD01913410
  34   36    0    0    0
SMALL
NO_CHARGES


@<TRIPOS>ATOM
   1 C1            -0.0852    -0.7312    -2.1564 C.ar    
   2 C2            -0.5201    -0.0405    -1.0297 C.ar    
   3 C3            -0.4834     1.3467    -1.0340 C.ar    
   4 N4            -0.0440     2.0046    -2.0882 N.ar    
   5 C5             0.3752     1.3802    -3.1716 C.ar    
   6 C6             0.3692    -0.0001    -3.2423 C.ar    
   7 C7            -0.9912    -2.0725     0.0079 C.ar    
   8 C8             0.1839    -2.7882     0.1938 C.ar    
   9 C9             0.1723    -4.1703     0.1479 C.ar    
  10 C10           -1.0075    -4.8473    -0.0826 C.ar    
  11 C11           -2.1945    -4.1363    -0.2704 C.ar    
  12 C12           -2.1813    -2.7421    -0.2243 C.ar    
  13 C13           -3.4603    -4.8583    -0.5180 C.2     
  14 N14           -3.4701    -6.2053    -0.5630 N.am    
  15 C15           -4.6740    -6.8874    -0.6903 C.ar    
  16 O16           -4.4922    -4.2372    -0.6812 O.2     
  17 C17           -4.7097    -8.2805    -0.6228 C.ar    
  18 C18           -5.9316    -8.9125    -0.7552 C.ar    
  19 N19           -7.0208    -8.1810    -0.9404 N.ar    
  20 C20           -6.9532    -6.8661    -0.9996 C.ar    
  21 N21           -5.8106    -6.2227    -0.8729 N.ar    
  22 O22           -0.9747    -0.7146     0.0592 O.3     
  23 H23           -0.0972    -1.8108    -2.1823 H       
  24 H24           -0.8186     1.8929    -0.1647 H       
  25 H25            0.7279     1.9553    -4.0150 H       
  26 H26            0.7144    -0.5030    -4.1336 H       
  27 H27            1.1105    -2.2637     0.3746 H       
  28 H28            1.0897    -4.7214     0.2926 H       
  29 H29           -1.0129    -5.9267    -0.1182 H       
  30 H30           -3.0962    -2.1867    -0.3684 H       
  31 H31           -2.6368    -6.6985    -0.5065 H       
  32 H32           -3.8051    -8.8507    -0.4712 H       
  33 H33           -5.9979    -9.9895    -0.7086 H       
  34 H34           -7.8604    -6.3002    -1.1516 H       
@<TRIPOS>BOND
   1    1    2 ar
   2    1    6 ar
   3    1   23 1
   4    2    3 ar
   5    2   22 1
   6    3    4 ar
   7    3   24 1
   8    4    5 ar
   9    5    6 ar
  10    5   25 1
  11    6   26 1
  12    7    8 ar
  13    7   12 ar
  14    7   22 1
  15    8    9 ar
  16    8   27 1
  17    9   10 ar
  18    9   28 1
  19   10   11 ar
  20   10   29 1
  21   11   12 ar
  22   11   13 1
  23   12   30 1
  24   13   14 am
  25   13   16 2
  26   14   15 1
  27   14   31 1
  28   15   17 ar
  29   15   21 ar
  30   17   18 ar
  31   17   32 1
  32   18   19 ar
  33   18   33 1
  34   19   20 ar
  35   20   21 ar
  36   20   34 1

#	End of record

