#	Name: ASD01150231
#	Creating user name:	WinNT
#	Creation time:	15. 06. 2019 19:03

#	Modifying user name:	WinNT
#	Modification time:	15. 06. 2019 19:03

#	Program:	/corina/corina34_cracker 3.40 0067  02.08.2006

@<TRIPOS>MOLECULE
ASD01150231
  50   53    0    0    0
SMALL
NO_CHARGES


@<TRIPOS>ATOM
   1 C1            -0.0159     1.3205     0.0093 C.ar    
   2 N2             0.0021    -0.0041     0.0020 N.ar    
   3 C3             1.1588    -0.6427    -0.0124 C.ar    
   4 C4             2.3546     0.0631    -0.0200 C.ar    
   5 N5             2.3510     1.3823    -0.0125 N.ar    
   6 C6             1.1966     2.0331     0.0016 C.ar    
   7 C7             1.1375     3.5094     0.0100 C.2     
   8 N8            -0.0772     4.1001     0.0238 N.am    
   9 C9            -1.2044     3.3715     0.0303 C.2     
  10 N10           -1.2038     2.0278     0.0302 N.am    
  11 C11           -0.1659     5.5624     0.0324 C.3     
  12 O12            2.1549     4.1746     0.0050 O.2     
  13 C13           -0.2088     6.0714    -1.3854 C.ar    
  14 C14           -1.4236     6.2322    -2.0253 C.ar    
  15 C15           -1.4636     6.6990    -3.3256 C.ar    
  16 C16           -0.2875     7.0053    -3.9868 C.ar    
  17 C17            0.9280     6.8441    -3.3458 C.ar    
  18 C18            0.9664     6.3826    -2.0436 C.ar    
  19 Cl19          -0.3369     7.5911    -5.6202 Cl      
  20 O20           -2.2722     3.9524     0.0436 O.2     
  21 C21           -2.4772     1.3035     0.0375 C.3     
  22 C22           -2.9220     1.0553    -1.3808 C.ar    
  23 C23           -3.8783     1.8692    -1.9567 C.ar    
  24 C24           -4.2883     1.6441    -3.2572 C.ar    
  25 C25           -3.7404     0.5993    -3.9875 C.ar    
  26 C26           -2.7805    -0.2189    -3.4118 C.ar    
  27 C27           -2.3665     0.0127    -2.1094 C.ar    
  28 O28           -1.4255    -0.7873    -1.5425 O.3     
  29 C29           -0.9060    -1.8482    -2.3467 C.3     
  30 O30           -4.1447     0.3779    -5.2660 O.3     
  31 C31           -5.1372     1.2597    -5.7945 C.3     
  32 H32            1.1743    -1.7225    -0.0180 H       
  33 H33            3.2931    -0.4711    -0.0318 H       
  34 H34           -1.0716     5.8684     0.5559 H       
  35 H35            0.7050     5.9762     0.5408 H       
  36 H36           -2.3415     5.9928    -1.5091 H       
  37 H37           -2.4126     6.8243    -3.8255 H       
  38 H38            1.8463     7.0831    -3.8615 H       
  39 H39            1.9151     6.2568    -1.5431 H       
  40 H40           -2.3501     0.3502     0.5505 H       
  41 H41           -3.2300     1.8974     0.5557 H       
  42 H42           -4.3065     2.6825    -1.3896 H       
  43 H43           -5.0361     2.2817    -3.7052 H       
  44 H44           -2.3529    -1.0327    -3.9787 H       
  45 H45           -1.7182    -2.5135    -2.6394 H       
  46 H46           -0.4378    -1.4320    -3.2387 H       
  47 H47           -0.1656    -2.4081    -1.7754 H       
  48 H48           -4.7599     2.2822    -5.7795 H       
  49 H49           -5.3690     0.9729    -6.8202 H       
  50 H50           -6.0399     1.1966    -5.1868 H       
@<TRIPOS>BOND
   1    1    2 ar
   2    1    6 ar
   3    1   10 1
   4    2    3 ar
   5    3    4 ar
   6    3   32 1
   7    4    5 ar
   8    4   33 1
   9    5    6 ar
  10    6    7 1
  11    7    8 am
  12    7   12 2
  13    8    9 am
  14    8   11 1
  15    9   10 am
  16    9   20 2
  17   10   21 1
  18   11   13 1
  19   11   34 1
  20   11   35 1
  21   13   14 ar
  22   13   18 ar
  23   14   15 ar
  24   14   36 1
  25   15   16 ar
  26   15   37 1
  27   16   17 ar
  28   16   19 1
  29   17   18 ar
  30   17   38 1
  31   18   39 1
  32   21   22 1
  33   21   40 1
  34   21   41 1
  35   22   23 ar
  36   22   27 ar
  37   23   24 ar
  38   23   42 1
  39   24   25 ar
  40   24   43 1
  41   25   26 ar
  42   25   30 1
  43   26   27 ar
  44   26   44 1
  45   27   28 1
  46   28   29 1
  47   29   45 1
  48   29   46 1
  49   29   47 1
  50   30   31 1
  51   31   48 1
  52   31   49 1
  53   31   50 1

#	End of record

