#	Name: ASD00180042
#	Creating user name:	WinNT
#	Creation time:	15. 06. 2019 18:33

#	Modifying user name:	WinNT
#	Modification time:	15. 06. 2019 18:33

#	Program:	/corina/corina34_cracker 3.40 0067  02.08.2006

@<TRIPOS>MOLECULE
ASD00180042
  43   44    0    0    0
SMALL
NO_CHARGES


@<TRIPOS>ATOM
   1 N1             0.0163     1.1141    -0.1655 N.ar    
   2 C2             0.1777    -0.1862    -0.2822 C.ar    
   3 C3             1.4631    -0.7405    -0.2644 C.ar    
   4 N4             2.5243     0.0438    -0.1296 N.ar    
   5 C5             2.3667     1.3568    -0.0114 C.ar    
   6 C6             1.0770     1.9090    -0.0297 C.ar    
   7 C7             0.8955     3.3689     0.1008 C.2     
   8 N8            -0.3247     3.9078    -0.0369 N.2     
   9 O9             1.8546     4.0838     0.3337 O.2     
  10 C10           -0.5176     4.8994    -0.8924 C.2     
  11 N11            3.4714     2.1783     0.1299 N.pl3   
  12 N12            0.4957     5.2984    -1.7138 N.pl3   
  13 N13           -1.7297     5.5223    -0.9525 N.pl3   
  14 Cl14          -1.2074    -1.2178    -0.4584 Cl      
  15 N15            1.6269    -2.1101    -0.3872 N.pl3   
  16 C16            2.9715    -2.6916    -0.3687 C.3     
  17 C17            2.8723    -4.2108    -0.5205 C.3     
  18 C18            4.2554    -4.8089    -0.5014 C.ar    
  19 C19            6.0905    -5.7460     0.7182 C.ar    
  20 C20            6.7944    -5.9068    -0.4665 C.ar    
  21 C21            6.2249    -5.5113    -1.6681 C.ar    
  22 C22            4.9571    -4.9629    -1.6828 C.ar    
  23 C23            4.8228    -5.1975     0.6980 C.ar    
  24 O24            8.0416    -6.4462    -0.4493 O.3     
  25 C25            8.7072    -6.5818    -1.7065 C.3     
  26 F26            8.8508    -5.3214    -2.2965 F       
  27 F27            9.9700    -7.1499    -1.5068 F       
  28 F28            7.9523    -7.4069    -2.5472 F       
  29 H29            4.3549     1.7903     0.2281 H       
  30 H30            3.3621     3.1421     0.1307 H       
  31 H31            1.3325     4.8081    -1.7250 H       
  32 H32            0.3794     6.0724    -2.2868 H       
  33 H33           -2.4503     5.2385    -0.3684 H       
  34 H34           -1.8711     6.2489    -1.5793 H       
  35 H35            0.8515    -2.6845    -0.4855 H       
  36 H36            3.5560    -2.2815    -1.1923 H       
  37 H37            3.4580    -2.4519     0.5768 H       
  38 H38            2.2878    -4.6208     0.3031 H       
  39 H39            2.3858    -4.4504    -1.4660 H       
  40 H40            6.5317    -6.0531     1.6549 H       
  41 H41            6.7709    -5.6351    -2.5916 H       
  42 H42            4.5134    -4.6545    -2.6180 H       
  43 H43            4.2746    -5.0717     1.6200 H       
@<TRIPOS>BOND
   1    1    2 ar
   2    1    6 ar
   3    2    3 ar
   4    2   14 1
   5    3    4 ar
   6    3   15 1
   7    4    5 ar
   8    5    6 ar
   9    5   11 1
  10    6    7 1
  11    7    8 1
  12    7    9 2
  13    8   10 2
  14   10   12 1
  15   10   13 1
  16   11   29 1
  17   11   30 1
  18   12   31 1
  19   12   32 1
  20   13   33 1
  21   13   34 1
  22   15   16 1
  23   15   35 1
  24   16   17 1
  25   16   36 1
  26   16   37 1
  27   17   18 1
  28   17   38 1
  29   17   39 1
  30   18   23 ar
  31   18   22 ar
  32   19   20 ar
  33   19   23 ar
  34   19   40 1
  35   20   21 ar
  36   20   24 1
  37   21   22 ar
  38   21   41 1
  39   22   42 1
  40   23   43 1
  41   24   25 1
  42   25   26 1
  43   25   27 1
  44   25   28 1

#	End of record

