#	Name: ASD01911941
#	Creating user name:	WinNT
#	Creation time:	15. 06. 2019 19:58

#	Modifying user name:	WinNT
#	Modification time:	15. 06. 2019 19:58

#	Program:	/corina/corina34_cracker 3.40 0067  02.08.2006

@<TRIPOS>MOLECULE
ASD01911941
  54   56    0    0    0
SMALL
NO_CHARGES


@<TRIPOS>ATOM
   1 C1             0.2606     1.4389     1.9542 C.3     
   2 C2             0.2428    -0.0599     1.6475 C.3     
   3 C3             1.7078     1.9103     2.1105 C.3     
   4 C4            -1.2044    -0.5313     1.4912 C.3     
   5 O5            -1.2210    -1.9313     1.2048 O.3     
   6 C6            -2.4380    -2.5120     1.0357 C.ar    
   7 C7            -2.5281    -3.8677     0.7553 C.ar    
   8 C8            -3.7663    -4.4556     0.5838 C.ar    
   9 C9            -4.9154    -3.6941     0.6915 C.ar    
  10 C10           -4.8283    -2.3427     0.9704 C.ar    
  11 C11           -3.5927    -1.7513     1.1489 C.ar    
  12 C12           -6.2649    -4.3381     0.5039 C.3     
  13 C13           -6.7726    -4.8366     1.8324 C.2     
  14 O14           -6.1043    -4.6840     2.8329 O.2     
  15 N15           -7.9692    -5.4520     1.9086 N.am    
  16 C16           -8.4834    -5.9461     3.1949 C.3     
  17 C17           -9.9071    -5.4130     3.3872 C.3     
  18 N18          -10.7209    -5.7658     2.2161 N.3     
  19 C19          -10.2069    -5.1260     0.9978 C.3     
  20 C20           -8.7982    -5.6419     0.7086 C.3     
  21 C21          -12.0513    -5.4443     2.4217 C.ar    
  22 C22          -13.0593    -6.2829     1.9156 C.ar    
  23 C23          -14.3974    -5.9370     2.1361 C.ar    
  24 C24          -14.6691    -4.7802     2.8454 C.ar    
  25 C25          -13.6223    -4.0056     3.3121 C.ar    
  26 N26          -12.3677    -4.3515     3.0985 N.ar    
  27 C27          -12.7234    -7.4692     1.1872 C.1     
  28 N28          -12.4569    -8.4103     0.6095 N.1     
  29 H29           -0.2123     1.9827     1.1365 H       
  30 H30           -0.2847     1.6271     2.8790 H       
  31 H31            0.7881    -0.2481     0.7227 H       
  32 H32            0.7157    -0.6038     2.4653 H       
  33 H33            1.7205     2.9781     2.3290 H       
  34 H34            2.1807     1.3665     2.9283 H       
  35 H35            2.2531     1.7221     1.1857 H       
  36 H36           -1.7497    -0.3432     2.4161 H       
  37 H37           -1.6773     0.0125     0.6735 H       
  38 H38           -1.6308    -4.4628     0.6708 H       
  39 H39           -3.8369    -5.5109     0.3652 H       
  40 H40           -5.7272    -1.7499     1.0533 H       
  41 H41           -3.5252    -0.6956     1.3668 H       
  42 H42           -6.9638    -3.6059     0.0995 H       
  43 H43           -6.1749    -5.1754    -0.1881 H       
  44 H44           -8.4982    -7.0360     3.1890 H       
  45 H45           -7.8467    -5.5902     4.0049 H       
  46 H46          -10.3444    -5.8576     4.2812 H       
  47 H47           -9.8779    -4.3289     3.4966 H       
  48 H48          -10.8615    -5.3624     0.1589 H       
  49 H49          -10.1735    -4.0459     1.1404 H       
  50 H50           -8.3693    -5.0875    -0.1261 H       
  51 H51           -8.8400    -6.7033     0.4639 H       
  52 H52          -15.1983    -6.5573     1.7617 H       
  53 H53          -15.6906    -4.4842     3.0328 H       
  54 H54          -13.8364    -3.1032     3.8655 H       
@<TRIPOS>BOND
   1    1    2 1
   2    1    3 1
   3    1   29 1
   4    1   30 1
   5    2    4 1
   6    2   31 1
   7    2   32 1
   8    3   33 1
   9    3   34 1
  10    3   35 1
  11    4    5 1
  12    4   36 1
  13    4   37 1
  14    5    6 1
  15    6    7 ar
  16    6   11 ar
  17    7    8 ar
  18    7   38 1
  19    8    9 ar
  20    8   39 1
  21    9   10 ar
  22    9   12 1
  23   10   11 ar
  24   10   40 1
  25   11   41 1
  26   12   13 1
  27   12   42 1
  28   12   43 1
  29   13   14 2
  30   13   15 am
  31   15   16 1
  32   15   20 1
  33   16   17 1
  34   16   44 1
  35   16   45 1
  36   17   18 1
  37   17   46 1
  38   17   47 1
  39   18   19 1
  40   18   21 1
  41   19   20 1
  42   19   48 1
  43   19   49 1
  44   20   50 1
  45   20   51 1
  46   21   22 ar
  47   21   26 ar
  48   22   23 ar
  49   22   27 1
  50   23   24 ar
  51   23   52 1
  52   24   25 ar
  53   24   53 1
  54   25   26 ar
  55   25   54 1
  56   27   28 3

#	End of record

