#	Name: ASD02500973
#	Creating user name:	WinNT
#	Creation time:	15. 06. 2019 20:23

#	Modifying user name:	WinNT
#	Modification time:	15. 06. 2019 20:23

#	Program:	/corina/corina34_cracker 3.40 0067  02.08.2006

@<TRIPOS>MOLECULE
ASD02500973
  34   37    0    0    0
SMALL
NO_CHARGES


@<TRIPOS>ATOM
   1 C1            -0.0162     1.3927    -0.0045 C.2     
   2 C2            -0.0113     0.0231     0.2774 C.2     
   3 C3            -1.2419    -0.6669     0.2864 C.2     
   4 N4            -2.3789     0.0086     0.0248 N.am    
   5 N5            -2.3570     1.3779    -0.2547 N.2     
   6 C6            -1.2400     2.0498    -0.2664 C.2     
   7 C7             1.3778     1.8349     0.0551 C.2     
   8 C8             2.1428     0.7326     0.3642 C.2     
   9 N9             1.2885    -0.3629     0.4971 N.pl3   
  10 S10            2.4133     3.2463    -0.1232 S.3     
  11 C11            3.8435     2.2898     0.2278 C.2     
  12 C12            3.5097     1.0250     0.4510 C.2     
  13 C13            1.7157    -1.7257     0.8233 C.3     
  14 C14           -3.6010    -0.6725     0.0328 C.ar    
  15 C15           -4.6817    -0.1549     0.7355 C.ar    
  16 O16           -1.2766    -1.8631     0.5280 O.2     
  17 C17            5.2503     2.8286     0.2689 C.3     
  18 C18           -3.7380    -1.8649    -0.6665 C.ar    
  19 C19           -4.9456    -2.5346    -0.6565 C.ar    
  20 C20           -6.0181    -2.0192     0.0483 C.ar    
  21 C21           -5.8866    -0.8297     0.7413 C.ar    
  22 H22           -1.2486     3.1074    -0.4852 H       
  23 H23            4.2451     0.2695     0.6854 H       
  24 H24            1.7139    -1.8579     1.9053 H       
  25 H25            1.0292    -2.4402     0.3689 H       
  26 H26            2.7216    -1.8931     0.4384 H       
  27 H27           -4.5797     0.7741     1.2768 H       
  28 H28            5.2371     3.8961     0.0485 H       
  29 H29            5.6722     2.6677     1.2610 H       
  30 H30            5.8591     2.3120    -0.4730 H       
  31 H31           -2.9011    -2.2675    -1.2178 H       
  32 H32           -5.0528    -3.4617    -1.2000 H       
  33 H33           -6.9615    -2.5448     0.0543 H       
  34 H34           -6.7259    -0.4301     1.2911 H       
@<TRIPOS>BOND
   1    1    2 2
   2    1    7 1
   3    1    6 1
   4    2    3 1
   5    2    9 1
   6    3    4 am
   7    3   16 2
   8    4    5 1
   9    4   14 1
  10    5    6 2
  11    6   22 1
  12    7    8 2
  13    7   10 1
  14    8    9 1
  15    8   12 1
  16    9   13 1
  17   10   11 1
  18   11   12 2
  19   11   17 1
  20   12   23 1
  21   13   24 1
  22   13   25 1
  23   13   26 1
  24   14   15 ar
  25   14   18 ar
  26   15   21 ar
  27   15   27 1
  28   17   28 1
  29   17   29 1
  30   17   30 1
  31   18   19 ar
  32   18   31 1
  33   19   20 ar
  34   19   32 1
  35   20   21 ar
  36   20   33 1
  37   21   34 1

#	End of record

