#	Name: ASD03731490
#	Creating user name:	WinNT
#	Creation time:	15. 06. 2019 20:45

#	Modifying user name:	WinNT
#	Modification time:	15. 06. 2019 20:45

#	Program:	/corina/corina34_cracker 3.40 0067  02.08.2006

@<TRIPOS>MOLECULE
ASD03731490
  56   61    0    0    0
SMALL
NO_CHARGES


@<TRIPOS>ATOM
   1 C1            -0.0180     1.4744     0.0101 C.2     
   2 C2             0.0021    -0.0041     0.0020 C.ar    
   3 C3             1.2171    -0.6857    -0.0132 C.ar    
   4 C4             1.2270    -2.0793    -0.0203 C.ar    
   5 C5             0.0198    -2.7833    -0.0121 C.ar    
   6 C6            -1.1803    -2.1011     0.0030 C.ar    
   7 C7            -1.1968    -0.7203     0.0155 C.ar    
   8 O8             1.0263     2.0964     0.0035 O.2     
   9 N9            -1.1942     2.1323     0.0193 N.am    
  10 C10           -1.2141     3.5972     0.0274 C.3     
  11 C11           -2.6633     4.0875     0.0369 C.3     
  12 C12           -2.6841     5.6174     0.0453 C.3     
  13 O13           -8.8975     2.7109     2.1987 O.3     
  14 C14          -10.3146     2.7644     2.4479 C.3     
  15 O15          -10.5198     4.0888     2.9742 O.3     
  16 C16           -9.5162     4.8510     2.4482 C.ar    
  17 C17           -8.5185     4.0032     1.9724 C.ar    
  18 C18           -9.3713     6.2220     2.3342 C.ar    
  19 C19           -8.2319     6.7642     1.7474 C.ar    
  20 C20           -7.2384     5.9074     1.2833 C.ar    
  21 C21           -7.3826     4.5398     1.3900 C.ar    
  22 O22           -7.9029     8.0689     1.5241 O.3     
  23 C23           -6.1399     6.7800     0.7376 C.3     
  24 C24           -6.4843     8.1684     1.2937 C.3     
  25 N25           -4.0718     6.0869     0.0544 N.am    
  26 C26           -4.7791     6.3224     1.1775 C.2     
  27 C27           -6.0966     6.7728    -0.7617 C.ar    
  28 C28           -7.0122     7.0857    -1.7415 C.ar    
  29 C29           -6.6638     6.9763    -3.0759 C.ar    
  30 C30           -5.3943     6.5513    -3.4232 C.ar    
  31 C31           -4.4740     6.2358    -2.4455 C.ar    
  32 C32           -4.8159     6.3434    -1.0997 C.ar    
  33 O33           -4.3921     6.1909     2.3194 O.2     
  34 C34            2.4712    -2.7881    -0.0365 C.1     
  35 N35            3.4581    -3.3505    -0.0493 N.1     
  36 H36            2.1471    -0.1366    -0.0199 H       
  37 H37            0.0257    -3.8632    -0.0179 H       
  38 H38           -2.1104    -2.6499     0.0093 H       
  39 H39           -2.1392    -0.1929     0.0318 H       
  40 H40           -2.0276     1.6360     0.0206 H       
  41 H41           -0.7010     3.9626     0.9169 H       
  42 H42           -0.7094     3.9723    -0.8630 H       
  43 H43           -3.1764     3.7221    -0.8527 H       
  44 H44           -3.1680     3.7124     0.9273 H       
  45 H45           -2.1710     5.9828     0.9349 H       
  46 H46           -2.1795     5.9925    -0.8450 H       
  47 H47          -10.8718     2.6302     1.5208 H       
  48 H48          -10.6031     2.0118     3.1817 H       
  49 H49          -10.1476     6.8759     2.7030 H       
  50 H50           -6.6074     3.8859     1.0187 H       
  51 H51           -6.2647     8.9445     0.5606 H       
  52 H52           -5.9526     8.3544     2.2270 H       
  53 H53           -8.0031     7.4171    -1.4680 H       
  54 H54           -7.3814     7.2225    -3.8446 H       
  55 H55           -5.1224     6.4658    -4.4649 H       
  56 H56           -3.4848     5.9041    -2.7246 H       
@<TRIPOS>BOND
   1    1    2 1
   2    1    8 2
   3    1    9 am
   4    2    3 ar
   5    2    7 ar
   6    3    4 ar
   7    3   36 1
   8    4    5 ar
   9    4   34 1
  10    5    6 ar
  11    5   37 1
  12    6    7 ar
  13    6   38 1
  14    7   39 1
  15    9   10 1
  16    9   40 1
  17   10   11 1
  18   10   41 1
  19   10   42 1
  20   11   12 1
  21   11   43 1
  22   11   44 1
  23   12   25 1
  24   12   45 1
  25   12   46 1
  26   13   14 1
  27   13   17 1
  28   14   15 1
  29   14   47 1
  30   14   48 1
  31   15   16 1
  32   16   17 ar
  33   16   18 ar
  34   17   21 ar
  35   18   19 ar
  36   18   49 1
  37   19   20 ar
  38   19   22 1
  39   20   21 ar
  40   20   23 1
  41   21   50 1
  42   22   24 1
  43   23   24 1
  44   23   26 1
  45   23   27 1
  46   24   51 1
  47   24   52 1
  48   25   26 am
  49   25   32 1
  50   26   33 2
  51   27   28 ar
  52   27   32 ar
  53   28   29 ar
  54   28   53 1
  55   29   30 ar
  56   29   54 1
  57   30   31 ar
  58   30   55 1
  59   31   32 ar
  60   31   56 1
  61   34   35 3

#	End of record

