#	Name: ASD01884467
#	Creating user name:	WinNT
#	Creation time:	15. 06. 2019 19:48

#	Modifying user name:	WinNT
#	Modification time:	15. 06. 2019 19:48

#	Program:	/corina/corina34_cracker 3.40 0067  02.08.2006

@<TRIPOS>MOLECULE
ASD01884467
  55   58    0    0    0
SMALL
NO_CHARGES


@<TRIPOS>ATOM
   1 C1            -0.0164     1.3576     0.0095 C.2     
   2 C2             0.0021    -0.0041     0.0020 C.2     
   3 C3             1.2440    -0.6751    -0.0134 C.2     
   4 C4             2.4024     0.0465    -0.0206 C.2     
   5 N5             2.3700     1.4024    -0.0126 N.am    
   6 C6             1.1986     2.0652     0.0017 C.2     
   7 C7             1.2897    -2.1583    -0.0214 C.ar    
   8 C8             3.6266     2.1554    -0.0201 C.3     
   9 O9             1.1911     3.2856     0.0092 O.2     
  10 C10            4.0442     2.4218    -1.4434 C.ar    
  11 C11            3.6202     3.5709    -2.0843 C.ar    
  12 C12            4.0028     3.8157    -3.3896 C.ar    
  13 C13            4.8103     2.9105    -4.0549 C.ar    
  14 C14            5.2343     1.7606    -3.4129 C.ar    
  15 C15            4.8557     1.5196    -2.1056 C.ar    
  16 C16            0.8124    -2.8774     1.0728 C.ar    
  17 C17            1.8048    -2.8351    -1.1254 C.ar    
  18 C18            1.8461    -4.2138    -1.1298 C.ar    
  19 C19            1.3747    -4.9272    -0.0363 C.ar    
  20 C20            0.8563    -4.2560     1.0626 C.ar    
  21 Cl21           5.2909     3.2170    -5.6946 Cl      
  22 O22            1.4158    -6.2855    -0.0439 O.3     
  23 C23            0.9144    -6.9563     1.1140 C.3     
  24 C24            1.0423    -8.4688     0.9227 C.3     
  25 N25            2.4631    -8.8344     0.8466 N.3     
  26 C26            2.6354   -10.2934     0.9011 C.3     
  27 C27            3.2337    -8.1786     1.9130 C.3     
  28 C28            4.7140    -8.5384     1.7608 C.3     
  29 O29            4.8585    -9.9610     1.7848 O.3     
  30 C30            4.1217   -10.6320     0.7590 C.3     
  31 H31           -0.9563     1.8895     0.0169 H       
  32 H32           -0.9217    -0.5635     0.0082 H       
  33 H33            3.3528    -0.4664    -0.0325 H       
  34 H34            3.4856     3.1027     0.5005 H       
  35 H35            4.4005     1.5759     0.4832 H       
  36 H36            2.9895     4.2773    -1.5650 H       
  37 H37            3.6712     4.7133    -3.8904 H       
  38 H38            5.8647     1.0536    -3.9317 H       
  39 H39            5.1866     0.6221    -1.6044 H       
  40 H40            0.4089    -2.3558     1.9281 H       
  41 H41            2.1710    -2.2806    -1.9768 H       
  42 H42            2.2451    -4.7388    -1.9851 H       
  43 H43            0.4903    -4.8137     1.9120 H       
  44 H44            1.4892    -6.6507     1.9883 H       
  45 H45           -0.1340    -6.6958     1.2593 H       
  46 H46            0.5798    -8.9821     1.7657 H       
  47 H47            0.5418    -8.7619    -0.0002 H       
  48 H48            2.2664   -10.6680     1.8560 H       
  49 H49            2.0772   -10.7565     0.0875 H       
  50 H50            3.1122    -7.0980     1.8380 H       
  51 H51            2.8743    -8.5194     2.8840 H       
  52 H52            5.0872    -8.1506     0.8129 H       
  53 H53            5.2812    -8.1010     2.5824 H       
  54 H54            4.2605   -11.7087     0.8561 H       
  55 H55            4.4776   -10.3051    -0.2180 H       
@<TRIPOS>BOND
   1    1    2 2
   2    1    6 1
   3    1   31 1
   4    2    3 1
   5    2   32 1
   6    3    4 2
   7    3    7 1
   8    4    5 1
   9    4   33 1
  10    5    6 am
  11    5    8 1
  12    6    9 2
  13    7   16 ar
  14    7   17 ar
  15    8   10 1
  16    8   34 1
  17    8   35 1
  18   10   11 ar
  19   10   15 ar
  20   11   12 ar
  21   11   36 1
  22   12   13 ar
  23   12   37 1
  24   13   14 ar
  25   13   21 1
  26   14   15 ar
  27   14   38 1
  28   15   39 1
  29   16   20 ar
  30   16   40 1
  31   17   18 ar
  32   17   41 1
  33   18   19 ar
  34   18   42 1
  35   19   20 ar
  36   19   22 1
  37   20   43 1
  38   22   23 1
  39   23   24 1
  40   23   44 1
  41   23   45 1
  42   24   25 1
  43   24   46 1
  44   24   47 1
  45   25   26 1
  46   25   27 1
  47   26   30 1
  48   26   48 1
  49   26   49 1
  50   27   28 1
  51   27   50 1
  52   27   51 1
  53   28   29 1
  54   28   52 1
  55   28   53 1
  56   29   30 1
  57   30   54 1
  58   30   55 1

#	End of record

