#	Name: ASD03091959
#	Creating user name:	WinNT
#	Creation time:	15. 06. 2019 20:31

#	Modifying user name:	WinNT
#	Modification time:	15. 06. 2019 20:31

#	Program:	/corina/corina34_cracker 3.40 0067  02.08.2006

@<TRIPOS>MOLECULE
ASD03091959
  59   63    0    0    0
SMALL
NO_CHARGES


@<TRIPOS>ATOM
   1 C1            -0.0170     1.3990     0.0097 C.ar    
   2 C2            -1.2302     2.0682     0.0306 C.ar    
   3 C3            -2.4113     1.3476     0.0434 C.ar    
   4 C4            -2.3921    -0.0379     0.0355 C.ar    
   5 C5            -1.1921    -0.7189     0.0148 C.ar    
   6 C6             0.0021    -0.0041     0.0020 C.ar    
   7 O7             1.1634     2.0662     0.0020 O.3     
   8 C8             2.2625     1.4579     0.6803 C.3     
   9 N9             2.4083     0.0563     0.2863 N.am    
  10 C10            1.3145    -0.6822    -0.0142 C.2     
  11 C11           -3.6890    -0.8053     0.0500 C.3     
  12 C12           -4.2048    -0.9467    -1.3589 C.ar    
  13 C13           -5.0429     0.0192    -1.8861 C.ar    
  14 C14           -3.8339    -2.0390    -2.1222 C.ar    
  15 C15           -4.3030    -2.1732    -3.4132 C.ar    
  16 C16           -5.1520    -1.2061    -3.9473 C.ar    
  17 C17           -5.5182    -0.1053    -3.1758 C.ar    
  18 O18            1.4088    -1.8632    -0.2876 O.2     
  19 C19            3.7407    -0.5489     0.2168 C.3     
  20 C20            3.8136    -1.7373     1.1792 C.3     
  21 C21           -5.6596    -1.3451    -5.3350 C.2     
  22 O22            5.0944    -2.3611     1.0674 O.3     
  23 C23            4.0061    -1.0400    -1.2096 C.3     
  24 C24            5.3682    -1.7395    -1.2518 C.3     
  25 C25            5.3783    -2.8819    -0.2327 C.3     
  26 O26            4.0127     0.0736    -2.1051 O.3     
  27 C27           -6.5149    -0.4441    -5.9986 C.2     
  28 C28           -6.7414    -0.9262    -7.2400 C.2     
  29 N29           -6.0613    -2.0858    -7.3674 N.pl3   
  30 N30           -5.3855    -2.3293    -6.1649 N.2     
  31 C31           -3.7303     2.0760     0.0668 C.3     
  32 F32           -1.2596     3.4188     0.0388 F       
  33 C33           -6.0320    -2.9390    -8.5580 C.3     
  34 H34           -1.1796    -1.7988     0.0090 H       
  35 H35            3.1777     1.9963     0.4343 H       
  36 H36            2.0941     1.5120     1.7559 H       
  37 H37           -3.5212    -1.7943     0.4764 H       
  38 H38           -4.4217    -0.2691     0.6531 H       
  39 H39           -5.3261     0.8722    -1.2872 H       
  40 H40           -3.1757    -2.7880    -1.7072 H       
  41 H41           -4.0122    -3.0261    -4.0086 H       
  42 H42           -6.1725     0.6495    -3.5865 H       
  43 H43            4.4917     0.1912     0.4930 H       
  44 H44            3.6678    -1.3870     2.2011 H       
  45 H45            3.0352    -2.4575     0.9271 H       
  46 H46            3.2264    -1.7422    -1.5045 H       
  47 H47            5.5409    -2.1407    -2.2505 H       
  48 H48            6.1528    -1.0242    -1.0049 H       
  49 H49            6.3597    -3.3561    -0.2280 H       
  50 H50            4.6204    -3.6170    -0.5033 H       
  51 H51            4.1755    -0.1648    -3.0280 H       
  52 H52           -6.9182     0.4697    -5.5879 H       
  53 H53           -7.3583    -0.4654    -7.9973 H       
  54 H54           -4.0632     2.2577    -0.9551 H       
  55 H55           -4.4712     1.4696     0.5879 H       
  56 H56           -3.6107     3.0277     0.5846 H       
  57 H57           -5.2087    -2.6334    -9.2037 H       
  58 H58           -5.8921    -3.9773    -8.2575 H       
  59 H59           -6.9734    -2.8408    -9.0986 H       
@<TRIPOS>BOND
   1    1    6 ar
   2    1    7 1
   3    1    2 ar
   4    2    3 ar
   5    2   32 1
   6    3    4 ar
   7    3   31 1
   8    4    5 ar
   9    4   11 1
  10    5    6 ar
  11    5   34 1
  12    6   10 1
  13    7    8 1
  14    8    9 1
  15    8   35 1
  16    8   36 1
  17    9   10 am
  18    9   19 1
  19   10   18 2
  20   11   12 1
  21   11   37 1
  22   11   38 1
  23   12   14 ar
  24   12   13 ar
  25   13   17 ar
  26   13   39 1
  27   14   15 ar
  28   14   40 1
  29   15   16 ar
  30   15   41 1
  31   16   17 ar
  32   16   21 1
  33   17   42 1
  34   19   23 1
  35   19   20 1
  36   19   43 1
  37   20   22 1
  38   20   44 1
  39   20   45 1
  40   21   30 2
  41   21   27 1
  42   22   25 1
  43   23   24 1
  44   23   26 1
  45   23   46 1
  46   24   25 1
  47   24   47 1
  48   24   48 1
  49   25   49 1
  50   25   50 1
  51   26   51 1
  52   27   28 2
  53   27   52 1
  54   28   29 1
  55   28   53 1
  56   29   30 1
  57   29   33 1
  58   31   54 1
  59   31   55 1
  60   31   56 1
  61   33   57 1
  62   33   58 1
  63   33   59 1

#	End of record

