#	Name: ASD01900289
#	Creating user name:	WinNT
#	Creation time:	15. 06. 2019 19:51

#	Modifying user name:	WinNT
#	Modification time:	15. 06. 2019 19:51

#	Program:	/corina/corina34_cracker 3.40 0067  02.08.2006

@<TRIPOS>MOLECULE
ASD01900289
  37   39    0    0    0
SMALL
NO_CHARGES


@<TRIPOS>ATOM
   1 O1            -0.0162     1.3449     0.0094 O.3     
   2 C2             0.0021    -0.0041     0.0020 C.2     
   3 C3             1.3061    -0.4089    -0.0126 C.2     
   4 C4             2.0901     0.7555    -0.0138 C.2     
   5 C5             1.2411     1.8066    -0.0001 C.2     
   6 C6            -1.1726    -0.8818     0.0090 C.2     
   7 O7            -1.0293    -2.0906     0.0015 O.2     
   8 N8            -2.4110    -0.3502     0.0236 N.am    
   9 N9            -5.6168    -1.9200     0.0459 N.am    
  10 C10           -4.8327    -0.7991     0.0447 C.2     
  11 C11           -3.5379    -1.1922     0.0302 C.2     
  12 C12           -3.5275    -2.6047     0.0222 C.2     
  13 C13           -4.8106    -3.0190     0.0320 C.2     
  14 S14           -7.2726    -1.9387     0.0676 S.o2    
  15 O15           -7.6011    -3.1846     0.6670 O.2     
  16 O16           -7.6288    -0.7108     0.6877 O.2     
  17 C17           -7.7484    -1.9294    -1.6828 C.3     
  18 C18           -9.2511    -1.9453    -1.7950 C.ar    
  19 C19           -9.9534    -0.7555    -1.8364 C.ar    
  20 C20          -11.3338    -0.7704    -1.9399 C.ar    
  21 C21          -12.0095    -1.9777    -2.0019 C.ar    
  22 C22          -11.3053    -3.1658    -1.9603 C.ar    
  23 C23           -9.9262    -3.1496    -1.8622 C.ar    
  24 F24          -12.0213     0.3919    -1.9800 F       
  25 H25            1.6648    -1.4275    -0.0210 H       
  26 H26            3.1691     0.8024    -0.0236 H       
  27 H27            1.5289     2.8476     0.0028 H       
  28 H28           -2.5253     0.6130     0.0295 H       
  29 H29           -5.1855     0.2216     0.0535 H       
  30 H30           -2.6521    -3.2370     0.0100 H       
  31 H31           -5.1429    -4.0466     0.0301 H       
  32 H32           -7.3579    -1.0309    -2.1607 H       
  33 H33           -7.3379    -2.8107    -2.1757 H       
  34 H34           -9.4255     0.1854    -1.7876 H       
  35 H35          -13.0864    -1.9905    -2.0823 H       
  36 H36          -11.8320    -4.1074    -2.0086 H       
  37 H37           -9.3763    -4.0787    -1.8343 H       
@<TRIPOS>BOND
   1    1    2 1
   2    1    5 1
   3    2    3 2
   4    2    6 1
   5    3    4 1
   6    3   25 1
   7    4    5 2
   8    4   26 1
   9    5   27 1
  10    6    7 2
  11    6    8 am
  12    8   11 1
  13    8   28 1
  14    9   10 1
  15    9   13 1
  16    9   14 am
  17   10   11 2
  18   10   29 1
  19   11   12 1
  20   12   13 2
  21   12   30 1
  22   13   31 1
  23   14   15 2
  24   14   16 2
  25   14   17 1
  26   17   18 1
  27   17   32 1
  28   17   33 1
  29   18   19 ar
  30   18   23 ar
  31   19   20 ar
  32   19   34 1
  33   20   21 ar
  34   20   24 1
  35   21   22 ar
  36   21   35 1
  37   22   23 ar
  38   22   36 1
  39   23   37 1

#	End of record

