#	Name: ASD00170362
#	Creating user name:	WinNT
#	Creation time:	15. 06. 2019 18:32

#	Modifying user name:	WinNT
#	Modification time:	15. 06. 2019 18:32

#	Program:	/corina/corina34_cracker 3.40 0067  02.08.2006

@<TRIPOS>MOLECULE
ASD00170362
  42   42    0    0    0
SMALL
NO_CHARGES


@<TRIPOS>ATOM
   1 C1             3.3404     1.4402    -3.6783 C.ar    
   2 C2             3.3724     0.0554    -3.6854 C.ar    
   3 C3             3.5044    -0.6458    -2.4982 C.ar    
   4 C4             3.6047     0.0319    -1.3014 C.ar    
   5 C5             3.5731     1.4275    -1.2880 C.ar    
   6 C6             3.4398     2.1288    -2.4877 C.ar    
   7 Cl7            3.2460    -0.8047    -5.1880 Cl      
   8 C8             5.0045     4.3551    -0.1111 C.2     
   9 C9             3.7613     3.6206    -0.0056 C.2     
  10 C10            3.6797     2.1601    -0.0078 C.2     
  11 O11            3.6997     1.5476     1.0444 O.2     
  12 C12            4.8385     5.6682    -0.0825 C.2     
  13 S13            3.1403     6.0819     0.0696 S.3     
  14 C14            2.6651     4.4453     0.0975 C.2     
  15 N15            1.3608     4.0079     0.2082 N.pl3   
  16 C16            5.9583     6.6730    -0.1685 C.3     
  17 C17            6.2128     7.0287    -1.6346 C.3     
  18 *18            7.3720     8.0689    -1.7237 Du      
  19 C19            6.3520     3.6917    -0.2346 C.3     
  20 H20            3.2418     1.9817    -4.6075 H       
  21 H21            3.5284    -1.7255    -2.5098 H       
  22 H22            3.7072    -0.5160    -0.3763 H       
  23 H23            3.4151     3.2085    -2.4835 H       
  24 H24            0.6457     4.6469     0.3544 H       
  25 H25            1.1591     3.0616     0.1397 H       
  26 H26            5.6819     7.5729     0.3810 H       
  27 H27            6.8632     6.2465     0.2643 H       
  28 H28            6.4892     6.1288    -2.1841 H       
  29 H29            5.3079     7.4552    -2.0674 H       
  30 H30            6.5862     3.5382    -1.2880 H       
  31 H31            7.1129     4.3277     0.2178 H       
  32 H32            6.3316     2.7295     0.2770 H       
  33 C33           15.0702    16.1948     6.9708 C.3     
  34 C34           15.0906    14.6879     6.9625 C.2     
  35 C35           13.9677    14.0191     6.9696 C.1     
  36 C36           12.8449    13.3502     6.9767 C.2     
  37 H37           16.0928    16.5720     6.9630 H       
  38 H38           14.5430    16.5558     6.0877 H       
  39 H39           14.5600    16.5463     7.8676 H       
  40 H40           16.0331    14.1607     6.9506 H       
  41 H41           12.3899    13.0689     7.9149 H       
  42 H42           12.3720    13.0789     6.0444 H       
@<TRIPOS>BOND
   1    1    2 ar
   2    1    6 ar
   3    1   20 1
   4    2    3 ar
   5    2    7 1
   6    3    4 ar
   7    3   21 1
   8    4    5 ar
   9    4   22 1
  10    5    6 ar
  11    5   10 1
  12    6   23 1
  13    8   19 1
  14    8    9 1
  15    8   12 2
  16    9   10 1
  17    9   14 2
  18   10   11 2
  19   12   13 1
  20   12   16 1
  21   13   14 1
  22   14   15 1
  23   15   24 1
  24   15   25 1
  25   16   17 1
  26   16   26 1
  27   16   27 1
  28   17   18 1
  29   17   28 1
  30   17   29 1
  31   19   30 1
  32   19   31 1
  33   19   32 1
  34   33   34 1
  35   33   37 1
  36   33   38 1
  37   33   39 1
  38   34   35 2
  39   34   40 1
  40   35   36 2
  41   36   41 1
  42   36   42 1

#	End of record

