#	Name: ASD01870154
#	Creating user name:	WinNT
#	Creation time:	15. 06. 2019 19:38

#	Modifying user name:	WinNT
#	Modification time:	15. 06. 2019 19:38

#	Program:	/corina/corina34_cracker 3.40 0067  02.08.2006

@<TRIPOS>MOLECULE
ASD01870154
  44   47    0    0    0
SMALL
NO_CHARGES


@<TRIPOS>ATOM
   1 C1            -0.1283     1.2459     0.2144 C.ar    
   2 C2            -0.1927    -0.1068    -0.1343 C.ar    
   3 C3             1.0546     1.7723     0.7427 C.ar    
   4 C4             2.1506     0.9578     0.9175 C.ar    
   5 C5             2.0825    -0.3872     0.5694 C.ar    
   6 C6             0.9076    -0.9147     0.0435 C.ar    
   7 N7             3.1974    -1.2107     0.7479 N.am    
   8 C8             3.2266    -2.2069     1.6418 C.2     
   9 C9             4.3222    -1.0718     0.0352 C.2     
  10 C10            5.3235    -2.1167     0.4769 C.3     
  11 C11            4.5731    -2.8942     1.5773 C.3     
  12 O12            4.5087    -0.2409    -0.8274 O.2     
  13 O13            2.3184    -2.5099     2.3853 O.2     
  14 C14            4.9755    -3.5937     0.2811 C.3     
  15 C15            3.8628    -3.9296    -0.7138 C.3     
  16 C16            6.1229    -4.6034     0.3515 C.3     
  17 C17           -1.3031     2.1166     0.0198 C.2     
  18 C18           -1.4398     3.3599     0.8067 C.ar    
  19 O19           -2.1589     1.8112    -0.7880 O.2     
  20 C20           -2.2434     4.4018     0.3383 C.ar    
  21 C21           -2.3664     5.5595     1.0778 C.ar    
  22 C22           -1.6959     5.6901     2.2813 C.ar    
  23 C23           -0.7706     3.4962     2.0249 C.ar    
  24 C24           -0.8981     4.6617     2.7514 C.ar    
  25 C25           -1.8349     6.9582     3.0835 C.3     
  26 H26           -1.1046    -0.5172    -0.5423 H       
  27 H27            1.1084     2.8166     1.0129 H       
  28 H28            3.0646     1.3638     1.3251 H       
  29 H29            0.8585    -1.9596    -0.2252 H       
  30 H30            6.3638    -1.8097     0.5848 H       
  31 H31            5.0463    -3.1737     2.5187 H       
  32 H32            3.3636    -3.0117    -1.0242 H       
  33 H33            4.2919    -4.4227    -1.5861 H       
  34 H34            3.1400    -4.5938    -0.2399 H       
  35 H35            5.8600    -5.4046     1.0421 H       
  36 H36            6.3004    -5.0214    -0.6394 H       
  37 H37            7.0259    -4.1034     0.7019 H       
  38 H38           -2.7669     4.3013    -0.6010 H       
  39 H39           -2.9872     6.3661     0.7167 H       
  40 H40           -0.1514     2.6925     2.3953 H       
  41 H41           -0.3776     4.7703     3.6915 H       
  42 H42           -2.6760     6.8634     3.7703 H       
  43 H43           -0.9204     7.1314     3.6508 H       
  44 H44           -2.0089     7.7972     2.4097 H       
@<TRIPOS>BOND
   1    1    2 ar
   2    1    3 ar
   3    1   17 1
   4    2    6 ar
   5    2   26 1
   6    3    4 ar
   7    3   27 1
   8    4    5 ar
   9    4   28 1
  10    5    6 ar
  11    5    7 1
  12    6   29 1
  13    7    8 am
  14    7    9 am
  15    8   13 2
  16    8   11 1
  17    9   12 2
  18    9   10 1
  19   10   11 1
  20   10   14 1
  21   10   30 1
  22   11   14 1
  23   11   31 1
  24   14   15 1
  25   14   16 1
  26   15   32 1
  27   15   33 1
  28   15   34 1
  29   16   35 1
  30   16   36 1
  31   16   37 1
  32   17   18 1
  33   17   19 2
  34   18   20 ar
  35   18   23 ar
  36   20   21 ar
  37   20   38 1
  38   21   22 ar
  39   21   39 1
  40   22   24 ar
  41   22   25 1
  42   23   24 ar
  43   23   40 1
  44   24   41 1
  45   25   42 1
  46   25   43 1
  47   25   44 1

#	End of record

