#	Name: ASD02610041
#	Creating user name:	WinNT
#	Creation time:	15. 06. 2019 20:25

#	Modifying user name:	WinNT
#	Modification time:	15. 06. 2019 20:25

#	Program:	/corina/corina34_cracker 3.40 0067  02.08.2006

@<TRIPOS>MOLECULE
ASD02610041
  98  101    0    0    0
SMALL
NO_CHARGES


@<TRIPOS>ATOM
   1 C1             0.0064     1.8059    -0.3594 C.3     
   2 C2             0.1054     0.2898    -0.3273 C.2     
   3 C3             1.5256    -0.0560    -0.3058 C.2     
   4 C4             2.3029     1.0175    -0.2745 C.2     
   5 C5             1.4486     2.2528    -0.1784 C.3     
   6 C6             3.8026     1.0695    -0.4374 C.3     
   7 C7             4.3632     2.2143     0.3866 C.3     
   8 C8             4.3260     3.5452    -0.3001 C.3     
   9 C9             2.9969     4.2367    -0.1773 C.3     
  10 C10            1.9025     3.4517    -0.9049 C.3     
  11 O11           -0.8237    -0.4904    -0.3204 O.2     
  12 C12            2.0462    -1.4701    -0.3169 C.3     
  13 O13           -0.8205     2.2886     0.7322 O.3     
  14 H14            1.5094     2.5357     0.8725 H       
  15 O15            0.7631     4.3276    -1.1118 O.3     
  16 C16            2.4370     3.0211    -2.2723 C.3     
  17 O17            4.6233     3.3523    -1.7082 O.3     
  18 O18            4.4557    -0.1147     0.0994 O.3     
  19 C19            5.7089     0.2201     0.4713 C.2     
  20 C20            5.7882     1.7206     0.7000 C.3     
  21 O21            3.6263     2.3142     1.6069 O.3     
  22 C22           -2.1305     2.4418     0.4827 C.2     
  23 C23           -3.0510     2.9388     1.5674 C.3     
  24 C24           -4.4794     3.0224     1.0254 C.3     
  25 C25           -5.4140     3.5271     2.1267 C.3     
  26 C26           -6.8424     3.6107     1.5848 C.3     
  27 C27           -7.7769     4.1153     2.6860 C.3     
  28 O28           -2.5716     2.1811    -0.6115 O.2     
  29 O29            6.7331     2.3152    -0.1921 O.3     
  30 C30           -9.2053     4.1989     2.1441 C.3     
  31 C31          -10.1399     4.7036     3.2453 C.3     
  32 C32            6.1548     2.0243     2.1540 C.3     
  33 C33            0.2050     4.8700    -0.0182 C.2     
  34 C34           -0.9639     5.8110    -0.1566 C.3     
  35 O35            0.6399     4.6039     1.0773 O.2     
  36 H36            4.0584     1.2064    -1.4880 H       
  37 O37            6.6270    -0.5543     0.6028 O.2     
  38 C38            5.2315     4.3642    -2.3468 C.2     
  39 C39            5.5715     4.2363    -3.8094 C.3     
  40 C40            6.2533     5.5194    -4.2886 C.3     
  41 C41            6.5934     5.3915    -5.7511 C.2     
  42 N42            7.2040     6.4076    -6.3924 N.am    
  43 C43            7.4252     6.3320    -7.7719 C.ar    
  44 O44            5.5063     5.3777    -1.7491 O.2     
  45 O45            6.3175     4.3742    -6.3512 O.2     
  46 C46            6.5035     5.6906    -8.5897 C.ar    
  47 C47            6.7210     5.6154    -9.9522 C.ar    
  48 C48            7.8552     6.1769   -10.5057 C.ar    
  49 C49            8.7816     6.8197    -9.6929 C.ar    
  50 C50            8.5626     6.9026    -8.3252 C.ar    
  51 C51            8.0887     6.0921   -11.9920 C.3     
  52 N52            9.9285     7.3868   -10.2531 N.pl3   
  53 H53           -0.3842     2.1456    -1.3186 H       
  54 H54            5.0949     4.1847     0.1333 H       
  55 H55            2.7345     4.3238     0.8770 H       
  56 H56            3.0707     5.2341    -0.6108 H       
  57 H57            1.2075    -2.1659    -0.3433 H       
  58 H58            2.6709    -1.6205    -1.1974 H       
  59 H59            2.6368    -1.6470     0.5821 H       
  60 H60            1.6143     2.6506    -2.8838 H       
  61 H61            2.9011     3.8748    -2.7663 H       
  62 H62            3.1766     2.2312    -2.1411 H       
  63 H63            3.9256     3.0252     2.1900 H       
  64 H64           -3.0226     2.2503     2.4119 H       
  65 H65           -2.7278     3.9274     1.8935 H       
  66 H66           -4.5079     3.7110     0.1810 H       
  67 H67           -4.8027     2.0339     0.6993 H       
  68 H68           -5.3855     2.8385     2.9712 H       
  69 H69           -5.0907     4.5156     2.4528 H       
  70 H70           -6.8708     4.2992     0.7403 H       
  71 H71           -7.1657     2.6221     1.2586 H       
  72 H72           -7.7485     3.4268     3.5305 H       
  73 H73           -7.4537     5.1039     3.0122 H       
  74 H74            7.6469     2.0385    -0.0387 H       
  75 H75           -9.2338     4.8875     1.2996 H       
  76 H76           -9.5286     3.2104     1.8179 H       
  77 H77          -11.1575     4.7631     2.8592 H       
  78 H78          -10.1114     4.0150     4.0898 H       
  79 H79           -9.8166     5.6921     3.5715 H       
  80 H80            5.4523     1.5211     2.8185 H       
  81 H81            7.1649     1.6680     2.3561 H       
  82 H82            6.1082     3.1000     2.3235 H       
  83 H83           -1.8935     5.2426    -0.1261 H       
  84 H84           -0.9506     6.5300     0.6625 H       
  85 H85           -0.8932     6.3411    -1.1064 H       
  86 H86            6.2450     3.3914    -3.9533 H       
  87 H87            4.6582     4.0745    -4.3820 H       
  88 H88            5.5798     6.3643    -4.1447 H       
  89 H89            7.1666     5.6812    -3.7160 H       
  90 H90            7.4902     7.1912    -5.8975 H       
  91 H91            5.6160     5.2500    -8.1600 H       
  92 H92            6.0028     5.1162   -10.5858 H       
  93 H93            9.2808     7.4015    -7.6914 H       
  94 H94            7.6426     6.9588   -12.4799 H       
  95 H95            9.1602     6.0746   -12.1911 H       
  96 H96            7.6321     5.1816   -12.3802 H       
  97 H97           10.0789     7.3323   -11.2098 H       
  98 H98           10.5746     7.8352    -9.6853 H       
@<TRIPOS>BOND
   1    1    2 1
   2    1    5 1
   3    1   13 1
   4    1   53 1
   5    2    3 1
   6    2   11 2
   7    3    4 2
   8    3   12 1
   9    4    5 1
  10    4    6 1
  11    5   10 1
  12    5   14 1
  13    6    7 1
  14    6   18 1
  15    6   36 1
  16    7   20 1
  17    7   21 1
  18    7    8 1
  19    8    9 1
  20    8   17 1
  21    8   54 1
  22    9   10 1
  23    9   55 1
  24    9   56 1
  25   10   15 1
  26   10   16 1
  27   12   57 1
  28   12   58 1
  29   12   59 1
  30   13   22 1
  31   15   33 1
  32   16   60 1
  33   16   61 1
  34   16   62 1
  35   17   38 1
  36   18   19 1
  37   19   20 1
  38   19   37 2
  39   20   29 1
  40   20   32 1
  41   21   63 1
  42   22   23 1
  43   22   28 2
  44   23   24 1
  45   23   64 1
  46   23   65 1
  47   24   25 1
  48   24   66 1
  49   24   67 1
  50   25   26 1
  51   25   68 1
  52   25   69 1
  53   26   27 1
  54   26   70 1
  55   26   71 1
  56   27   30 1
  57   27   72 1
  58   27   73 1
  59   29   74 1
  60   30   31 1
  61   30   75 1
  62   30   76 1
  63   31   77 1
  64   31   78 1
  65   31   79 1
  66   32   80 1
  67   32   81 1
  68   32   82 1
  69   33   34 1
  70   33   35 2
  71   34   83 1
  72   34   84 1
  73   34   85 1
  74   38   39 1
  75   38   44 2
  76   39   40 1
  77   39   86 1
  78   39   87 1
  79   40   41 1
  80   40   88 1
  81   40   89 1
  82   41   42 am
  83   41   45 2
  84   42   43 1
  85   42   90 1
  86   43   46 ar
  87   43   50 ar
  88   46   47 ar
  89   46   91 1
  90   47   48 ar
  91   47   92 1
  92   48   49 ar
  93   48   51 1
  94   49   50 ar
  95   49   52 1
  96   50   93 1
  97   51   94 1
  98   51   95 1
  99   51   96 1
 100   52   97 1
 101   52   98 1

#	End of record

