#	Name: ASD03200082
#	Creating user name:	WinNT
#	Creation time:	15. 06. 2019 20:34

#	Modifying user name:	WinNT
#	Modification time:	15. 06. 2019 20:34

#	Program:	/corina/corina34_cracker 3.40 0067  02.08.2006

@<TRIPOS>MOLECULE
ASD03200082
  20   20    0    0    0
SMALL
NO_CHARGES


@<TRIPOS>ATOM
   1 C1            -0.0184     1.5028     0.0103 C.2     
   2 C2             0.0021    -0.0041     0.0020 C.3     
   3 C3             3.7467     3.2049    -0.0165 C.3     
   4 C4             1.1148     2.2531     0.0035 C.2     
   5 C5            -1.1916     2.2345     0.0195 C.2     
   6 O6             0.0214    -0.4876     1.3466 O.3     
   7 S7             2.7779     1.6713    -0.0155 S.3     
   8 S8             0.5853     3.8897     0.0174 S.3     
   9 N9            -1.0728     3.5347     0.0261 N.2     
  10 S10           -2.7697     1.4507     0.0218 S.3     
  11 C11           -3.9214     2.8522     0.0348 C.3     
  12 H12           -0.8878    -0.3767    -0.5053 H       
  13 H13            0.8920    -0.3525    -0.5222 H       
  14 H14            4.8095     2.9633    -0.0280 H       
  15 H15            3.4978     3.7913    -0.9010 H       
  16 H16            3.5148     3.7817     0.8788 H       
  17 H17            0.0352    -1.4519     1.4176 H       
  18 H18           -4.9460     2.4804     0.0370 H       
  19 H19           -3.7513     3.4540     0.9275 H       
  20 H20           -3.7589     3.4642    -0.8524 H       
@<TRIPOS>BOND
   1    1    2 1
   2    1    4 2
   3    1    5 1
   4    2    6 1
   5    2   12 1
   6    2   13 1
   7    3    7 1
   8    3   14 1
   9    3   15 1
  10    3   16 1
  11    4    7 1
  12    4    8 1
  13    5    9 2
  14    5   10 1
  15    6   17 1
  16    8    9 1
  17   10   11 1
  18   11   18 1
  19   11   19 1
  20   11   20 1

#	End of record

