#	Name: ASD01900379
#	Creating user name:	WinNT
#	Creation time:	15. 06. 2019 19:51

#	Modifying user name:	WinNT
#	Modification time:	15. 06. 2019 19:51

#	Program:	/corina/corina34_cracker 3.40 0067  02.08.2006

@<TRIPOS>MOLECULE
ASD01900379
  26   28    0    0    0
SMALL
NO_CHARGES


@<TRIPOS>ATOM
   1 C1             0.0218     1.4063     0.3771 C.ar    
   2 C2             0.0579     0.0274     0.5381 C.ar    
   3 N3             1.1755    -0.6484     0.3970 N.ar    
   4 C4             2.3205    -0.0415     0.0939 C.ar    
   5 C5             2.3582     1.3547    -0.0840 C.ar    
   6 C6             1.1810     2.0877     0.0621 C.ar    
   7 C7             3.6895    -0.5154    -0.1226 C.2     
   8 N8             4.4317     0.5240    -0.3981 N.2     
   9 N9             3.6532     1.6859    -0.3838 N.pl3   
  10 N10            4.1242    -1.8425    -0.0478 N.pl3   
  11 C11            5.4836    -2.1399    -0.1683 C.ar    
  12 C12            6.4368    -1.2132     0.2333 C.ar    
  13 C13            5.8848    -3.3661    -0.6850 C.ar    
  14 C14            7.2292    -3.6584    -0.8028 C.ar    
  15 C15            8.1774    -2.7330    -0.4070 C.ar    
  16 C16            7.7822    -1.5116     0.1129 C.ar    
  17 F17            8.7110    -0.6096     0.4987 F       
  18 H18           -0.9085     1.9424     0.4932 H       
  19 H19           -0.8516    -0.5002     0.7847 H       
  20 H20            1.1758     3.1599    -0.0680 H       
  21 H21            3.9782     2.5829    -0.5587 H       
  22 H22            3.4817    -2.5564     0.0877 H       
  23 H23            6.1282    -0.2610     0.6387 H       
  24 H24            5.1455    -4.0902    -0.9939 H       
  25 H25            7.5406    -4.6113    -1.2044 H       
  26 H26            9.2282    -2.9647    -0.4997 H       
@<TRIPOS>BOND
   1    1    2 ar
   2    1    6 ar
   3    1   18 1
   4    2    3 ar
   5    2   19 1
   6    3    4 ar
   7    4    5 ar
   8    4    7 1
   9    5    6 ar
  10    5    9 1
  11    6   20 1
  12    7    8 2
  13    7   10 1
  14    8    9 1
  15    9   21 1
  16   10   11 1
  17   10   22 1
  18   11   12 ar
  19   11   13 ar
  20   12   16 ar
  21   12   23 1
  22   13   14 ar
  23   13   24 1
  24   14   15 ar
  25   14   25 1
  26   15   16 ar
  27   15   26 1
  28   16   17 1

#	End of record

