#	Name: ASD05430247
#	Creating user name:	WinNT
#	Creation time:	15. 06. 2019 21:00

#	Modifying user name:	WinNT
#	Modification time:	15. 06. 2019 21:00

#	Program:	/corina/corina34_cracker 3.40 0067  02.08.2006

@<TRIPOS>MOLECULE
ASD05430247
  62   67    0    0    0
SMALL
NO_CHARGES


@<TRIPOS>ATOM
   1 C1             0.2901     1.2325    -1.1943 C.ar    
   2 C2             0.1263     0.0559    -0.4641 C.ar    
   3 C3             1.1394    -0.3922     0.3738 C.ar    
   4 C4             2.3111     0.3237     0.4874 C.ar    
   5 C5             2.4825     1.5048    -0.2419 C.ar    
   6 C6             1.4627     1.9558    -1.0853 C.ar    
   7 C7             5.0006     0.1272    -0.1943 C.3     
   8 C8             4.9099     1.6268    -0.0124 C.2     
   9 C9             3.7335     2.2714    -0.1214 C.2     
  10 C10            6.0596    -0.2035    -1.2394 C.3     
  11 S11            7.7023     0.4518    -0.8473 S.o2    
  12 N12            7.4009     1.9277    -0.1725 N.am    
  13 C13            6.1562     2.3580     0.2892 C.2     
  14 N14            6.2883     3.4411     0.9874 N.2     
  15 N15           -1.0636    -0.6761    -0.5756 N.pl3   
  16 C16           -1.1735    -2.0209    -0.8181 C.2     
  17 C17           -2.4894    -2.3060    -0.8460 C.2     
  18 N18           -3.1687    -1.1703    -0.6272 N.2     
  19 C19           -2.3258    -0.1881    -0.4579 C.2     
  20 C20           -3.0942    -3.6658    -1.0831 C.3     
  21 C21            8.3336     3.0328     0.0632 C.3     
  22 O22            7.6549     3.8210     1.0636 O.3     
  23 C23            9.6478     2.5179     0.5914 C.ar    
  24 C24           -0.4656     2.8783    -2.7354 C.3     
  25 O25           -0.7014     1.6652    -2.0178 O.3     
  26 C26            8.5437     3.8459    -1.2157 C.3     
  27 C27           10.6183     2.0728    -0.2868 C.ar    
  28 C28           11.8237     1.6000     0.1964 C.ar    
  29 C29           11.0886     2.0240     2.4388 C.ar    
  30 C30            9.8840     2.4963     1.9533 C.ar    
  31 O31            8.3015    -0.2976     0.2008 O.2     
  32 O32            8.4181     0.7498    -2.0380 O.2     
  33 C33           12.0592     1.5726     1.5605 C.ar    
  34 F34           13.2372     1.1106     2.0340 F       
  35 C35            6.0767    -1.6821    -1.6548 C.3     
  36 O36            6.2127    -1.1819    -3.0011 O.3     
  37 C37            5.6155     0.0914    -2.6803 C.3     
  38 H38            1.0083    -1.3039     0.9378 H       
  39 H39            3.0971    -0.0269     1.1400 H       
  40 H40            1.5911     2.8671    -1.6505 H       
  41 H41            5.2704    -0.3372     0.7543 H       
  42 H42            4.0349    -0.2570    -0.5228 H       
  43 H43            3.7072     3.3511    -0.1205 H       
  44 H44           -0.3608    -2.7179    -0.9596 H       
  45 H45           -2.5882     0.8415    -0.2644 H       
  46 H46           -3.2215    -4.1780    -0.1294 H       
  47 H47           -4.0643    -3.5526    -1.5671 H       
  48 H48           -2.4342    -4.2502    -1.7242 H       
  49 H49           -0.2959     3.6910    -2.0292 H       
  50 H50            0.4120     2.7598    -3.3708 H       
  51 H51           -1.3332     3.1093    -3.3534 H       
  52 H52            7.5893     4.2553    -1.5469 H       
  53 H53            9.2396     4.6612    -1.0177 H       
  54 H54            8.9519     3.2007    -1.9935 H       
  55 H55           10.4343     2.0943    -1.3508 H       
  56 H56           12.5814     1.2517    -0.4898 H       
  57 H57           11.2729     2.0072     3.5028 H       
  58 H58            9.1268     2.8484     2.6382 H       
  59 H59            6.9483    -2.2308    -1.2977 H       
  60 H60            5.1373    -2.2033    -1.4703 H       
  61 H61            4.5338     0.1174    -2.8122 H       
  62 H62            6.1228     0.9434    -3.1329 H       
@<TRIPOS>BOND
   1    1    2 ar
   2    1    6 ar
   3    1   25 1
   4    2    3 ar
   5    2   15 1
   6    3    4 ar
   7    3   38 1
   8    4    5 ar
   9    4   39 1
  10    5    6 ar
  11    5    9 1
  12    6   40 1
  13    7    8 1
  14    7   10 1
  15    7   41 1
  16    7   42 1
  17    8    9 2
  18    8   13 1
  19    9   43 1
  20   10   11 1
  21   10   35 1
  22   10   37 1
  23   11   12 am
  24   11   31 2
  25   11   32 2
  26   12   13 1
  27   12   21 1
  28   13   14 2
  29   14   22 1
  30   15   16 1
  31   15   19 1
  32   16   17 2
  33   16   44 1
  34   17   18 1
  35   17   20 1
  36   18   19 2
  37   19   45 1
  38   20   46 1
  39   20   47 1
  40   20   48 1
  41   21   22 1
  42   21   23 1
  43   21   26 1
  44   23   27 ar
  45   23   30 ar
  46   24   25 1
  47   24   49 1
  48   24   50 1
  49   24   51 1
  50   26   52 1
  51   26   53 1
  52   26   54 1
  53   27   28 ar
  54   27   55 1
  55   28   33 ar
  56   28   56 1
  57   29   30 ar
  58   29   33 ar
  59   29   57 1
  60   30   58 1
  61   33   34 1
  62   35   36 1
  63   35   59 1
  64   35   60 1
  65   36   37 1
  66   37   61 1
  67   37   62 1

#	End of record

