#	Name: ASD08070024
#	Creating user name:	WinNT
#	Creation time:	15. 06. 2019 21:14

#	Modifying user name:	WinNT
#	Modification time:	15. 06. 2019 21:14

#	Program:	/corina/corina34_cracker 3.40 0067  02.08.2006

@<TRIPOS>MOLECULE
ASD08070024
  34   35    0    0    0
SMALL
NO_CHARGES


@<TRIPOS>ATOM
   1 C1            -0.0167     1.3837     0.0096 C.ar    
   2 C2             0.0021    -0.0041     0.0020 C.ar    
   3 C3             1.1961    -0.6925    -0.0131 C.ar    
   4 C4             2.3976     0.0063    -0.0208 C.ar    
   5 C5             2.3725     1.4136    -0.0130 C.ar    
   6 C6             1.1519     2.0921     0.0023 C.ar    
   7 O7             3.6887    -0.3779    -0.0351 O.3     
   8 C8             4.5090     0.6936    -0.0372 C.2     
   9 C9             3.7730     1.8349    -0.0240 C.2     
  10 C10            5.9775     0.6345    -0.0507 C.2     
  11 N11            6.6038    -0.5589    -0.0629 N.am    
  12 O12            6.6278     1.6627    -0.0510 O.2     
  13 C13            8.0676    -0.6179    -0.0764 C.3     
  14 C14            8.5299    -1.9480     0.5219 C.3     
  15 C15            8.5692    -0.5050    -1.5174 C.3     
  16 C16            8.2146     0.8753    -2.0742 C.3     
  17 C17            8.1361    -2.0070     1.9992 C.3     
  18 H18           -0.9613     1.9073     0.0169 H       
  19 H19           -0.9293    -0.5507     0.0083 H       
  20 H20            1.1981    -1.7725    -0.0185 H       
  21 H21            1.1316     3.1719     0.0079 H       
  22 H22            4.1463     2.8483    -0.0222 H       
  23 H23            6.0854    -1.3787    -0.0626 H       
  24 H24            8.4698     0.2054     0.5139 H       
  25 H25            8.0568    -2.7712    -0.0135 H       
  26 H26            9.6130    -2.0302     0.4311 H       
  27 H27            9.6510    -0.6377    -1.5370 H       
  28 H28            8.0976    -1.2751    -2.1277 H       
  29 H29            8.6862     1.6454    -1.4639 H       
  30 H30            8.5720     0.9557    -3.1008 H       
  31 H31            7.1329     1.0080    -2.0547 H       
  32 H32            7.0530    -1.9248     2.0900 H       
  33 H33            8.4655    -2.9546     2.4254 H       
  34 H34            8.6092    -1.1838     2.5345 H       
@<TRIPOS>BOND
   1    1    2 ar
   2    1    6 ar
   3    1   18 1
   4    2    3 ar
   5    2   19 1
   6    3    4 ar
   7    3   20 1
   8    4    5 ar
   9    4    7 1
  10    5    6 ar
  11    5    9 1
  12    6   21 1
  13    7    8 1
  14    8    9 2
  15    8   10 1
  16    9   22 1
  17   10   11 am
  18   10   12 2
  19   11   13 1
  20   11   23 1
  21   13   14 1
  22   13   15 1
  23   13   24 1
  24   14   17 1
  25   14   25 1
  26   14   26 1
  27   15   16 1
  28   15   27 1
  29   15   28 1
  30   16   29 1
  31   16   30 1
  32   16   31 1
  33   17   32 1
  34   17   33 1
  35   17   34 1

#	End of record

