#	Name: ASD01028282
#	Creating user name:	WinNT
#	Creation time:	15. 06. 2019 18:56

#	Modifying user name:	WinNT
#	Modification time:	15. 06. 2019 18:56

#	Program:	/corina/corina34_cracker 3.40 0067  02.08.2006

@<TRIPOS>MOLECULE
ASD01028282
  48   52    0    0    0
SMALL
NO_CHARGES


@<TRIPOS>ATOM
   1 C1            -0.0166     1.3719     0.0096 C.ar    
   2 C2             0.0021    -0.0041     0.0020 C.ar    
   3 C3             1.1750     2.1035     0.0021 C.ar    
   4 C4             2.3797     1.4715    -0.0128 C.ar    
   5 C5             2.4326     0.0695    -0.0208 C.ar    
   6 C6             1.2322    -0.6815    -0.0134 C.ar    
   7 C7             3.6676    -0.6170    -0.0367 C.ar    
   8 C8             3.6411    -2.0003    -0.0444 C.ar    
   9 C9             2.4221    -2.6660    -0.0364 C.ar    
  10 N10            1.2804    -2.0188    -0.0211 N.ar    
  11 O11            4.8427     0.0593    -0.0447 O.3     
  12 C12            6.0400    -0.7207    -0.0607 C.3     
  13 C13            7.2364     0.1957    -0.0676 C.2     
  14 N14            7.8872     0.6799     1.0271 N.pl3   
  15 C15            8.9052     1.4658     0.5412 C.2     
  16 N16            8.8256     1.4219    -0.7775 N.2     
  17 N17            7.8435     0.6671    -1.1250 N.2     
  18 C18            7.7092     0.5267     2.3651 C.2     
  19 C19            8.5408     1.1526     3.2482 C.2     
  20 C20            9.5979     1.9690     2.7716 C.2     
  21 C21            9.7765     2.1215     1.4357 C.2     
  22 C22            8.3392     0.9800     4.7002 C.2     
  23 O23           -1.2065     2.0271     0.0188 O.3     
  24 C24           -1.1606     3.4553     0.0263 C.3     
  25 O25            7.4328     0.2805     5.1093 O.2     
  26 N26            9.1601     1.5977     5.5726 N.am    
  27 C27            8.9600     1.4264     7.0138 C.3     
  28 C28           10.1743     1.6226     7.9237 C.3     
  29 C29            9.0626     2.6734     7.8944 C.3     
  30 H30           -0.9239    -0.5598     0.0082 H       
  31 H31            1.1387     3.1829     0.0079 H       
  32 H32            3.2932     2.0476    -0.0188 H       
  33 H33            4.5646    -2.5602    -0.0569 H       
  34 H34            2.4134    -3.7460    -0.0425 H       
  35 H35            6.0728    -1.3543     0.8256 H       
  36 H36            6.0552    -1.3447    -0.9543 H       
  37 H37            6.9049    -0.0935     2.7321 H       
  38 H38           10.2572     2.4656     3.4681 H       
  39 H39           10.5779     2.7407     1.0604 H       
  40 H40           -2.1761     3.8514     0.0333 H       
  41 H41           -0.6312     3.7971     0.9157 H       
  42 H42           -0.6396     3.8068    -0.8642 H       
  43 H43            9.8832     2.1558     5.2463 H       
  44 H44            8.2339     0.6657     7.3005 H       
  45 H45           10.2468     0.9912     8.8093 H       
  46 H46           11.1219     1.8791     7.4502 H       
  47 H47            9.2789     3.6212     7.4015 H       
  48 H48            8.4037     2.7333     8.7606 H       
@<TRIPOS>BOND
   1    1    2 ar
   2    1    3 ar
   3    1   23 1
   4    2    6 ar
   5    2   30 1
   6    3    4 ar
   7    3   31 1
   8    4    5 ar
   9    4   32 1
  10    5    6 ar
  11    5    7 ar
  12    6   10 ar
  13    7    8 ar
  14    7   11 1
  15    8    9 ar
  16    8   33 1
  17    9   10 ar
  18    9   34 1
  19   11   12 1
  20   12   13 1
  21   12   35 1
  22   12   36 1
  23   13   14 1
  24   13   17 2
  25   14   15 1
  26   14   18 1
  27   15   16 2
  28   15   21 1
  29   16   17 1
  30   18   19 2
  31   18   37 1
  32   19   20 1
  33   19   22 1
  34   20   21 2
  35   20   38 1
  36   21   39 1
  37   22   25 2
  38   22   26 am
  39   23   24 1
  40   24   40 1
  41   24   41 1
  42   24   42 1
  43   26   27 1
  44   26   43 1
  45   27   28 1
  46   27   29 1
  47   27   44 1
  48   28   29 1
  49   28   45 1
  50   28   46 1
  51   29   47 1
  52   29   48 1

#	End of record

