#	Name: ASD01911469
#	Creating user name:	WinNT
#	Creation time:	15. 06. 2019 19:57

#	Modifying user name:	WinNT
#	Modification time:	15. 06. 2019 19:57

#	Program:	/corina/corina34_cracker 3.40 0067  02.08.2006

@<TRIPOS>MOLECULE
ASD01911469
  25   25    0    0    0
SMALL
NO_CHARGES


@<TRIPOS>ATOM
   1 C1            -0.0167     1.3804     0.0096 C.ar    
   2 C2             0.0021    -0.0041     0.0020 C.ar    
   3 C3             1.2174    -0.6644    -0.0131 C.ar    
   4 C4             2.3890     0.1017    -0.0202 C.ar    
   5 C5             2.2853     1.4926    -0.0117 C.ar    
   6 N6             1.1046     2.0764     0.0027 N.ar    
   7 C7             3.6730    -0.5323    -0.0353 C.1     
   8 C8             4.7256    -1.0520    -0.0478 C.1     
   9 Si9            6.4291    -1.8932    -0.0679 Si      
  10 C10            7.7636    -0.5931    -0.0738 C.3     
  11 C11            6.6113    -2.9632     1.4462 C.3     
  12 C12            6.5829    -2.9479    -1.5959 C.3     
  13 Br13          -1.6754     2.2884     0.0224 Br      
  14 H14           -0.9224    -0.5624     0.0082 H       
  15 H15            1.2612    -1.7435    -0.0190 H       
  16 H16            3.1809     2.0962    -0.0170 H       
  17 H17            7.6736     0.0239     0.8202 H       
  18 H18            8.7409    -1.0757    -0.0853 H       
  19 H19            7.6570     0.0329    -0.9596 H       
  20 H20            5.8305    -3.7238     1.4497 H       
  21 H21            7.5886    -3.4458     1.4347 H       
  22 H22            6.5213    -2.3461     2.3402 H       
  23 H23            6.4764    -2.3218    -2.4818 H       
  24 H24            7.5602    -3.4304    -1.6074 H       
  25 H25            5.8022    -3.7085    -1.5924 H       
@<TRIPOS>BOND
   1    1    2 ar
   2    1    6 ar
   3    1   13 1
   4    2    3 ar
   5    2   14 1
   6    3    4 ar
   7    3   15 1
   8    4    5 ar
   9    4    7 1
  10    5    6 ar
  11    5   16 1
  12    7    8 3
  13    8    9 1
  14    9   10 1
  15    9   11 1
  16    9   12 1
  17   10   17 1
  18   10   18 1
  19   10   19 1
  20   11   20 1
  21   11   21 1
  22   11   22 1
  23   12   23 1
  24   12   24 1
  25   12   25 1

#	End of record

