#	Name: ASD02448055
#	Creating user name:	WinNT
#	Creation time:	15. 06. 2019 20:21

#	Modifying user name:	WinNT
#	Modification time:	15. 06. 2019 20:21

#	Program:	/corina/corina34_cracker 3.40 0067  02.08.2006

@<TRIPOS>MOLECULE
ASD02448055
  83   88    0    0    0
SMALL
NO_CHARGES


@<TRIPOS>ATOM
   1 C1            -0.0491    -6.5821     3.1369 C.ar    
   2 C2             0.4376    -5.4509     2.5108 C.ar    
   3 C3             0.3486    -5.3264     1.1302 C.ar    
   4 C4            -0.2292    -6.3393     0.3797 C.ar    
   5 C5            -0.7171    -7.4752     1.0112 C.ar    
   6 C6            -0.6254    -7.5934     2.3925 C.ar    
   7 N7            -1.3002    -8.4974     0.2590 N.am    
   8 C8            -1.4121    -9.9206     0.6041 C.3     
   9 C9            -2.1085   -10.6879    -0.4732 C.2     
  10 N10           -2.4918    -9.9540    -1.5273 N.am    
  11 S11           -2.0355    -8.3803    -1.2340 S.o2    
  12 O12           -2.3105   -11.8815    -0.3994 O.2     
  13 O13           -3.2260    -7.6231    -1.0649 O.2     
  14 O14           -1.0168    -8.0576    -2.1707 O.2     
  15 N15            0.8420    -4.1774     0.4961 N.pl3   
  16 C16            1.7728    -4.1403    -0.5082 C.2     
  17 C17            0.4815    -2.8939     0.7594 C.2     
  18 N18            1.1494    -2.0983    -0.0285 N.2     
  19 C19            1.9551    -2.8316    -0.8232 C.2     
  20 C20            2.8775    -2.3026    -1.8581 C.ar    
  21 C21            2.9665    -0.9273    -2.0796 C.ar    
  22 C22            3.6615    -3.1764    -2.6077 C.ar    
  23 C23            4.5183    -2.6803    -3.5694 C.ar    
  24 C24            4.6004    -1.3152    -3.7904 C.ar    
  25 C25            3.8273    -0.4405    -3.0447 C.ar    
  26 C26           -0.5264    -2.4610     1.7928 C.3     
  27 C27           -1.8703    -2.2751     1.1367 C.ar    
  28 C28           -2.7142    -3.3592     0.9755 C.ar    
  29 C29           -2.2578    -1.0201     0.7032 C.ar    
  30 C30           -3.4877    -0.8441     0.1021 C.ar    
  31 C31           -4.3395    -1.9336    -0.0677 C.ar    
  32 C32           -3.9463    -3.1947     0.3757 C.ar    
  33 C33           -5.6633    -1.7505    -0.7127 C.ar    
  34 C34           -6.5153    -2.8401    -0.8825 C.ar    
  35 C35           -6.0613    -0.4875    -1.1457 C.ar    
  36 C36           -7.2937    -0.3228    -1.7452 C.ar    
  37 C37           -8.1331    -1.4087    -1.9159 C.ar    
  38 C38           -7.7452    -2.6641    -1.4831 C.ar    
  39 F39            2.2125    -0.0742    -1.3524 F       
  40 F40            5.4411    -0.8352    -4.7328 F       
  41 S41           -8.8206    -4.0420    -1.7052 S.o2    
  42 C42           -8.3691    -4.7114    -3.3296 C.3     
  43 C43           -9.2438    -5.9274    -3.6412 C.3     
  44 C44           -8.8630    -6.4919    -5.0113 C.3     
  45 C45           -7.3918    -6.9118    -4.9989 C.3     
  46 C46           -9.7378    -7.7079    -5.3229 C.3     
  47 C47           -9.0786    -5.4207    -6.0822 C.3     
  48 O48           -8.4501    -4.9457    -0.6730 O.2     
  49 O49          -10.1204    -3.4692    -1.7457 O.2     
  50 H50            0.0251    -6.6782     4.2100 H       
  51 H51            0.8875    -4.6622     3.0955 H       
  52 H52           -0.2998    -6.2444    -0.6938 H       
  53 H53           -1.0047    -8.4768     2.8847 H       
  54 H54           -0.4133   -10.3329     0.7474 H       
  55 H55           -1.9738   -10.0196     1.5330 H       
  56 H56           -2.9536   -10.2799    -2.3157 H       
  57 H57            2.2664    -4.9873    -0.9614 H       
  58 H58            3.5994    -4.2410    -2.4364 H       
  59 H59            5.1263    -3.3577    -4.1507 H       
  60 H60            3.8946     0.6230    -3.2205 H       
  61 H61           -0.6027    -3.2236     2.5677 H       
  62 H62           -0.2070    -1.5195     2.2397 H       
  63 H63           -2.4082    -4.3363     1.3192 H       
  64 H64           -1.5969    -0.1762     0.8356 H       
  65 H65           -3.7894     0.1363    -0.2357 H       
  66 H66           -4.6025    -4.0426     0.2463 H       
  67 H67           -6.2134    -3.8206    -0.5450 H       
  68 H68           -5.4069     0.3613    -1.0122 H       
  69 H69           -7.6033     0.6558    -2.0812 H       
  70 H70           -9.0968    -1.2752    -2.3848 H       
  71 H71           -8.5227    -3.9482    -4.0925 H       
  72 H72           -7.3210    -5.0105    -3.3207 H       
  73 H73           -9.0903    -6.6905    -2.8783 H       
  74 H74          -10.2920    -5.6282    -3.6501 H       
  75 H75           -7.2382    -7.6750    -4.2359 H       
  76 H76           -7.1205    -7.3140    -5.9749 H       
  77 H77           -6.7686    -6.0455    -4.7769 H       
  78 H78          -10.7859    -7.4088    -5.3318 H       
  79 H79           -9.4665    -8.1101    -6.2990 H       
  80 H80           -9.5842    -8.4711    -4.5600 H       
  81 H81           -8.4554    -4.5544    -5.8602 H       
  82 H82           -8.8073    -5.8229    -7.0583 H       
  83 H83          -10.1267    -5.1216    -6.0911 H       
@<TRIPOS>BOND
   1    1    2 ar
   2    1    6 ar
   3    1   50 1
   4    2    3 ar
   5    2   51 1
   6    3    4 ar
   7    3   15 1
   8    4    5 ar
   9    4   52 1
  10    5    6 ar
  11    5    7 1
  12    6   53 1
  13    7    8 1
  14    7   11 am
  15    8    9 1
  16    8   54 1
  17    8   55 1
  18    9   10 am
  19    9   12 2
  20   10   11 am
  21   10   56 1
  22   11   13 2
  23   11   14 2
  24   15   16 1
  25   15   17 1
  26   16   19 2
  27   16   57 1
  28   17   18 2
  29   17   26 1
  30   18   19 1
  31   19   20 1
  32   20   21 ar
  33   20   22 ar
  34   21   39 1
  35   21   25 ar
  36   22   23 ar
  37   22   58 1
  38   23   24 ar
  39   23   59 1
  40   24   25 ar
  41   24   40 1
  42   25   60 1
  43   26   27 1
  44   26   61 1
  45   26   62 1
  46   27   28 ar
  47   27   29 ar
  48   28   32 ar
  49   28   63 1
  50   29   30 ar
  51   29   64 1
  52   30   31 ar
  53   30   65 1
  54   31   32 ar
  55   31   33 1
  56   32   66 1
  57   33   34 ar
  58   33   35 ar
  59   34   38 ar
  60   34   67 1
  61   35   36 ar
  62   35   68 1
  63   36   37 ar
  64   36   69 1
  65   37   38 ar
  66   37   70 1
  67   38   41 1
  68   41   42 1
  69   41   48 2
  70   41   49 2
  71   42   43 1
  72   42   71 1
  73   42   72 1
  74   43   44 1
  75   43   73 1
  76   43   74 1
  77   44   45 1
  78   44   46 1
  79   44   47 1
  80   45   75 1
  81   45   76 1
  82   45   77 1
  83   46   78 1
  84   46   79 1
  85   46   80 1
  86   47   81 1
  87   47   82 1
  88   47   83 1

#	End of record

