#	Name: ASD01916369
#	Creating user name:	WinNT
#	Creation time:	15. 06. 2019 20:07

#	Modifying user name:	WinNT
#	Modification time:	15. 06. 2019 20:07

#	Program:	/corina/corina34_cracker 3.40 0067  02.08.2006

@<TRIPOS>MOLECULE
ASD01916369
  46   48    0    0    0
SMALL
NO_CHARGES


@<TRIPOS>ATOM
   1 C1            -0.0187     1.5301     0.0105 C.3     
   2 C2             0.0021    -0.0041     0.0020 C.3     
   3 C3             0.6280    -0.4978    -1.3002 C.3     
   4 C4             1.9846     0.1112    -1.5150 C.ar    
   5 C5             2.3577     1.3084    -0.8941 C.ar    
   6 C6             1.4208     2.0041    -0.0007 C.2     
   7 N7             2.8572    -0.4870    -2.3076 N.ar    
   8 C8             4.0593     0.0356    -2.5125 C.ar    
   9 N9             4.4456     1.1705    -1.9426 N.ar    
  10 C10            3.6352     1.8306    -1.1357 C.ar    
  11 N11            4.9373    -0.6225    -3.3465 N.pl3   
  12 C12            6.2712    -0.0678    -3.5904 C.3     
  13 O13            1.7861     2.9227     0.7020 O.2     
  14 C14            7.2272    -1.1945    -3.9873 C.3     
  15 C15            6.7162    -1.8724    -5.2601 C.3     
  16 C16            6.6420    -0.8444    -6.3909 C.3     
  17 C17            5.6860     0.2823    -5.9940 C.3     
  18 C18            6.1970     0.9602    -4.7212 C.3     
  19 C19            0.7648    -2.0207    -1.2452 C.3     
  20 C20           -0.2828    -0.1192    -2.4698 C.3     
  21 C21            7.6723    -2.9990    -5.6570 C.3     
  22 H22           -0.5368     1.8983    -0.8751 H       
  23 H23           -0.5197     1.8887     0.9096 H       
  24 H24            0.5894    -0.3641     0.8468 H       
  25 H25           -1.0174    -0.3817     0.0811 H       
  26 H26            3.9500     2.7541    -0.6727 H       
  27 H27            4.6722    -1.4529    -3.7719 H       
  28 H28            6.6353     0.4151    -2.6836 H       
  29 H29            8.2196    -0.7818    -4.1688 H       
  30 H30            7.2801    -1.9268    -3.1817 H       
  31 H31            5.7238    -2.2850    -5.0786 H       
  32 H32            7.6344    -0.4317    -6.5724 H       
  33 H33            6.2780    -1.3273    -7.2977 H       
  34 H34            5.6331     1.0146    -6.7996 H       
  35 H35            4.6936    -0.1304    -5.8125 H       
  36 H36            5.5159     1.7628    -4.4384 H       
  37 H37            7.1894     1.3729    -4.9027 H       
  38 H38           -0.2204    -2.4697    -1.1191 H       
  39 H39            1.2113    -2.3791    -2.1727 H       
  40 H40            1.4009    -2.2983    -0.4048 H       
  41 H41           -0.3965     0.9643    -2.5058 H       
  42 H42            0.1591    -0.4693    -3.4026 H       
  43 H43           -1.2600    -0.5828    -2.3342 H       
  44 H44            7.7251    -3.7314    -4.8514 H       
  45 H45            7.3082    -3.4820    -6.5638 H       
  46 H46            8.6647    -2.5863    -5.8385 H       
@<TRIPOS>BOND
   1    1    2 1
   2    1    6 1
   3    1   22 1
   4    1   23 1
   5    2    3 1
   6    2   24 1
   7    2   25 1
   8    3    4 1
   9    3   19 1
  10    3   20 1
  11    4    5 ar
  12    4    7 ar
  13    5    6 1
  14    5   10 ar
  15    6   13 2
  16    7    8 ar
  17    8    9 ar
  18    8   11 1
  19    9   10 ar
  20   10   26 1
  21   11   12 1
  22   11   27 1
  23   12   14 1
  24   12   18 1
  25   12   28 1
  26   14   15 1
  27   14   29 1
  28   14   30 1
  29   15   16 1
  30   15   21 1
  31   15   31 1
  32   16   17 1
  33   16   32 1
  34   16   33 1
  35   17   18 1
  36   17   34 1
  37   17   35 1
  38   18   36 1
  39   18   37 1
  40   19   38 1
  41   19   39 1
  42   19   40 1
  43   20   41 1
  44   20   42 1
  45   20   43 1
  46   21   44 1
  47   21   45 1
  48   21   46 1

#	End of record

