#	Name: ASD01911496
#	Creating user name:	WinNT
#	Creation time:	15. 06. 2019 19:57

#	Modifying user name:	WinNT
#	Modification time:	15. 06. 2019 19:57

#	Program:	/corina/corina34_cracker 3.40 0067  02.08.2006

@<TRIPOS>MOLECULE
ASD01911496
  36   37    0    0    0
SMALL
NO_CHARGES


@<TRIPOS>ATOM
   1 C1            -0.0184     1.5028     0.0103 C.3     
   2 C2             0.0021    -0.0041     0.0020 C.ar    
   3 N3            -0.0781    -0.6631     1.1412 N.ar    
   4 C4            -0.0640    -1.9813     1.1823 C.ar    
   5 C5             0.0368    -2.7236     0.0212 C.ar    
   6 C6             0.1230    -2.0654    -1.1963 C.ar    
   7 C7             0.0990    -0.6794    -1.2002 C.ar    
   8 Si8            0.0571    -4.5902     0.0908 Si      
   9 C9             1.4338     2.0358    -0.0007 C.3     
  10 C10           -0.7678     2.0049    -1.2173 C.2     
  11 O11           -0.2460     2.0642    -2.4262 O.3     
  12 C12            0.4257     3.3329    -2.7894 C.3     
  13 C13            1.6660     3.4453    -2.0001 C.3     
  14 C14            1.4524     3.4576    -0.4952 C.3     
  15 O15           -1.9101     2.3715    -1.0739 O.2     
  16 C16            0.7633     3.3283    -4.2817 C.3     
  17 C17           -0.4955     4.5126    -2.4725 C.3     
  18 H18           -0.5253     1.8526     0.9096 H       
  19 H19           -0.1316    -2.4863     2.1346 H       
  20 H20            0.2030    -2.6195    -2.1199 H       
  21 H21            0.1637    -0.1339    -2.1301 H       
  22 H22           -1.3332    -5.1041     0.0005 H       
  23 H23            0.8551    -5.1192    -1.0444 H       
  24 H24            0.6656    -5.0312     1.3716 H       
  25 H25            1.8410     1.9984     1.0097 H       
  26 H26            2.0424     1.4155    -0.6586 H       
  27 H27            2.3132     2.6049    -2.2511 H       
  28 H28            2.1749     4.3663    -2.2846 H       
  29 H29            0.5015     3.9378    -0.2645 H       
  30 H30            2.2658     4.0012    -0.0146 H       
  31 H31           -0.1541     3.2261    -4.8614 H       
  32 H32            1.2574     4.2634    -4.5453 H       
  33 H33            1.4270     2.4921    -4.5015 H       
  34 H34           -0.7259     4.5177    -1.4071 H       
  35 H35            0.0021     5.4445    -2.7410 H       
  36 H36           -1.4190     4.4162    -3.0435 H       
@<TRIPOS>BOND
   1    1    2 1
   2    1    9 1
   3    1   10 1
   4    1   18 1
   5    2    3 ar
   6    2    7 ar
   7    3    4 ar
   8    4    5 ar
   9    4   19 1
  10    5    6 ar
  11    5    8 1
  12    6    7 ar
  13    6   20 1
  14    7   21 1
  15    8   22 1
  16    8   23 1
  17    8   24 1
  18    9   14 1
  19    9   25 1
  20    9   26 1
  21   10   11 1
  22   10   15 2
  23   11   12 1
  24   12   13 1
  25   12   16 1
  26   12   17 1
  27   13   14 1
  28   13   27 1
  29   13   28 1
  30   14   29 1
  31   14   30 1
  32   16   31 1
  33   16   32 1
  34   16   33 1
  35   17   34 1
  36   17   35 1
  37   17   36 1

#	End of record

