#	Name: ASD04930010
#	Creating user name:	WinNT
#	Creation time:	15. 06. 2019 20:56

#	Modifying user name:	WinNT
#	Modification time:	15. 06. 2019 20:56

#	Program:	/corina/corina34_cracker 3.40 0067  02.08.2006

@<TRIPOS>MOLECULE
ASD04930010
  60   61    0    0    0
SMALL
NO_CHARGES


@<TRIPOS>ATOM
   1 C1             1.2416    -0.9321     2.2158 C.ar    
   2 C2             0.5768    -1.0598     1.0059 C.ar    
   3 C3             1.1209    -0.5499    -0.1538 C.ar    
   4 C4             2.3497     0.1014    -0.1208 C.ar    
   5 C5             3.0273     0.2335     1.1049 C.ar    
   6 C6             2.4612    -0.2902     2.2757 C.ar    
   7 N7             2.8958     0.6114    -1.2814 N.am    
   8 C8             4.0804     1.2456    -1.2859 C.2     
   9 C9             4.8425     1.4211    -0.0507 C.2     
  10 C10            4.3217     0.9186     1.1451 C.2     
  11 O11            4.9940     1.0605     2.3065 O.3     
  12 O12            4.5255     1.6798    -2.3334 O.2     
  13 C13            6.1355     2.1154    -0.0660 C.2     
  14 N14            7.2806     1.4090     0.0133 N.am    
  15 O15            6.1737     3.3287    -0.1504 O.2     
  16 N16            8.5151     2.0597    -0.1113 N.am    
  17 C17            9.6602     1.3533    -0.0320 C.2     
  18 C18           10.9881     2.0532    -0.1660 C.3     
  19 O19            9.6220     0.1545     0.1473 O.2     
  20 C20           12.1188     1.0304    -0.0393 C.3     
  21 C21           13.4669     1.7409    -0.1753 C.3     
  22 C22           14.5977     0.7181    -0.0486 C.3     
  23 C23           15.9458     1.4287    -0.1847 C.3     
  24 C24           17.0765     0.4058    -0.0579 C.3     
  25 C25           18.4247     1.1164    -0.1940 C.3     
  26 C26           19.5554     0.0935    -0.0672 C.3     
  27 C27           20.9035     0.8041    -0.2033 C.3     
  28 C28           22.0343    -0.2188    -0.0766 C.3     
  29 C29           23.3824     0.4918    -0.2126 C.3     
  30 F30            3.1063    -0.1666     3.4563 F       
  31 H31            0.8006    -1.3332     3.1164 H       
  32 H32           -0.3775    -1.5643     0.9714 H       
  33 H33            0.5924    -0.6567    -1.0896 H       
  34 H34            2.4118     0.5089    -2.1157 H       
  35 H35            5.8708     1.4561     2.2076 H       
  36 H36            7.2501     0.4502     0.1567 H       
  37 H37            8.5457     3.0185    -0.2547 H       
  38 H38           11.0457     2.5398    -1.1397 H       
  39 H39           11.0853     2.8017     0.6204 H       
  40 H40           12.0612     0.5439     0.9344 H       
  41 H41           12.0216     0.2819    -0.8257 H       
  42 H42           13.5246     2.2275    -1.1490 H       
  43 H43           13.5642     2.4894     0.6111 H       
  44 H44           14.5401     0.2316     0.9251 H       
  45 H45           14.5004    -0.0304    -0.8350 H       
  46 H46           16.0034     1.9152    -1.1584 H       
  47 H47           16.0431     2.1771     0.6018 H       
  48 H48           17.0189    -0.0807     0.9158 H       
  49 H49           16.9793    -0.3426    -0.8444 H       
  50 H50           18.4823     1.6029    -1.1677 H       
  51 H51           18.5219     1.8648     0.5925 H       
  52 H52           19.4978    -0.3930     0.9065 H       
  53 H53           19.4582    -0.6549    -0.8537 H       
  54 H54           20.9612     1.2906    -1.1770 H       
  55 H55           21.0008     1.5525     0.5831 H       
  56 H56           21.9767    -0.7053     0.8971 H       
  57 H57           21.9370    -0.9672    -0.8630 H       
  58 H58           23.4797     1.2402     0.5738 H       
  59 H59           24.1880    -0.2369    -0.1223 H       
  60 H60           23.4400     0.9783    -1.1863 H       
@<TRIPOS>BOND
   1    1    2 ar
   2    1    6 ar
   3    1   31 1
   4    2    3 ar
   5    2   32 1
   6    3    4 ar
   7    3   33 1
   8    4    5 ar
   9    4    7 1
  10    5    6 ar
  11    5   10 1
  12    6   30 1
  13    7    8 am
  14    7   34 1
  15    8    9 1
  16    8   12 2
  17    9   10 2
  18    9   13 1
  19   10   11 1
  20   11   35 1
  21   13   14 am
  22   13   15 2
  23   14   16 1
  24   14   36 1
  25   16   17 am
  26   16   37 1
  27   17   18 1
  28   17   19 2
  29   18   20 1
  30   18   38 1
  31   18   39 1
  32   20   21 1
  33   20   40 1
  34   20   41 1
  35   21   22 1
  36   21   42 1
  37   21   43 1
  38   22   23 1
  39   22   44 1
  40   22   45 1
  41   23   24 1
  42   23   46 1
  43   23   47 1
  44   24   25 1
  45   24   48 1
  46   24   49 1
  47   25   26 1
  48   25   50 1
  49   25   51 1
  50   26   27 1
  51   26   52 1
  52   26   53 1
  53   27   28 1
  54   27   54 1
  55   27   55 1
  56   28   29 1
  57   28   56 1
  58   28   57 1
  59   29   58 1
  60   29   59 1
  61   29   60 1

#	End of record

