#	Name: ASD03091777
#	Creating user name:	WinNT
#	Creation time:	15. 06. 2019 20:31

#	Modifying user name:	WinNT
#	Modification time:	15. 06. 2019 20:31

#	Program:	/corina/corina34_cracker 3.40 0067  02.08.2006

@<TRIPOS>MOLECULE
ASD03091777
  39   42    0    0    0
SMALL
NO_CHARGES


@<TRIPOS>ATOM
   1 C1             0.0279     1.6720    -0.0396 C.3     
   2 C2             0.0001     0.1434    -0.0995 C.3     
   3 N3             0.6625    -0.4066     1.0901 N.3     
   4 C4            -0.0378    -0.0093     2.3182 C.3     
   5 C5            -0.0118     1.5147     2.4521 C.3     
   6 C6             1.4425     1.9927     2.5218 C.3     
   7 N7             2.1023     1.6847     1.2457 N.am    
   8 C8             1.4829     2.1516    -0.0021 C.3     
   9 C9             3.2546     0.9861     1.2201 C.2     
  10 O10            3.8179     0.7032     2.2611 O.2     
  11 C11            3.8298     0.5668    -0.0625 C.2     
  12 O12            3.2445     0.6966    -1.2708 O.3     
  13 C13           -0.6884     2.1425     1.2299 C.3     
  14 C14            5.0504    -0.0156    -0.2381 C.2     
  15 C15            5.1928    -0.2474    -1.6241 C.2     
  16 C16            4.0555     0.2081    -2.2184 C.2     
  17 C17            6.3610    -0.8657    -2.3037 C.2     
  18 C18            6.5204    -1.1114    -3.7406 C.2     
  19 C19            7.7276    -1.6838    -3.8880 C.2     
  20 O20            8.3032    -1.8037    -2.6822 O.3     
  21 C21            7.5023    -1.3139    -1.7233 C.2     
  22 H22           -0.4690     2.0811    -0.9192 H       
  23 H23           -1.0338    -0.2001    -0.1309 H       
  24 H24            0.5223    -0.1945    -0.9947 H       
  25 H25            0.7421    -1.4106     1.0280 H       
  26 H26           -1.0715    -0.3523     2.2739 H       
  27 H27            0.4569    -0.4580     3.1796 H       
  28 H28           -0.5374     1.8105     3.3601 H       
  29 H29            1.4657     3.0686     2.6949 H       
  30 H30            1.9578     1.4785     3.3331 H       
  31 H31            2.0247     1.7421    -0.8546 H       
  32 H32            1.5097     3.2407    -0.0382 H       
  33 H33           -0.6304     3.2287     1.2994 H       
  34 H34           -1.7334     1.8344     1.1938 H       
  35 H35            5.7687    -0.2531     0.5327 H       
  36 H36            3.8426     0.1798    -3.2768 H       
  37 H37            5.8115    -0.8798    -4.5218 H       
  38 H38            8.1635    -1.9966    -4.8253 H       
  39 H39            7.7256    -1.2877    -0.6669 H       
@<TRIPOS>BOND
   1    1    2 1
   2    1    8 1
   3    1   13 1
   4    1   22 1
   5    2    3 1
   6    2   23 1
   7    2   24 1
   8    3    4 1
   9    3   25 1
  10    4    5 1
  11    4   26 1
  12    4   27 1
  13    5    6 1
  14    5   13 1
  15    5   28 1
  16    6    7 1
  17    6   29 1
  18    6   30 1
  19    7    8 1
  20    7    9 am
  21    8   31 1
  22    8   32 1
  23    9   10 2
  24    9   11 1
  25   11   12 1
  26   11   14 2
  27   12   16 1
  28   13   33 1
  29   13   34 1
  30   14   15 1
  31   14   35 1
  32   15   16 2
  33   15   17 1
  34   16   36 1
  35   17   18 1
  36   17   21 2
  37   18   19 2
  38   18   37 1
  39   19   20 1
  40   19   38 1
  41   20   21 1
  42   21   39 1

#	End of record

