#	Name: ASD01200381
#	Creating user name:	WinNT
#	Creation time:	15. 06. 2019 19:09

#	Modifying user name:	WinNT
#	Modification time:	15. 06. 2019 19:09

#	Program:	/corina/corina34_cracker 3.40 0067  02.08.2006

@<TRIPOS>MOLECULE
ASD01200381
  68   70    0    0    0
SMALL
NO_CHARGES


@<TRIPOS>ATOM
   1 N1            -0.0178     1.4608     0.0101 N.pl3   
   2 C2             0.0234     0.0208     0.2768 C.3     
   3 C3            -0.9984    -0.3264     1.3614 C.3     
   4 P4            -0.3772    -0.8916    -1.2498 P.3     
   5 C5             1.1726     2.1756    -0.1547 C.ar    
   6 O6            -0.2043    -2.4713    -0.9918 O.3     
   7 O7            -1.7752    -0.6060    -1.6428 O.2     
   8 O8             0.6170    -0.4283    -2.4284 O.3     
   9 C9             0.4914    -0.8845    -3.7768 C.3     
  10 C10            1.5910    -0.2534    -4.6332 C.3     
  11 C11           -0.5442    -3.4607    -1.9653 C.3     
  12 C12           -0.2580    -4.8529    -1.3990 C.3     
  13 C13            1.1442     3.5606    -0.2520 C.ar    
  14 C14            2.3214     4.2647    -0.4142 C.ar    
  15 C15            3.5291     3.5906    -0.4799 C.ar    
  16 C16            3.5597     2.2097    -0.3831 C.ar    
  17 C17            2.3855     1.5019    -0.2155 C.ar    
  18 N18           -2.3397     0.0479     0.9065 N.pl3   
  19 C19           -3.4341    -0.1721     1.7244 C.ar    
  20 F20            4.6792     4.2813    -0.6391 F       
  21 C21           -4.7289     0.1753     1.3019 C.ar    
  22 N22           -3.2861    -0.7217     2.9251 N.ar    
  23 C23           -4.3249    -0.9357     3.7122 C.ar    
  24 N24           -5.5539    -0.6222     3.3608 N.ar    
  25 N25           -5.2481     0.7314     0.1811 N.2     
  26 C26           -5.8005    -0.0726     2.1759 C.ar    
  27 N27           -6.9284     0.3554     1.5224 N.pl3   
  28 C28           -6.5389     0.8379     0.3085 C.2     
  29 C29           -8.2997     0.3034     2.0352 C.3     
  30 C30           -8.5708     1.5410     2.8928 C.3     
  31 C31           -9.9575     1.4268     3.5292 C.3     
  32 O32           -8.5180     2.7099     2.0725 O.3     
  33 C33           -8.0848     3.8845     2.7615 C.3     
  34 P34           -6.2843     3.7999     3.0341 P.3     
  35 O35           -5.5916     3.7095     1.7294 O.2     
  36 O36           -5.7963     5.1232     3.8104 O.3     
  37 O37           -5.9359     2.5000     3.9179 O.3     
  38 H38           -0.8709     1.9176    -0.0562 H       
  39 H39            1.0214    -0.2576     0.6152 H       
  40 H40           -0.9677    -1.3977     1.5598 H       
  41 H41           -0.7589     0.2192     2.2741 H       
  42 H42            0.5880    -1.9699    -3.8036 H       
  43 H43           -0.4843    -0.5968    -4.1683 H       
  44 H44            1.4952    -0.6013    -5.6618 H       
  45 H45            1.4944     0.8320    -4.6064 H       
  46 H46            2.5667    -0.5411    -4.2417 H       
  47 H47           -1.6028    -3.3793    -2.2118 H       
  48 H48            0.0513    -3.3049    -2.8649 H       
  49 H49           -0.8535    -5.0087    -0.4994 H       
  50 H50           -0.5172    -5.6076    -2.1415 H       
  51 H51            0.8007    -4.9343    -1.1525 H       
  52 H52            0.2024     4.0868    -0.2011 H       
  53 H53            2.2998     5.3418    -0.4902 H       
  54 H54            4.5027     1.6859    -0.4350 H       
  55 H55            2.4098     0.4248    -0.1401 H       
  56 H56           -2.4607     0.4498     0.0320 H       
  57 H57           -4.1596    -1.3851     4.6802 H       
  58 H58           -7.2034     1.2487    -0.4373 H       
  59 H59           -8.9994     0.2799     1.1997 H       
  60 H60           -8.4273    -0.5936     2.6411 H       
  61 H61           -7.8163     1.6126     3.6762 H       
  62 H62           -9.9978     0.5352     4.1549 H       
  63 H63          -10.1506     2.3085     4.1402 H       
  64 H64          -10.7120     1.3552     2.7458 H       
  65 H65           -8.3208     4.7645     2.1632 H       
  66 H66           -8.5951     3.9510     3.7224 H       
  67 H67           -4.8463     5.1463     3.9895 H       
  68 H68           -6.3569     2.4918     4.7883 H       
@<TRIPOS>BOND
   1    1    2 1
   2    1    5 1
   3    1   38 1
   4    2    3 1
   5    2    4 1
   6    2   39 1
   7    3   18 1
   8    3   40 1
   9    3   41 1
  10    4    6 1
  11    4    7 2
  12    4    8 1
  13    5   13 ar
  14    5   17 ar
  15    6   11 1
  16    8    9 1
  17    9   10 1
  18    9   42 1
  19    9   43 1
  20   10   44 1
  21   10   45 1
  22   10   46 1
  23   11   12 1
  24   11   47 1
  25   11   48 1
  26   12   49 1
  27   12   50 1
  28   12   51 1
  29   13   14 ar
  30   13   52 1
  31   14   15 ar
  32   14   53 1
  33   15   16 ar
  34   15   20 1
  35   16   17 ar
  36   16   54 1
  37   17   55 1
  38   18   19 1
  39   18   56 1
  40   19   22 ar
  41   19   21 ar
  42   21   26 ar
  43   21   25 1
  44   22   23 ar
  45   23   24 ar
  46   23   57 1
  47   24   26 ar
  48   25   28 2
  49   26   27 1
  50   27   28 1
  51   27   29 1
  52   28   58 1
  53   29   30 1
  54   29   59 1
  55   29   60 1
  56   30   31 1
  57   30   32 1
  58   30   61 1
  59   31   62 1
  60   31   63 1
  61   31   64 1
  62   32   33 1
  63   33   34 1
  64   33   65 1
  65   33   66 1
  66   34   35 2
  67   34   36 1
  68   34   37 1
  69   36   67 1
  70   37   68 1

#	End of record

