#	Name: ASD02250006
#	Creating user name:	WinNT
#	Creation time:	15. 06. 2019 20:20

#	Modifying user name:	WinNT
#	Modification time:	15. 06. 2019 20:20

#	Program:	/corina/corina34_cracker 3.40 0067  02.08.2006

@<TRIPOS>MOLECULE
ASD02250006
 106  109    0    0    0
SMALL
NO_CHARGES


@<TRIPOS>ATOM
   1 S1            -2.7141     2.0659     1.7401 S.o2    
   2 S2             2.2618     4.6325     2.6348 S.o2    
   3 S3             2.2967    12.3708     1.6419 S.o2    
   4 S4            -2.5633     1.9106    12.6889 S.o2    
   5 O5            -2.2744     4.2530     4.7602 O.3     
   6 O6            -1.4621     6.8457     3.9067 O.3     
   7 O7            -0.6997     7.0647     1.7120 O.3     
   8 O8            -4.4428     3.5454     5.2538 O.3     
   9 O9            -5.8134     0.8735     7.3532 O.3     
  10 O10            0.8831     4.7702     2.0048 O.3     
  11 O11           -5.3762     0.8507     9.6455 O.3     
  12 O12           -3.7214     6.6354     4.4520 O.3     
  13 O13           -1.5135    10.3436     0.2936 O.3     
  14 O14           -2.6714     3.6916     7.4790 O.3     
  15 O15           -3.1117     1.0449     8.2769 O.3     
  16 O16            1.3043     8.4020     0.2854 O.3     
  17 O17           -8.9343    -1.1053    10.4684 O.3     
  18 O18            2.0140    11.0061     1.0303 O.3     
  19 O19           -6.2365    -1.4091    11.1502 O.3     
  20 O20           -2.3819     0.5806     1.7466 O.3     
  21 O21           -2.8078     2.3980     0.3616 O.2     
  22 O22           -3.8411     2.1768     2.5985 O.2     
  23 O23           -0.2845    12.2964    -0.0561 O.3     
  24 O24           -3.7772     1.9392    11.7713 O.3     
  25 O25           -7.7769     2.1914     5.8691 O.3     
  26 O26            2.2902     3.3001     3.3699 O.3     
  27 O27           -6.9515     4.2102     5.5132 O.2     
  28 O28            3.1843     4.5176     1.5601 O.2     
  29 O29            2.3506     5.6422     3.6306 O.2     
  30 O30           -3.2834     7.1655     0.5457 O.3     
  31 O31           -3.8427     9.2848     0.8277 O.2     
  32 O32           -8.7179    -2.3344     7.9888 O.2     
  33 O33            2.4685    12.1663     3.1402 O.3     
  34 O34            3.5639    12.7787     1.1447 O.2     
  35 O35            1.1126    13.1384     1.4748 O.2     
  36 O36           -1.6201     0.8419    12.1552 O.3     
  37 O37           -1.8994     3.1549    12.5149 O.2     
  38 O38           -3.0244     1.4454    13.9500 O.2     
  39 N39           -6.8046    -1.4283     8.6522 N.am    
  40 C40           -1.4540     4.3756     2.4879 C.3     
  41 C41           -2.5800     4.7511     3.4562 C.3     
  42 C42           -0.1580     5.0547     2.9413 C.3     
  43 C43           -0.3820     6.5674     3.0134 C.3     
  44 C44           -2.7104     6.2756     3.5083 C.3     
  45 C45           -1.2636     2.8575     2.4884 C.3     
  46 C46           -3.0759     3.1394     5.1596 C.3     
  47 C47           -4.9549     1.9618     7.0060 C.3     
  48 C48           -2.6007     2.6314     6.5234 C.3     
  49 C49           -3.5022     1.4771     6.9720 C.3     
  50 C50           -5.3391     2.4956     5.6236 C.3     
  51 C51           -0.7107     8.4908     1.6213 C.3     
  52 C52           -6.3959     0.9846     8.6534 C.3     
  53 C53           -7.4380    -0.1210     8.8421 C.3     
  54 C54            0.7217     9.0034     1.4434 C.3     
  55 C55           -8.0143    -0.0322    10.2586 C.3     
  56 C56           -6.8693    -0.1336    11.2710 C.3     
  57 C57           -1.5515     8.9204     0.4162 C.3     
  58 C58           -5.8492     0.9725    10.9885 C.3     
  59 C59            0.6899    10.5249     1.2695 C.3     
  60 C60           -0.2050    10.8759     0.0780 C.3     
  61 C61           -6.7480     3.0288     5.6645 C.2     
  62 C62           -4.6727     0.8412    11.9577 C.3     
  63 C63           -2.9765     8.4706     0.6116 C.2     
  64 C64           -7.5357    -2.4749     8.2203 C.2     
  65 C65           -6.8842    -3.8197     8.0250 C.3     
  66 H66           -3.9123     7.5829     4.4818 H       
  67 H67           -2.1275     4.4593     7.2556 H       
  68 H68           -2.2010     0.7242     8.3288 H       
  69 H69            2.2135     8.6821     0.1119 H       
  70 H70           -9.3383    -1.1109    11.3469 H       
  71 H71           -5.5004    -1.5426    11.7629 H       
  72 H72           -3.0752     0.0209     1.3710 H       
  73 H73           -0.8374    12.5916    -0.7924 H       
  74 H74           -8.6622     2.5799     5.8872 H       
  75 H75            3.1302     3.1118     3.8104 H       
  76 H76           -4.1965     6.9186     0.7466 H       
  77 H77            2.6537    12.9795     3.6295 H       
  78 H78           -0.8084     0.7406    12.6709 H       
  79 H79           -5.8591    -1.5406     8.8374 H       
  80 H80           -1.7098     4.7120     1.4832 H       
  81 H81           -3.5178     4.3160     3.1106 H       
  82 H82            0.1246     4.6801     3.9252 H       
  83 H83            0.5243     7.0522     3.3766 H       
  84 H84           -2.9833     6.6510     2.5221 H       
  85 H85           -1.1465     2.5063     3.5136 H       
  86 H86           -0.3735     2.6028     1.9132 H       
  87 H87           -2.9835     2.3420     4.4222 H       
  88 H88           -5.0566     2.7562     7.7455 H       
  89 H89           -1.5716     2.2812     6.4433 H       
  90 H90           -3.4106     0.6487     6.2695 H       
  91 H91           -5.2764     1.6897     4.8924 H       
  92 H92           -1.1372     8.9104     2.5324 H       
  93 H93           -6.8760     1.9580     8.7546 H       
  94 H94           -8.2388     0.0051     8.1135 H       
  95 H95            1.3124     8.7479     2.3232 H       
  96 H96           -8.5300     0.9199    10.3834 H       
  97 H97           -7.2642    -0.0170    12.2803 H       
  98 H98           -1.1478     8.4666    -0.4889 H       
  99 H99           -6.3223     1.9456    11.1204 H       
 100 H100           0.2923    10.9866     2.1733 H       
 101 H101           0.2163    10.4478    -0.8316 H       
 102 H102          -4.1462    -0.0937    11.7656 H       
 103 H103          -5.0440     0.8451    12.9825 H       
 104 H104          -6.5072    -3.8960     7.0051 H       
 105 H105          -6.0575    -3.9283     8.7271 H       
 106 H106          -7.6167    -4.6073     8.2015 H       
@<TRIPOS>BOND
   1    1   20 1
   2    1   21 2
   3    1   22 2
   4    1   45 1
   5    2   10 1
   6    2   26 1
   7    2   28 2
   8    2   29 2
   9    3   18 1
  10    3   33 1
  11    3   34 2
  12    3   35 2
  13    4   24 1
  14    4   36 1
  15    4   37 2
  16    4   38 2
  17    5   41 1
  18    5   46 1
  19    6   43 1
  20    6   44 1
  21    7   43 1
  22    7   51 1
  23    8   46 1
  24    8   50 1
  25    9   47 1
  26    9   52 1
  27   10   42 1
  28   11   52 1
  29   11   58 1
  30   12   44 1
  31   12   66 1
  32   13   57 1
  33   13   60 1
  34   14   48 1
  35   14   67 1
  36   15   49 1
  37   15   68 1
  38   16   54 1
  39   16   69 1
  40   17   55 1
  41   17   70 1
  42   18   59 1
  43   19   56 1
  44   19   71 1
  45   20   72 1
  46   23   60 1
  47   23   73 1
  48   24   62 1
  49   25   61 1
  50   25   74 1
  51   26   75 1
  52   27   61 2
  53   30   63 1
  54   30   76 1
  55   31   63 2
  56   32   64 2
  57   33   77 1
  58   36   78 1
  59   39   64 am
  60   39   53 1
  61   39   79 1
  62   40   41 1
  63   40   42 1
  64   40   45 1
  65   40   80 1
  66   41   44 1
  67   41   81 1
  68   42   43 1
  69   42   82 1
  70   43   83 1
  71   44   84 1
  72   45   85 1
  73   45   86 1
  74   46   48 1
  75   46   87 1
  76   47   49 1
  77   47   50 1
  78   47   88 1
  79   48   49 1
  80   48   89 1
  81   49   90 1
  82   50   61 1
  83   50   91 1
  84   51   54 1
  85   51   57 1
  86   51   92 1
  87   52   53 1
  88   52   93 1
  89   53   55 1
  90   53   94 1
  91   54   59 1
  92   54   95 1
  93   55   56 1
  94   55   96 1
  95   56   58 1
  96   56   97 1
  97   57   63 1
  98   57   98 1
  99   58   62 1
 100   58   99 1
 101   59   60 1
 102   59  100 1
 103   60  101 1
 104   62  102 1
 105   62  103 1
 106   64   65 1
 107   65  104 1
 108   65  105 1
 109   65  106 1

#	End of record

