#	Name: ASD07300166
#	Creating user name:	WinNT
#	Creation time:	15. 06. 2019 21:09

#	Modifying user name:	WinNT
#	Modification time:	15. 06. 2019 21:09

#	Program:	/corina/corina34_cracker 3.40 0067  02.08.2006

@<TRIPOS>MOLECULE
ASD07300166
  63   67    0    0    0
SMALL
NO_CHARGES


@<TRIPOS>ATOM
   1 C1            -0.0169     1.3940     0.0097 C.ar    
   2 C2             0.0021    -0.0041     0.0020 C.ar    
   3 C3             1.2200    -0.6674    -0.0132 C.ar    
   4 C4             2.3808     0.0923    -0.0202 C.ar    
   5 C5             2.2878     1.4713    -0.0119 C.ar    
   6 N6             1.1160     2.0768     0.0026 N.ar    
   7 C7            -2.1140     0.6621     0.0347 C.2     
   8 N8            -1.3544     1.7733     0.0301 N.am    
   9 N9            -1.3235    -0.4280     0.0124 N.am    
  10 O10           -3.3304     0.6451     0.0519 O.2     
  11 C11           -1.7801    -1.8200     0.0088 C.3     
  12 O12           -2.2473    -2.1714     1.3128 O.3     
  13 C13           -3.5717    -1.7167     1.5977 C.3     
  14 C14           -3.9654    -2.1471     3.0122 C.3     
  15 Si15          -5.6920    -1.5543     3.3837 Si      
  16 C16           -6.8808    -2.2955     2.1556 C.3     
  17 C17           -6.1714    -2.0783     5.1060 C.3     
  18 C18           -5.7506     0.3038     3.2610 C.3     
  19 C19           -1.8311     3.0900     0.0441 C.ar    
  20 C20           -3.1993     3.3320     0.0641 C.ar    
  21 C21           -3.6714     4.6271     0.0779 C.ar    
  22 C22           -2.7743     5.6951     0.0722 C.ar    
  23 C23           -1.4014     5.4492     0.0525 C.ar    
  24 C24           -0.9350     4.1520     0.0437 C.ar    
  25 C25           -1.7363     9.0953     2.5910 C.2     
  26 N26           -1.8453     7.9396     2.0020 N.2     
  27 C27           -2.7730     8.0157     1.0166 C.ar    
  28 C28           -3.2632     9.3312     1.0141 C.ar    
  29 N29           -2.5877     9.9908     2.0221 N.pl3   
  30 C30           -3.2786     7.0882     0.0865 C.ar    
  31 C31           -4.2535     7.4885    -0.8182 C.ar    
  32 C32           -4.7262     8.7899    -0.8079 C.ar    
  33 C33           -4.2376     9.7075     0.0995 C.ar    
  34 C34           -2.7571    11.3940     2.4074 C.3     
  35 H35            1.2635    -1.7465    -0.0190 H       
  36 H36            3.3476    -0.3890    -0.0316 H       
  37 H37            3.1908     2.0638    -0.0173 H       
  38 H38           -2.5908    -1.9346    -0.7107 H       
  39 H39           -0.9527    -2.4730    -0.2689 H       
  40 H40           -3.6059    -0.6296     1.5260 H       
  41 H41           -4.2672    -2.1503     0.8792 H       
  42 H42           -3.9311    -3.2342     3.0840 H       
  43 H43           -3.2699    -1.7134     3.7307 H       
  44 H44           -6.8465    -3.3826     2.2274 H       
  45 H45           -7.8910    -1.9486     2.3730 H       
  46 H46           -6.6003    -1.9889     1.1479 H       
  47 H47           -5.4759    -1.6446     5.8246 H       
  48 H48           -7.1816    -1.7315     5.3234 H       
  49 H49           -6.1372    -3.1654     5.1778 H       
  50 H50           -5.4701     0.6104     2.2533 H       
  51 H51           -6.7608     0.6506     3.4784 H       
  52 H52           -5.0550     0.7374     3.9796 H       
  53 H53           -3.8935     2.5047     0.0686 H       
  54 H54           -4.7349     4.8146     0.0928 H       
  55 H55           -0.7045     6.2743     0.0480 H       
  56 H56            0.1280     3.9610     0.0326 H       
  57 H57           -1.0708     9.3105     3.4139 H       
  58 H58           -4.6449     6.7808    -1.5340 H       
  59 H59           -5.4839     9.0896    -1.5168 H       
  60 H60           -4.6143    10.7197     0.0987 H       
  61 H61           -2.0672    12.0139     1.8347 H       
  62 H62           -3.7813    11.7059     2.2028 H       
  63 H63           -2.5487    11.5063     3.4714 H       
@<TRIPOS>BOND
   1    1    2 ar
   2    1    6 ar
   3    1    8 1
   4    2    3 ar
   5    2    9 1
   6    3    4 ar
   7    3   35 1
   8    4    5 ar
   9    4   36 1
  10    5    6 ar
  11    5   37 1
  12    7    8 am
  13    7    9 am
  14    7   10 2
  15    8   19 1
  16    9   11 1
  17   11   12 1
  18   11   38 1
  19   11   39 1
  20   12   13 1
  21   13   14 1
  22   13   40 1
  23   13   41 1
  24   14   15 1
  25   14   42 1
  26   14   43 1
  27   15   16 1
  28   15   17 1
  29   15   18 1
  30   16   44 1
  31   16   45 1
  32   16   46 1
  33   17   47 1
  34   17   48 1
  35   17   49 1
  36   18   50 1
  37   18   51 1
  38   18   52 1
  39   19   20 ar
  40   19   24 ar
  41   20   21 ar
  42   20   53 1
  43   21   22 ar
  44   21   54 1
  45   22   23 ar
  46   22   30 1
  47   23   24 ar
  48   23   55 1
  49   24   56 1
  50   25   26 2
  51   25   29 1
  52   25   57 1
  53   26   27 1
  54   27   28 ar
  55   27   30 ar
  56   28   29 1
  57   28   33 ar
  58   29   34 1
  59   30   31 ar
  60   31   32 ar
  61   31   58 1
  62   32   33 ar
  63   32   59 1
  64   33   60 1
  65   34   61 1
  66   34   62 1
  67   34   63 1

#	End of record

