#	Name: ASD05720044
#	Creating user name:	WinNT
#	Creation time:	15. 06. 2019 21:01

#	Modifying user name:	WinNT
#	Modification time:	15. 06. 2019 21:01

#	Program:	/corina/corina34_cracker 3.40 0067  02.08.2006

@<TRIPOS>MOLECULE
ASD05720044
  63   66    0    0    0
SMALL
NO_CHARGES


@<TRIPOS>ATOM
   1 N1             0.2051    -0.9474     2.2709 N.am    
   2 C2            -1.1082    -0.6736     1.6693 C.3     
   3 C3            -2.1302    -1.6027     2.3577 C.3     
   4 C4            -1.4365    -1.9467     3.7023 C.3     
   5 C5             0.0513    -2.0147     3.2762 C.3     
   6 C6             1.3594    -0.3292     1.9519 C.2     
   7 O7             1.3883     0.4690     1.0362 O.2     
   8 O8             2.4806    -0.5961     2.6479 O.3     
   9 C9            -1.0649    -0.9688     0.1687 C.3     
  10 C10           -2.5850     0.6147    -1.0130 C.2     
  11 N11           -3.8264     0.7317    -1.5021 N.am    
  12 C12           -4.5616    -0.5183    -1.2580 C.3     
  13 C13           -3.5382    -1.4128    -0.5319 C.3     
  14 N14           -2.3351    -0.5719    -0.4439 N.am    
  15 O15           -1.7582     1.5033    -1.0836 O.2     
  16 C16           -4.9896    -1.1567    -2.5809 C.3     
  17 C17           -6.0051    -0.2503    -3.2796 C.3     
  18 C18           -3.7647    -1.3380    -3.4796 C.3     
  19 C19           -6.1525     3.1210    -2.8071 C.2     
  20 N20           -5.6418     2.0421    -2.1970 N.2     
  21 C21           -4.3382     1.8553    -2.1388 C.2     
  22 C22           -3.4620     2.7945    -2.7216 C.2     
  23 C23           -3.9717     3.8842    -3.3381 C.2     
  24 N24           -5.3279     4.0528    -3.3835 N.pl3   
  25 N25           -6.1375     5.0519    -3.9362 N.2     
  26 C26           -7.3965     4.7507    -3.7117 C.2     
  27 C27           -7.4562     3.5523    -3.0146 C.2     
  28 Br28          -9.0284     2.6678    -2.4473 Br      
  29 C29            3.6947     0.0796     2.2263 C.3     
  30 C30            3.5127     1.5920     2.3697 C.3     
  31 C31            4.8634    -0.3786     3.1011 C.3     
  32 C32            3.9874    -0.2625     0.7641 C.3     
  33 H33           -1.3827     0.3679     1.8366 H       
  34 H34           -3.0707    -1.0799     2.5316 H       
  35 H35           -2.2922    -2.5036     1.7658 H       
  36 H36           -1.5967    -1.1581     4.4375 H       
  37 H37           -1.7782    -2.9091     4.0832 H       
  38 H38            0.2757    -2.9861     2.8357 H       
  39 H39            0.6999    -1.8262     4.1318 H       
  40 H40           -0.2499    -0.4077    -0.2886 H       
  41 H41           -0.9040    -2.0355     0.0127 H       
  42 H42           -5.4281    -0.3347    -0.6226 H       
  43 H43           -3.8965    -1.6734     0.4641 H       
  44 H44           -3.3350    -2.3118    -1.1138 H       
  45 H45           -5.4438    -2.1281    -2.3854 H       
  46 H46           -5.5005     0.6413    -3.6520 H       
  47 H47           -6.4576    -0.7868    -4.1136 H       
  48 H48           -6.7806     0.0405    -2.5710 H       
  49 H49           -3.0413    -1.9838    -2.9818 H       
  50 H50           -4.0696    -1.7928    -4.4220 H       
  51 H51           -3.3105    -0.3666    -3.6751 H       
  52 H52           -2.3935     2.6446    -2.6754 H       
  53 H53           -3.3153     4.6136    -3.7892 H       
  54 H54           -8.2473     5.3390    -4.0221 H       
  55 H55            3.3042     1.8357     3.4115 H       
  56 H56            4.4241     2.0993     2.0533 H       
  57 H57            2.6801     1.9184     1.7465 H       
  58 H58            4.9931    -1.4560     2.9989 H       
  59 H59            5.7748     0.1287     2.7846 H       
  60 H60            4.6549    -0.1348     4.1428 H       
  61 H61            3.1270     0.0029     0.1496 H       
  62 H62            4.8604     0.2968     0.4278 H       
  63 H63            4.1831    -1.3309     0.6731 H       
@<TRIPOS>BOND
   1    1    2 1
   2    1    5 1
   3    1    6 am
   4    2    3 1
   5    2    9 1
   6    2   33 1
   7    3    4 1
   8    3   34 1
   9    3   35 1
  10    4    5 1
  11    4   36 1
  12    4   37 1
  13    5   38 1
  14    5   39 1
  15    6    7 2
  16    6    8 1
  17    8   29 1
  18    9   14 1
  19    9   40 1
  20    9   41 1
  21   10   11 am
  22   10   14 am
  23   10   15 2
  24   11   12 1
  25   11   21 1
  26   12   13 1
  27   12   16 1
  28   12   42 1
  29   13   14 1
  30   13   43 1
  31   13   44 1
  32   16   17 1
  33   16   18 1
  34   16   45 1
  35   17   46 1
  36   17   47 1
  37   17   48 1
  38   18   49 1
  39   18   50 1
  40   18   51 1
  41   19   20 1
  42   19   24 1
  43   19   27 2
  44   20   21 2
  45   21   22 1
  46   22   23 2
  47   22   52 1
  48   23   24 1
  49   23   53 1
  50   24   25 1
  51   25   26 2
  52   26   27 1
  53   26   54 1
  54   27   28 1
  55   29   30 1
  56   29   32 1
  57   29   31 1
  58   30   55 1
  59   30   56 1
  60   30   57 1
  61   31   58 1
  62   31   59 1
  63   31   60 1
  64   32   61 1
  65   32   62 1
  66   32   63 1

#	End of record

