#	Name: ASD01900861
#	Creating user name:	WinNT
#	Creation time:	15. 06. 2019 19:52

#	Modifying user name:	WinNT
#	Modification time:	15. 06. 2019 19:52

#	Program:	/corina/corina34_cracker 3.40 0067  02.08.2006

@<TRIPOS>MOLECULE
ASD01900861
  26   27    0    0    0
SMALL
NO_CHARGES


@<TRIPOS>ATOM
   1 C1            -0.0167     1.3796     0.0096 C.ar    
   2 C2             0.0021    -0.0041     0.0020 C.ar    
   3 C3             1.2058    -0.6865    -0.0127 C.ar    
   4 C4             2.3967     0.0092    -0.0200 C.ar    
   5 C5             2.3857     1.4065    -0.0128 C.ar    
   6 C6             1.1662     2.0887     0.0021 C.ar    
   7 C7             3.6540     2.1571    -0.0200 C.2     
   8 C8             3.6396     3.4997    -0.0131 C.2     
   9 C9             4.9078     4.2501    -0.0202 C.ar    
  10 C10            6.1391     3.5815    -0.0401 C.ar    
  11 C11            4.9143     5.6514    -0.0132 C.ar    
  12 N12            6.0722     6.2861    -0.0204 N.ar    
  13 C13            7.2161     5.6162    -0.0341 C.ar    
  14 N14            7.2528     4.2910    -0.0464 N.ar    
  15 N15            8.4063     6.3206    -0.0418 N.pl3   
  16 H16           -0.9600     1.9055     0.0170 H       
  17 H17           -0.9274    -0.5541     0.0080 H       
  18 H18            1.2128    -1.7664    -0.0182 H       
  19 H19            3.3355    -0.5247    -0.0307 H       
  20 H20            1.1501     3.1686     0.0078 H       
  21 H21            4.5950     1.6272    -0.0307 H       
  22 H22            2.6986     4.0296    -0.0023 H       
  23 H23            6.1766     2.5022    -0.0498 H       
  24 H24            3.9863     6.2038    -0.0024 H       
  25 H25            8.3959     7.2905    -0.0371 H       
  26 H26            9.2515     5.8446    -0.0518 H       
@<TRIPOS>BOND
   1    1    2 ar
   2    1    6 ar
   3    1   16 1
   4    2    3 ar
   5    2   17 1
   6    3    4 ar
   7    3   18 1
   8    4    5 ar
   9    4   19 1
  10    5    6 ar
  11    5    7 1
  12    6   20 1
  13    7    8 2
  14    7   21 1
  15    8    9 1
  16    8   22 1
  17    9   11 ar
  18    9   10 ar
  19   10   14 ar
  20   10   23 1
  21   11   12 ar
  22   11   24 1
  23   12   13 ar
  24   13   14 ar
  25   13   15 1
  26   15   25 1
  27   15   26 1

#	End of record

