#	Name: ASD01230169
#	Creating user name:	WinNT
#	Creation time:	15. 06. 2019 19:11

#	Modifying user name:	WinNT
#	Modification time:	15. 06. 2019 19:11

#	Program:	/corina/corina34_cracker 3.40 0067  02.08.2006

@<TRIPOS>MOLECULE
ASD01230169
  37   39    0    0    0
SMALL
NO_CHARGES


@<TRIPOS>ATOM
   1 S1            -0.9234     1.1613    -2.2540 S.o2    
   2 N2            -0.6415    -0.3237    -1.5811 N.am    
   3 C3             0.5528    -0.8559    -1.5381 C.2     
   4 N4             1.6959    -0.2840    -2.0250 N.pl3   
   5 C5             1.7311     0.9987    -2.7326 C.3     
   6 C6             0.7046     1.9685    -2.1398 C.3     
   7 C7             0.6451    -2.1898    -0.9020 C.2     
   8 C8             1.8874    -2.7955    -0.7877 C.2     
   9 C9             3.0109    -2.1286    -1.2787 C.2     
  10 C10            2.8958    -0.9208    -1.8669 C.2     
  11 C11           -0.5603    -2.8609    -0.3995 C.2     
  12 O12           -1.6296    -2.2800    -0.4105 O.2     
  13 N13           -0.4826    -4.1204     0.0741 N.am    
  14 C14           -1.6050    -4.7199     0.6539 C.ar    
  15 C15           -1.8101    -6.0872     0.5218 C.ar    
  16 C16           -2.9197    -6.6762     1.0957 C.ar    
  17 C17           -3.8263    -5.9060     1.8008 C.ar    
  18 C18           -3.6251    -4.5444     1.9342 C.ar    
  19 C19           -2.5143    -3.9502     1.3681 C.ar    
  20 C20           -5.0364    -6.5519     2.4248 C.3     
  21 F21           -4.7273    -6.9618     3.7262 F       
  22 F22           -6.0887    -5.6309     2.4635 F       
  23 F23           -5.4166    -7.6627     1.6640 F       
  24 O24           -1.2547     0.8834    -3.6076 O.2     
  25 O25           -1.8556     1.7798    -1.3778 O.2     
  26 H26            2.7276     1.4312    -2.6433 H       
  27 H27            1.5041     0.8346    -3.7860 H       
  28 H28            0.6993     2.8977    -2.7096 H       
  29 H29            0.9456     2.1727    -1.0966 H       
  30 H30            1.9840    -3.7671    -0.3261 H       
  31 H31            3.9849    -2.5860    -1.1865 H       
  32 H32            3.7900    -0.4353    -2.2291 H       
  33 H33            0.3520    -4.6110     0.0127 H       
  34 H34           -1.1028    -6.6892    -0.0294 H       
  35 H35           -3.0797    -7.7394     0.9933 H       
  36 H36           -4.3352    -3.9457     2.4852 H       
  37 H37           -2.3554    -2.8875     1.4764 H       
@<TRIPOS>BOND
   1    1    2 am
   2    1    6 1
   3    1   24 2
   4    1   25 2
   5    2    3 2
   6    3    4 1
   7    3    7 1
   8    4    5 1
   9    4   10 1
  10    5    6 1
  11    5   26 1
  12    5   27 1
  13    6   28 1
  14    6   29 1
  15    7    8 2
  16    7   11 1
  17    8    9 1
  18    8   30 1
  19    9   10 2
  20    9   31 1
  21   10   32 1
  22   11   12 2
  23   11   13 am
  24   13   14 1
  25   13   33 1
  26   14   15 ar
  27   14   19 ar
  28   15   16 ar
  29   15   34 1
  30   16   17 ar
  31   16   35 1
  32   17   18 ar
  33   17   20 1
  34   18   19 ar
  35   18   36 1
  36   19   37 1
  37   20   21 1
  38   20   22 1
  39   20   23 1

#	End of record

