#	Name: ASD01911695
#	Creating user name:	WinNT
#	Creation time:	15. 06. 2019 19:58

#	Modifying user name:	WinNT
#	Modification time:	15. 06. 2019 19:58

#	Program:	/corina/corina34_cracker 3.40 0067  02.08.2006

@<TRIPOS>MOLECULE
ASD01911695
  43   45    0    0    0
SMALL
NO_CHARGES


@<TRIPOS>ATOM
   1 N1             0.1961     1.0772     0.3061 N.am    
   2 C2             0.2171     0.0296    -0.5416 C.2     
   3 C3             1.4966    -0.5493    -0.9591 C.2     
   4 C4             1.7678    -1.8834    -1.1016 C.2     
   5 S5             2.9547     0.3501    -1.3734 S.3     
   6 C6             3.7956    -1.1639    -1.6937 C.2     
   7 N7             2.9798    -2.1676    -1.4861 N.2     
   8 C8             5.1579    -1.2796    -2.1195 C.1     
   9 C9             6.2748    -1.3744    -2.4685 C.1     
  10 C10            7.6371    -1.4901    -2.8943 C.ar    
  11 C11            8.1987    -2.7509    -3.1181 C.ar    
  12 C12            9.5112    -2.8541    -3.5285 C.ar    
  13 C13           10.2722    -1.7138    -3.7184 C.ar    
  14 C14            9.7235    -0.4624    -3.4989 C.ar    
  15 C15            8.4108    -0.3427    -3.0939 C.ar    
  16 O16           -0.8268    -0.4355    -0.9602 O.2     
  17 C17            1.4361     1.5631     0.9267 C.3     
  18 C18            1.5701     3.0640     0.6511 C.3     
  19 C19            0.3054     3.7812     1.1287 C.3     
  20 C20           -0.9051     3.2542     0.3547 C.3     
  21 C21           -1.0664     1.7590     0.6225 C.3     
  22 C22            1.3829     1.3215     2.4365 C.3     
  23 C23           -2.1876     1.1987    -0.2549 C.3     
  24 H24            1.0289    -2.6471    -0.9085 H       
  25 H25            7.6063    -3.6416    -2.9697 H       
  26 H26            9.9464    -3.8272    -3.7018 H       
  27 H27           11.2998    -1.8011    -4.0392 H       
  28 H28           10.3238     0.4228    -3.6489 H       
  29 H29            7.9839     0.6346    -2.9230 H       
  30 H30            2.2892     1.0356     0.5000 H       
  31 H31            2.4349     3.4563     1.1862 H       
  32 H32            1.6990     3.2274    -0.4188 H       
  33 H33            0.1637     3.5970     2.1937 H       
  34 H34            0.4084     4.8526     0.9563 H       
  35 H35           -1.8021     3.7819     0.6788 H       
  36 H36           -0.7530     3.4158    -0.7125 H       
  37 H37           -1.3079     1.6000     1.6735 H       
  38 H38            1.2748     0.2543     2.6302 H       
  39 H39            2.3036     1.6826     2.8949 H       
  40 H40            0.5324     1.8556     2.8602 H       
  41 H41           -1.8808     1.2296    -1.3003 H       
  42 H42           -2.3937     0.1679     0.0331 H       
  43 H43           -3.0873     1.7997    -0.1225 H       
@<TRIPOS>BOND
   1    1    2 am
   2    1   17 1
   3    1   21 1
   4    2    3 1
   5    2   16 2
   6    3    4 2
   7    3    5 1
   8    4    7 1
   9    4   24 1
  10    5    6 1
  11    6    7 2
  12    6    8 1
  13    8    9 3
  14    9   10 1
  15   10   11 ar
  16   10   15 ar
  17   11   12 ar
  18   11   25 1
  19   12   13 ar
  20   12   26 1
  21   13   14 ar
  22   13   27 1
  23   14   15 ar
  24   14   28 1
  25   15   29 1
  26   17   18 1
  27   17   22 1
  28   17   30 1
  29   18   19 1
  30   18   31 1
  31   18   32 1
  32   19   20 1
  33   19   33 1
  34   19   34 1
  35   20   21 1
  36   20   35 1
  37   20   36 1
  38   21   23 1
  39   21   37 1
  40   22   38 1
  41   22   39 1
  42   22   40 1
  43   23   41 1
  44   23   42 1
  45   23   43 1

#	End of record

