#	Name: ASD03731142
#	Creating user name:	WinNT
#	Creation time:	15. 06. 2019 20:45

#	Modifying user name:	WinNT
#	Modification time:	15. 06. 2019 20:45

#	Program:	/corina/corina34_cracker 3.40 0067  02.08.2006

@<TRIPOS>MOLECULE
ASD03731142
  39   43    0    0    0
SMALL
NO_CHARGES


@<TRIPOS>ATOM
   1 O1            -0.0175     1.4361     0.0099 O.3     
   2 C2             0.0021    -0.0041     0.0020 C.3     
   3 C3             1.3458    -0.3163    -0.6709 C.3     
   4 C4             2.1586     0.9230    -0.4088 C.ar    
   5 C5             1.2616     1.9063     0.0003 C.ar    
   6 C6             1.7496     3.1681     0.3268 C.ar    
   7 C7             3.0992     3.4388     0.2357 C.ar    
   8 C8             3.9807     2.4576    -0.1807 C.ar    
   9 C9             3.5051     1.1980    -0.5019 C.ar    
  10 N10            2.1587    -2.4046    -1.1216 N.am    
  11 C11            1.9847    -1.5477    -0.0958 C.2     
  12 C12            1.1882    -0.5972    -2.1357 C.ar    
  13 C13            0.6779     0.1223    -3.1933 C.ar    
  14 C14            0.6716    -0.4240    -4.4643 C.ar    
  15 C15            1.1787    -1.6941    -4.6704 C.ar    
  16 C16            1.6904    -2.4190    -3.6144 C.ar    
  17 C17            1.7015    -1.8768    -2.3315 C.ar    
  18 O18            2.2855    -1.7344     1.0643 O.2     
  19 C19            2.7574    -3.7345    -0.9838 C.3     
  20 C20            1.6771    -4.7441    -0.6928 C.2     
  21 C21            0.9965    -5.4281    -1.6132 C.2     
  22 C22            0.0490    -6.3026    -1.1083 C.2     
  23 C23           -0.0389    -6.3279     0.2235 C.2     
  24 S24            1.1268    -5.2055     0.9127 S.3     
  25 Cl25          -1.1313    -7.3219     1.1358 Cl      
  26 Br26           5.8290     2.8358    -0.3112 Br      
  27 H27           -0.0220    -0.3969     1.0185 H       
  28 H28           -0.8262    -0.3990    -0.5863 H       
  29 H29            1.0679     3.9397     0.6528 H       
  30 H30            3.4691     4.4211     0.4903 H       
  31 H31            4.1910     0.4295    -0.8264 H       
  32 H32            0.2820     1.1139    -3.0303 H       
  33 H33            0.2712     0.1400    -5.2938 H       
  34 H34            1.1736    -2.1205    -5.6627 H       
  35 H35            2.0842    -3.4104    -3.7830 H       
  36 H36            3.2650    -4.0023    -1.9105 H       
  37 H37            3.4768    -3.7260    -0.1649 H       
  38 H38            1.1708    -5.3087    -2.6724 H       
  39 H39           -0.5717    -6.9171    -1.7435 H       
@<TRIPOS>BOND
   1    1    2 1
   2    1    5 1
   3    2    3 1
   4    2   27 1
   5    2   28 1
   6    3    4 1
   7    3   11 1
   8    3   12 1
   9    4    5 ar
  10    4    9 ar
  11    5    6 ar
  12    6    7 ar
  13    6   29 1
  14    7    8 ar
  15    7   30 1
  16    8    9 ar
  17    8   26 1
  18    9   31 1
  19   10   11 am
  20   10   17 1
  21   10   19 1
  22   11   18 2
  23   12   13 ar
  24   12   17 ar
  25   13   14 ar
  26   13   32 1
  27   14   15 ar
  28   14   33 1
  29   15   16 ar
  30   15   34 1
  31   16   17 ar
  32   16   35 1
  33   19   20 1
  34   19   36 1
  35   19   37 1
  36   20   21 2
  37   20   24 1
  38   21   22 1
  39   21   38 1
  40   22   23 2
  41   22   39 1
  42   23   24 1
  43   23   25 1

#	End of record

