#	Name: ASD04250001
#	Creating user name:	WinNT
#	Creation time:	15. 06. 2019 20:48

#	Modifying user name:	WinNT
#	Modification time:	15. 06. 2019 20:48

#	Program:	/corina/corina34_cracker 3.40 0067  02.08.2006

@<TRIPOS>MOLECULE
ASD04250001
  22   21    0    0    0
SMALL
NO_CHARGES


@<TRIPOS>ATOM
   1 N1            -0.0178     1.4648     0.0101 N.3     
   2 C2             0.0021    -0.0041     0.0020 C.3     
   3 C3            -1.4074    -0.5262     0.1106 C.2     
   4 O4            -2.3398     0.1885    -0.1718 O.2     
   5 O5            -1.6270    -1.7851     0.5212 O.3     
   6 C6             0.6205    -0.4910    -1.2831 C.2     
   7 C7             1.1297     0.3738    -2.1391 C.2     
   8 O8             1.6855    -0.0639    -3.2942 O.3     
   9 N9             2.1921     0.9706    -4.1178 N.pl3   
  10 C10            2.7805     0.6657    -5.3154 C.2     
  11 N11            2.8748    -0.5788    -5.6983 N.2     
  12 N12            3.2729     1.6712    -6.1159 N.pl3   
  13 H13            0.9191     1.8392     0.0032 H       
  14 H14           -0.5563     1.8234    -0.7642 H       
  15 H15            0.5890    -0.3641     0.8470 H       
  16 H16           -2.5480    -2.0750     0.5750 H       
  17 H17            0.6467    -1.5480    -1.5032 H       
  18 H18            1.1035     1.4308    -1.9190 H       
  19 H19            2.1220     1.8953    -3.8333 H       
  20 H20            3.2919    -0.7948    -6.5470 H       
  21 H21            3.2028     2.5959    -5.8314 H       
  22 H22            3.6899     1.4552    -6.9646 H       
@<TRIPOS>BOND
   1    1    2 1
   2    1   13 1
   3    1   14 1
   4    2    3 1
   5    2    6 1
   6    2   15 1
   7    3    4 2
   8    3    5 1
   9    5   16 1
  10    6    7 2
  11    6   17 1
  12    7    8 1
  13    7   18 1
  14    8    9 1
  15    9   10 1
  16    9   19 1
  17   10   11 2
  18   10   12 1
  19   11   20 1
  20   12   21 1
  21   12   22 1

#	End of record

