#	Name: ASD02198858
#	Creating user name:	WinNT
#	Creation time:	15. 06. 2019 20:20

#	Modifying user name:	WinNT
#	Modification time:	15. 06. 2019 20:20

#	Program:	/corina/corina34_cracker 3.40 0067  02.08.2006

@<TRIPOS>MOLECULE
ASD02198858
  55   59    0    0    0
SMALL
NO_CHARGES


@<TRIPOS>ATOM
   1 F1             2.2526    -1.7077     2.4717 F       
   2 C2            -0.0436     1.5035    -0.1142 C.2     
   3 C3            -0.0738     0.1638     0.0985 C.2     
   4 N4             1.0704    -0.5382     0.2608 N.pl3   
   5 N5             2.2351    -0.0039     0.2265 N.2     
   6 C6             2.4070     1.2855     0.0281 C.2     
   7 C7             1.2215     2.1370    -0.1600 C.2     
   8 C8             0.9785    -1.9166     0.4774 C.ar    
   9 C9             1.5799    -2.4863     1.5962 C.ar    
  10 C10            1.4890    -3.8475     1.8109 C.ar    
  11 C11            0.7952    -4.6491     0.9069 C.ar    
  12 C12            0.1942    -4.0757    -0.2124 C.ar    
  13 C13            0.2820    -2.7158    -0.4214 C.ar    
  14 C14            3.7642     1.8672    -0.0049 C.2     
  15 N15            4.3062     2.6070    -1.0182 N.pl3   
  16 N16            5.6082     2.9582    -0.6407 N.2     
  17 C17            5.8521     2.4587     0.5447 C.2     
  18 C18            4.7201     1.7715     0.9826 C.2     
  19 C19            3.6731     2.9517    -2.2191 C.ar    
  20 C20            2.9105     2.0103    -2.8982 C.ar    
  21 C21            2.2861     2.3503    -4.0828 C.ar    
  22 C22            2.4187     3.6266    -4.5952 C.ar    
  23 C23            3.1800     4.5714    -3.9210 C.ar    
  24 C24            3.8024     4.2360    -2.7290 C.ar    
  25 O25            1.3248     3.3401    -0.3480 O.2     
  26 C26            0.6966    -6.1125     1.1353 C.2     
  27 C27            1.2509    -6.8256     2.2163 C.2     
  28 N28            0.9497    -8.0883     2.0668 N.2     
  29 N29            0.1975    -8.2306     0.8945 N.pl3   
  30 C30            0.0475    -7.0110     0.3393 C.2     
  31 C31           -0.3383    -9.4871     0.3651 C.3     
  32 F32           -0.6091   -10.3612     1.4233 F       
  33 F33           -1.5184    -9.2300    -0.3410 F       
  34 C34            7.1408     2.6068     1.3117 C.3     
  35 O35            3.3102     5.8261    -4.4265 O.3     
  36 C36            2.6364     6.1035    -5.6558 C.3     
  37 F37            1.2615     5.9064    -5.4887 F       
  38 F38            2.8753     7.4303    -6.0295 F       
  39 F39            3.1128     5.2452    -6.6527 F       
  40 H40           -0.9548     2.0674    -0.2487 H       
  41 H41           -1.0238    -0.3483     0.1390 H       
  42 H42            1.9556    -4.2902     2.6785 H       
  43 H43           -0.3438    -4.6961    -0.9138 H       
  44 H44           -0.1839    -2.2721    -1.2889 H       
  45 H45            4.6143     1.2519     1.9235 H       
  46 H46            2.8059     1.0118    -2.5002 H       
  47 H47            1.6934     1.6170    -4.6095 H       
  48 H48            1.9297     3.8894    -5.5216 H       
  49 H49            4.3948     4.9699    -2.2029 H       
  50 H50            1.8253    -6.4024     3.0271 H       
  51 H51           -0.4844    -6.7867    -0.5735 H       
  52 H52            0.3933    -9.9412    -0.3032 H       
  53 H53            7.0933     3.5014     1.9327 H       
  54 H54            7.2891     1.7323     1.9452 H       
  55 H55            7.9721     2.6939     0.6121 H       
@<TRIPOS>BOND
   1    1    9 1
   2    2    3 2
   3    2    7 1
   4    2   40 1
   5    3    4 1
   6    3   41 1
   7    4    5 1
   8    4    8 1
   9    5    6 2
  10    6    7 1
  11    6   14 1
  12    7   25 2
  13    8    9 ar
  14    8   13 ar
  15    9   10 ar
  16   10   11 ar
  17   10   42 1
  18   11   12 ar
  19   11   26 1
  20   12   13 ar
  21   12   43 1
  22   13   44 1
  23   14   15 1
  24   14   18 2
  25   15   16 1
  26   15   19 1
  27   16   17 2
  28   17   18 1
  29   17   34 1
  30   18   45 1
  31   19   20 ar
  32   19   24 ar
  33   20   21 ar
  34   20   46 1
  35   21   22 ar
  36   21   47 1
  37   22   23 ar
  38   22   48 1
  39   23   24 ar
  40   23   35 1
  41   24   49 1
  42   26   27 1
  43   26   30 2
  44   27   28 2
  45   27   50 1
  46   28   29 1
  47   29   30 1
  48   29   31 1
  49   30   51 1
  50   31   32 1
  51   31   33 1
  52   31   52 1
  53   34   53 1
  54   34   54 1
  55   34   55 1
  56   35   36 1
  57   36   37 1
  58   36   38 1
  59   36   39 1

#	End of record

