#	Name: ASD01811565
#	Creating user name:	WinNT
#	Creation time:	15. 06. 2019 19:27

#	Modifying user name:	WinNT
#	Modification time:	15. 06. 2019 19:27

#	Program:	/corina/corina34_cracker 3.40 0067  02.08.2006

@<TRIPOS>MOLECULE
ASD01811565
  64   68    0    0    0
SMALL
NO_CHARGES


@<TRIPOS>ATOM
   1 C1            -7.6487     2.4708    -4.1257 C.1     
   2 C2            -6.6393     3.2234    -3.4436 C.ar    
   3 C3            -5.4754     2.5934    -2.9984 C.ar    
   4 C4            -4.5071     3.3244    -2.3420 C.ar    
   5 C5            -4.6873     4.6788    -2.1241 C.ar    
   6 C6            -5.8383     5.3094    -2.5621 C.ar    
   7 C7            -6.8118     4.5918    -3.2258 C.ar    
   8 N8            -8.4495     1.8738    -4.6668 N.1     
   9 N9            -2.5295     7.8371    -0.3103 N.am    
  10 C10           -2.0096     7.3658    -1.6011 C.3     
  11 C11           -3.1131     6.5848    -2.3216 C.3     
  12 C12           -3.6252     5.4708    -1.4058 C.3     
  13 C13           -4.2185     6.0846    -0.1356 C.3     
  14 C14           -3.1276     6.8600     0.6097 C.3     
  15 C15           -2.4542     9.1401     0.0259 C.2     
  16 C16           -3.0580     9.6136     1.2899 C.ar    
  17 C17           -3.9979    10.6467     1.2728 C.ar    
  18 C18           -4.5624    11.0898     2.4521 C.ar    
  19 C19           -4.2022    10.5160     3.6556 C.ar    
  20 C20           -3.2639     9.4826     3.6869 C.ar    
  21 C21           -2.6950     9.0264     2.5000 C.ar    
  22 O22           -1.8899     9.9260    -0.7099 O.2     
  23 C23           -4.8229    11.0069     4.9381 C.3     
  24 C24           -4.3962    11.2793    -0.0357 C.3     
  25 C25           -2.8790     8.8697     4.9770 C.2     
  26 N26           -1.9009     7.9371     5.1573 N.pl3   
  27 C27           -1.8720     7.6411     6.4950 C.2     
  28 C28           -2.8205     8.3900     7.0887 C.2     
  29 N29           -3.4173     9.1350     6.1452 N.2     
  30 C30           -2.8489     8.1147     8.5775 C.3     
  31 C31           -1.5048     7.4171     8.8809 C.3     
  32 C32           -1.1589     6.7829     7.5156 C.3     
  33 O33           -0.5115     8.3688     9.2679 O.3     
  34 C34           -0.4392     8.5928    10.6774 C.3     
  35 H35           -5.3338     1.5361    -3.1673 H       
  36 H36           -3.6064     2.8384    -1.9971 H       
  37 H37           -5.9728     6.3668    -2.3884 H       
  38 H38           -7.7076     5.0862    -3.5715 H       
  39 H39           -1.7104     8.2201    -2.2084 H       
  40 H40           -1.1512     6.7153    -1.4338 H       
  41 H41           -3.9335     7.2585    -2.5689 H       
  42 H42           -2.7119     6.1482    -3.2363 H       
  43 H43           -2.7992     4.8117    -1.1387 H       
  44 H44           -5.0285     6.7630    -0.4035 H       
  45 H45           -4.6042     5.2920     0.5056 H       
  46 H46           -2.3603     6.1682     0.9573 H       
  47 H47           -3.5661     7.3805     1.4611 H       
  48 H48           -5.2886    11.8889     2.4335 H       
  49 H49           -1.9723     8.2240     2.5183 H       
  50 H50           -5.6680    10.3702     5.1997 H       
  51 H51           -4.0817    10.9733     5.7367 H       
  52 H52           -5.1679    12.0324     4.8056 H       
  53 H53           -5.1866    10.6888    -0.4991 H       
  54 H54           -4.7576    12.2916     0.1453 H       
  55 H55           -3.5326    11.3151    -0.6997 H       
  56 H56           -1.3335     7.5554     4.4694 H       
  57 H57           -2.9250     9.0488     9.1340 H       
  58 H58           -3.6817     7.4564     8.8251 H       
  59 H59           -1.6276     6.6511     9.6465 H       
  60 H60           -1.5254     5.7574     7.4709 H       
  61 H61           -0.0824     6.8093     7.3471 H       
  62 H62            0.3379     9.3271    10.8892 H       
  63 H63           -1.3988     8.9656    11.0358 H       
  64 H64           -0.2017     7.6565    11.1824 H       
@<TRIPOS>BOND
   1    1    2 1
   2    1    8 3
   3    2    3 ar
   4    2    7 ar
   5    3    4 ar
   6    3   35 1
   7    4    5 ar
   8    4   36 1
   9    5    6 ar
  10    5   12 1
  11    6    7 ar
  12    6   37 1
  13    7   38 1
  14    9   10 1
  15    9   14 1
  16    9   15 am
  17   10   11 1
  18   10   39 1
  19   10   40 1
  20   11   12 1
  21   11   41 1
  22   11   42 1
  23   12   13 1
  24   12   43 1
  25   13   14 1
  26   13   44 1
  27   13   45 1
  28   14   46 1
  29   14   47 1
  30   15   16 1
  31   15   22 2
  32   16   17 ar
  33   16   21 ar
  34   17   18 ar
  35   17   24 1
  36   18   19 ar
  37   18   48 1
  38   19   20 ar
  39   19   23 1
  40   20   21 ar
  41   20   25 1
  42   21   49 1
  43   23   50 1
  44   23   51 1
  45   23   52 1
  46   24   53 1
  47   24   54 1
  48   24   55 1
  49   25   26 1
  50   25   29 2
  51   26   27 1
  52   26   56 1
  53   27   28 2
  54   27   32 1
  55   28   29 1
  56   28   30 1
  57   30   31 1
  58   30   57 1
  59   30   58 1
  60   31   32 1
  61   31   33 1
  62   31   59 1
  63   32   60 1
  64   32   61 1
  65   33   34 1
  66   34   62 1
  67   34   63 1
  68   34   64 1

#	End of record

