#	Name: ASD01811793
#	Creating user name:	WinNT
#	Creation time:	15. 06. 2019 19:27

#	Modifying user name:	WinNT
#	Modification time:	15. 06. 2019 19:27

#	Program:	/corina/corina34_cracker 3.40 0067  02.08.2006

@<TRIPOS>MOLECULE
ASD01811793
  56   59    0    0    0
SMALL
NO_CHARGES


@<TRIPOS>ATOM
   1 C1            -0.0167     1.3805     0.0096 C.ar    
   2 C2             0.0021    -0.0041     0.0020 C.ar    
   3 C3            -1.1845    -0.7161     0.0090 C.ar    
   4 C4            -2.3942    -0.0535     0.0241 C.ar    
   5 C5            -2.4213     1.3425     0.0323 C.ar    
   6 C6            -1.2177     2.0512     0.0304 C.ar    
   7 C7             1.2777     2.1522     0.0014 C.3     
   8 C8             1.3184    -0.7376    -0.0144 C.3     
   9 C9            -1.1549    -2.2228    -0.0004 C.3     
  10 C10           -1.0078    -2.7311     1.4107 C.ar    
  11 C11           -2.1284    -2.8900     2.2086 C.ar    
  12 C12           -1.9950    -3.3566     3.5043 C.ar    
  13 C13           -0.7370    -3.6649     4.0027 C.ar    
  14 C14            0.3842    -3.5042     3.1991 C.ar    
  15 C15            0.2453    -3.0435     1.9046 C.ar    
  16 F16           -3.3522    -2.5888     1.7220 F       
  17 N17           -0.5982    -4.1375     5.3151 N.pl3   
  18 N18           -1.6379    -4.3460     6.2306 N.2     
  19 C19           -1.1177    -4.7905     7.3462 C.2     
  20 C20            0.2685    -4.8796     7.1782 C.2     
  21 C21            0.5623    -4.4783     5.9197 C.2     
  22 C22           -3.5309     2.3149     0.0477 C.2     
  23 N23           -3.0504     3.5703     0.0501 N.am    
  24 C24           -1.5841     3.5142     0.0402 C.3     
  25 O25           -4.7107     2.0226     0.0563 O.2     
  26 C26           -3.8575     4.7928     0.0640 C.3     
  27 C27           -4.1248     5.2110     1.5113 C.3     
  28 O28           -4.8297     4.1672     2.1863 O.3     
  29 C29           -2.7945     5.4700     2.2213 C.3     
  30 C30           -4.9677     6.4878     1.5259 C.3     
  31 H31           -3.3180    -0.6130     0.0291 H       
  32 H32            1.5800     2.3437    -1.0282 H       
  33 H33            1.1390     3.0999     0.5217 H       
  34 H34            2.0504     1.5710     0.5048 H       
  35 H35            1.6456    -0.9199     1.0092 H       
  36 H36            1.1977    -1.6891    -0.5323 H       
  37 H37            2.0641    -0.1342    -0.5322 H       
  38 H38           -2.0831    -2.6018    -0.4281 H       
  39 H39           -0.3118    -2.5659    -0.5999 H       
  40 H40           -2.8686    -3.4803     4.1272 H       
  41 H41            1.3641    -3.7437     3.5850 H       
  42 H42            1.1175    -2.9191     1.2800 H       
  43 H43           -1.6644    -5.0444     8.2424 H       
  44 H44            0.9782    -5.2137     7.9205 H       
  45 H45            1.5475    -4.4314     5.4797 H       
  46 H46           -1.1849     3.9949     0.9333 H       
  47 H47           -1.1966     4.0028    -0.8538 H       
  48 H48           -3.3198     5.5891    -0.4508 H       
  49 H49           -4.8052     4.6083    -0.4418 H       
  50 H50           -5.6843     3.9494     1.7897 H       
  51 H51           -2.2568     6.2662     1.7065 H       
  52 H52           -2.9849     5.7679     3.2524 H       
  53 H53           -2.1940     4.5604     2.2109 H       
  54 H54           -5.9154     6.3033     1.0201 H       
  55 H55           -5.1581     6.7857     2.5569 H       
  56 H56           -4.4300     7.2840     1.0110 H       
@<TRIPOS>BOND
   1    1    2 ar
   2    1    7 1
   3    1    6 ar
   4    2    3 ar
   5    2    8 1
   6    3    4 ar
   7    3    9 1
   8    4    5 ar
   9    4   31 1
  10    5    6 ar
  11    5   22 1
  12    6   24 1
  13    7   32 1
  14    7   33 1
  15    7   34 1
  16    8   35 1
  17    8   36 1
  18    8   37 1
  19    9   10 1
  20    9   38 1
  21    9   39 1
  22   10   11 ar
  23   10   15 ar
  24   11   12 ar
  25   11   16 1
  26   12   13 ar
  27   12   40 1
  28   13   14 ar
  29   13   17 1
  30   14   15 ar
  31   14   41 1
  32   15   42 1
  33   17   18 1
  34   17   21 1
  35   18   19 2
  36   19   20 1
  37   19   43 1
  38   20   21 2
  39   20   44 1
  40   21   45 1
  41   22   23 am
  42   22   25 2
  43   23   24 1
  44   23   26 1
  45   24   46 1
  46   24   47 1
  47   26   27 1
  48   26   48 1
  49   26   49 1
  50   27   28 1
  51   27   29 1
  52   27   30 1
  53   28   50 1
  54   29   51 1
  55   29   52 1
  56   29   53 1
  57   30   54 1
  58   30   55 1
  59   30   56 1

#	End of record

