#	Name: ASD04590622
#	Creating user name:	WinNT
#	Creation time:	15. 06. 2019 20:51

#	Modifying user name:	WinNT
#	Modification time:	15. 06. 2019 20:51

#	Program:	/corina/corina34_cracker 3.40 0067  02.08.2006

@<TRIPOS>MOLECULE
ASD04590622
  62   67    0    0    0
SMALL
NO_CHARGES


@<TRIPOS>ATOM
   1 N1            -0.0170     1.3232    -0.0111 N.ar    
   2 C2             0.0017    -0.0035    -0.0048 C.ar    
   3 N3             1.1299    -0.6949    -0.0117 N.ar    
   4 C4             2.3050    -0.0729    -0.0258 C.ar    
   5 C5             2.3189     1.3365    -0.0332 C.ar    
   6 C6             1.1072     2.0202    -0.0250 C.ar    
   7 N7             3.6031    -0.5196    -0.0356 N.pl3   
   8 C8             4.4823     0.5494    -0.0492 C.ar    
   9 C9             3.7313     1.7384    -0.0484 C.ar    
  10 C10            5.8681     0.6417    -0.0621 C.ar    
  11 N11            6.4613     1.8180    -0.0729 N.ar    
  12 C12            5.7851     2.9532    -0.0724 C.ar    
  13 C13            4.4064     2.9584    -0.0605 C.ar    
  14 N14           -1.2019    -0.6887     0.0098 N.pl3   
  15 C15           -2.4022     0.0122     0.1304 C.ar    
  16 C16            4.0018    -1.9293    -0.0315 C.3     
  17 C17            3.4003    -2.6450     1.1956 C.3     
  18 C18            3.4384    -2.6399    -1.2747 C.3     
  19 C19            2.5143    -3.7627    -0.7597 C.3     
  20 C20            2.1010    -3.2942     0.6576 C.3     
  21 N21           -2.3891     1.3195     0.3310 N.ar    
  22 N22           -3.4683     2.0042     0.4478 N.ar    
  23 C23           -4.6668     1.4483     0.3753 C.ar    
  24 C24           -4.7831     0.0733     0.1655 C.ar    
  25 C25           -3.6194    -0.6637     0.0338 C.ar    
  26 N26           -5.8099     2.2334     0.5087 N.3     
  27 C27           -5.4579     3.6442     0.7220 C.3     
  28 C28           -6.7368     4.4826     0.7838 C.3     
  29 N29           -7.5928     3.9862     1.8703 N.3     
  30 C30           -7.9448     2.5755     1.6571 C.3     
  31 C31           -6.6658     1.7371     1.5953 C.3     
  32 C32           -9.7759     4.1325     2.9703 C.3     
  33 C33           -8.7981     4.8141     2.0110 C.3     
  34 H34            1.0849     3.0999    -0.0307 H       
  35 H35            6.4645    -0.2587    -0.0630 H       
  36 H36            6.3204     3.8911    -0.0815 H       
  37 H37            3.8598     3.8898    -0.0602 H       
  38 H38           -1.2103    -1.6559    -0.0637 H       
  39 H39            5.0887    -2.0096    -0.0160 H       
  40 H40            4.0842    -3.4094     1.5645 H       
  41 H41            3.1704    -1.9260     1.9818 H       
  42 H42            2.8684    -1.9359    -1.8810 H       
  43 H43            4.2519    -3.0658    -1.8620 H       
  44 H44            1.6378    -3.8592    -1.4003 H       
  45 H45            3.0551    -4.7075    -0.7065 H       
  46 H46            1.8090    -4.1435     1.2754 H       
  47 H47            1.2967    -2.5605     0.6027 H       
  48 H48           -5.7518    -0.4003     0.1036 H       
  49 H49           -3.6520    -1.7307    -0.1299 H       
  50 H50           -4.9114     3.7449     1.6597 H       
  51 H51           -4.8345     3.9920    -0.1017 H       
  52 H52           -6.4795     5.5251     0.9708 H       
  53 H53           -7.2696     4.4035    -0.1639 H       
  54 H54           -8.5681     2.2277     2.4808 H       
  55 H55           -8.4913     2.4748     0.7194 H       
  56 H56           -6.9231     0.6945     1.4082 H       
  57 H57           -6.1330     1.8161     2.5429 H       
  58 H58          -10.0508     3.1547     2.5748 H       
  59 H59           -9.3032     4.0104     3.9448 H       
  60 H60          -10.6703     4.7468     3.0746 H       
  61 H61           -8.5232     5.7919     2.4065 H       
  62 H62           -9.2708     4.9362     1.0364 H       
@<TRIPOS>BOND
   1    1    2 ar
   2    1    6 ar
   3    2    3 ar
   4    2   14 1
   5    3    4 ar
   6    4    5 ar
   7    4    7 1
   8    5    6 ar
   9    5    9 1
  10    6   34 1
  11    7    8 1
  12    7   16 1
  13    8    9 ar
  14    8   10 ar
  15    9   13 ar
  16   10   11 ar
  17   10   35 1
  18   11   12 ar
  19   12   13 ar
  20   12   36 1
  21   13   37 1
  22   14   15 1
  23   14   38 1
  24   15   21 ar
  25   15   25 ar
  26   16   18 1
  27   16   17 1
  28   16   39 1
  29   17   20 1
  30   17   40 1
  31   17   41 1
  32   18   19 1
  33   18   42 1
  34   18   43 1
  35   19   20 1
  36   19   44 1
  37   19   45 1
  38   20   46 1
  39   20   47 1
  40   21   22 ar
  41   22   23 ar
  42   23   24 ar
  43   23   26 1
  44   24   25 ar
  45   24   48 1
  46   25   49 1
  47   26   27 1
  48   26   31 1
  49   27   28 1
  50   27   50 1
  51   27   51 1
  52   28   29 1
  53   28   52 1
  54   28   53 1
  55   29   30 1
  56   29   33 1
  57   30   31 1
  58   30   54 1
  59   30   55 1
  60   31   56 1
  61   31   57 1
  62   32   33 1
  63   32   58 1
  64   32   59 1
  65   32   60 1
  66   33   61 1
  67   33   62 1

#	End of record

