#	Name: ASD01911850
#	Creating user name:	WinNT
#	Creation time:	15. 06. 2019 19:58

#	Modifying user name:	WinNT
#	Modification time:	15. 06. 2019 19:58

#	Program:	/corina/corina34_cracker 3.40 0067  02.08.2006

@<TRIPOS>MOLECULE
ASD01911850
  35   37    0    0    0
SMALL
NO_CHARGES


@<TRIPOS>ATOM
   1 C1            -1.0605    -0.5027    -2.0839 C.ar    
   2 C2            -1.0562     0.0557    -0.8092 C.ar    
   3 C3            -1.0051     1.4359    -0.6787 C.ar    
   4 N4            -0.9615     2.2112    -1.7441 N.ar    
   5 C5            -0.9642     1.7142    -2.9653 C.ar    
   6 C6            -1.0132     0.3486    -3.1757 C.ar    
   7 O7            -1.1019    -0.7395     0.2918 O.3     
   8 C8            -1.1523    -2.0846     0.1056 C.ar    
   9 C9            -0.0018    -2.7820    -0.2369 C.ar    
  10 C10           -0.0515    -4.1497    -0.4266 C.ar    
  11 C11           -1.2460    -4.8277    -0.2766 C.ar    
  12 C12           -2.4005    -4.1352     0.0660 C.ar    
  13 C13           -2.3512    -2.7620     0.2630 C.ar    
  14 N14           -3.6095    -4.8213     0.2173 N.am    
  15 C15           -4.7716    -4.2166    -0.0992 C.2     
  16 C16           -6.0558    -4.9025     0.1580 C.ar    
  17 O17           -4.7640    -3.1073    -0.5962 O.2     
  18 C18           -8.4541    -4.9276     0.0760 C.ar    
  19 C19           -8.4086    -6.1920     0.6450 C.ar    
  20 C20           -7.1762    -6.7568     0.9522 C.ar    
  21 N21           -6.0580    -6.1126     0.7064 N.ar    
  22 F22           -9.5510    -6.8656     0.9028 F       
  23 C23           -7.2566    -4.2706    -0.1722 C.ar    
  24 F24           -7.2530    -3.0378    -0.7248 F       
  25 H25           -1.0953    -1.5738    -2.2186 H       
  26 H26           -1.0013     1.8798     0.3059 H       
  27 H27           -0.9279     2.3828    -3.8126 H       
  28 H28           -1.0147    -0.0498    -4.1796 H       
  29 H29            0.9333    -2.2548    -0.3556 H       
  30 H30            0.8450    -4.6898    -0.6930 H       
  31 H31           -1.2822    -5.8967    -0.4262 H       
  32 H32           -3.2472    -2.2212     0.5298 H       
  33 H33           -3.6117    -5.7324     0.5501 H       
  34 H34           -9.3989    -4.4671    -0.1723 H       
  35 H35           -7.1373    -7.7408     1.3956 H       
@<TRIPOS>BOND
   1    1    2 ar
   2    1    6 ar
   3    1   25 1
   4    2    3 ar
   5    2    7 1
   6    3    4 ar
   7    3   26 1
   8    4    5 ar
   9    5    6 ar
  10    5   27 1
  11    6   28 1
  12    7    8 1
  13    8    9 ar
  14    8   13 ar
  15    9   10 ar
  16    9   29 1
  17   10   11 ar
  18   10   30 1
  19   11   12 ar
  20   11   31 1
  21   12   13 ar
  22   12   14 1
  23   13   32 1
  24   14   15 am
  25   14   33 1
  26   15   16 1
  27   15   17 2
  28   16   23 ar
  29   16   21 ar
  30   18   19 ar
  31   18   23 ar
  32   18   34 1
  33   19   20 ar
  34   19   22 1
  35   20   21 ar
  36   20   35 1
  37   23   24 1

#	End of record

