#	Name: ASD04882016
#	Creating user name:	WinNT
#	Creation time:	15. 06. 2019 20:53

#	Modifying user name:	WinNT
#	Modification time:	15. 06. 2019 20:53

#	Program:	/corina/corina34_cracker 3.40 0067  02.08.2006

@<TRIPOS>MOLECULE
ASD04882016
  70   74    0    0    0
SMALL
NO_CHARGES


@<TRIPOS>ATOM
   1 C1             1.0157    -0.3247    -1.2355 C.ar    
   2 C2             0.8437    -1.3029    -2.1974 C.ar    
   3 C3             1.8286    -1.5296    -3.1416 C.ar    
   4 C4             2.9876    -0.7791    -3.1264 C.ar    
   5 C5             3.1637     0.2046    -2.1613 C.ar    
   6 C6             2.1726     0.4296    -1.2146 C.ar    
   7 N7             4.3350     0.9652    -2.1427 N.3     
   8 C8             5.1020     0.7213    -0.9131 C.3     
   9 C9             6.4124     1.5101    -0.9675 C.3     
  10 N10            6.1140     2.9406    -1.1236 N.3     
  11 C11            5.3471     3.1845    -2.3532 C.3     
  12 C12            4.0366     2.3956    -2.2989 C.3     
  13 C13            7.2817     3.6989    -1.1051 C.ar    
  14 C14            7.6933     4.3673    -2.2520 C.ar    
  15 C15            8.8480     5.1186    -2.2382 C.ar    
  16 C16            9.6091     5.2108    -1.0700 C.ar    
  17 C17            9.1970     4.5397     0.0852 C.ar    
  18 C18            8.0355     3.7915     0.0687 C.ar    
  19 N19            7.6191     3.1176     1.2241 N.am    
  20 C20            8.5264     2.7316     2.1430 C.2     
  21 C21            8.1031     1.9457     3.3063 C.2     
  22 O22            9.6972     3.0353     2.0071 O.2     
  23 O23            6.8438     1.5437     3.5757 O.3     
  24 C24            8.9154     1.4875     4.3038 C.2     
  25 C25            8.0951     0.7886     5.2032 C.2     
  26 C26            6.8346     0.8471     4.7197 C.2     
  27 C27           10.8460     6.0146    -1.0558 C.2     
  28 N28           11.2426     6.6608    -2.1701 N.am    
  29 O29           11.5077     6.0942    -0.0387 O.2     
  30 C30           12.4709     7.4591    -2.1559 C.3     
  31 C31           13.0219     7.5580    -3.5551 C.ar    
  32 C32            4.0604    -1.0272    -4.1553 C.3     
  33 C33           14.3850     7.4738    -3.7687 C.ar    
  34 C34           12.1637     7.7272    -4.6255 C.ar    
  35 C35           12.6690     7.8179    -5.9090 C.ar    
  36 C36           14.0327     7.7398    -6.1220 C.ar    
  37 C37           14.8904     7.5646    -5.0522 C.ar    
  38 C38           12.1615     8.8619    -1.6293 C.3     
  39 H39            0.2428    -0.1472    -0.5024 H       
  40 H40           -0.0617    -1.8915    -2.2113 H       
  41 H41            1.6912    -2.2947    -3.8914 H       
  42 H42            2.3064     1.1935    -0.4630 H       
  43 H43            4.5187     1.0441    -0.0507 H       
  44 H44            5.3214    -0.3429    -0.8265 H       
  45 H45            6.9697     1.3536    -0.0439 H       
  46 H46            7.0078     1.1683    -1.8142 H       
  47 H47            5.1276     4.2486    -2.4399 H       
  48 H48            5.9303     2.8617    -3.2156 H       
  49 H49            3.4794     2.5522    -3.2225 H       
  50 H50            3.4413     2.7374    -1.4522 H       
  51 H51            7.1069     4.2973    -3.1562 H       
  52 H52            9.1653     5.6366    -3.1312 H       
  53 H53            9.7835     4.6088     0.9895 H       
  54 H54            6.6779     2.9287     1.3629 H       
  55 H55            9.9823     1.6342     4.3849 H       
  56 H56            8.4122     0.2946     6.1097 H       
  57 H57            5.9633     0.4051     5.1799 H       
  58 H58           10.7148     6.5973    -2.9814 H       
  59 H59           13.2068     6.9821    -1.5086 H       
  60 H60            3.8333    -0.4635    -5.0602 H       
  61 H61            5.0242    -0.7066    -3.7598 H       
  62 H62            4.0996    -2.0909    -4.3901 H       
  63 H63           15.0552     7.3375    -2.9329 H       
  64 H64           11.0983     7.7881    -4.4591 H       
  65 H65           11.9985     7.9493    -6.7453 H       
  66 H66           14.4275     7.8103    -7.1248 H       
  67 H67           15.9558     7.5036    -5.2186 H       
  68 H68           11.7630     8.7904    -0.6173 H       
  69 H69           13.0754     9.4558    -1.6188 H       
  70 H70           11.4256     9.3388    -2.2767 H       
@<TRIPOS>BOND
   1    1    2 ar
   2    1    6 ar
   3    1   39 1
   4    2    3 ar
   5    2   40 1
   6    3    4 ar
   7    3   41 1
   8    4    5 ar
   9    4   32 1
  10    5    6 ar
  11    5    7 1
  12    6   42 1
  13    7    8 1
  14    7   12 1
  15    8    9 1
  16    8   43 1
  17    8   44 1
  18    9   10 1
  19    9   45 1
  20    9   46 1
  21   10   11 1
  22   10   13 1
  23   11   12 1
  24   11   47 1
  25   11   48 1
  26   12   49 1
  27   12   50 1
  28   13   14 ar
  29   13   18 ar
  30   14   15 ar
  31   14   51 1
  32   15   16 ar
  33   15   52 1
  34   16   17 ar
  35   16   27 1
  36   17   18 ar
  37   17   53 1
  38   18   19 1
  39   19   20 am
  40   19   54 1
  41   20   21 1
  42   20   22 2
  43   21   23 1
  44   21   24 2
  45   23   26 1
  46   24   25 1
  47   24   55 1
  48   25   26 2
  49   25   56 1
  50   26   57 1
  51   27   28 am
  52   27   29 2
  53   28   30 1
  54   28   58 1
  55   30   31 1
  56   30   38 1
  57   30   59 1
  58   31   33 ar
  59   31   34 ar
  60   32   60 1
  61   32   61 1
  62   32   62 1
  63   33   37 ar
  64   33   63 1
  65   34   35 ar
  66   34   64 1
  67   35   36 ar
  68   35   65 1
  69   36   37 ar
  70   36   66 1
  71   37   67 1
  72   38   68 1
  73   38   69 1
  74   38   70 1

#	End of record

