#	Name: ASD00990087
#	Creating user name:	WinNT
#	Creation time:	15. 06. 2019 18:54

#	Modifying user name:	WinNT
#	Modification time:	15. 06. 2019 18:54

#	Program:	/corina/corina34_cracker 3.40 0067  02.08.2006

@<TRIPOS>MOLECULE
ASD00990087
  47   49    0    0    0
SMALL
NO_CHARGES


@<TRIPOS>ATOM
   1 C1            -0.0187     1.5298     0.0105 C.3     
   2 C2             0.0021    -0.0041     0.0020 C.3     
   3 C3             0.9682    -0.4756     1.0531 C.2     
   4 C4             1.8966     0.2605     1.6640 C.2     
   5 C5             2.0872     1.7377     1.3440 C.3     
   6 C6             1.4248     2.0421    -0.0006 C.3     
   7 S7             1.0983    -2.1046     1.7217 S.3     
   8 C8             2.3933    -1.7152     2.7881 C.2     
   9 N9             2.6517    -0.4165     2.5900 N.am    
  10 C10            3.7109     0.2633     3.3399 C.3     
  11 C11            5.0102     0.1550     2.5841 C.2     
  12 N12            6.1305     0.7107     3.0868 N.am    
  13 C13            7.3936     0.6055     2.3521 C.3     
  14 O14            5.0478    -0.4321     1.5236 O.2     
  15 C15            6.0851     1.4200     4.3678 C.3     
  16 C16            7.5314     1.7809     1.4190 C.2     
  17 N17            8.2015     2.9292     1.7060 N.pl3   
  18 C18            8.0970     3.7527     0.6021 C.ar    
  19 C19            7.3390     3.0403    -0.3421 C.ar    
  20 N20            7.0314     1.8428     0.2194 N.2     
  21 C21            8.5623     5.0251     0.2997 C.ar    
  22 C22            8.2788     5.5856    -0.9270 C.ar    
  23 C23            7.5294     4.8859    -1.8641 C.ar    
  24 C24            7.0604     3.6226    -1.5817 C.ar    
  25 O25            2.9579    -2.4667     3.5631 O.2     
  26 Cl26           7.1820     5.6097    -3.4034 Cl      
  27 H27           -0.5422     1.8930    -0.8739 H       
  28 H28           -0.5252     1.8835     0.9085 H       
  29 H29           -0.9949    -0.3849     0.2239 H       
  30 H30            0.3234    -0.3604    -0.9767 H       
  31 H31            1.6247     2.3429     2.1238 H       
  32 H32            3.1518     1.9645     1.2865 H       
  33 H33            1.9790     1.5478    -0.7985 H       
  34 H34            1.4267     3.1188    -0.1707 H       
  35 H35            3.4501     1.3141     3.4655 H       
  36 H36            3.8200    -0.2035     4.3188 H       
  37 H37            8.2248     0.6019     3.0572 H       
  38 H38            7.4024    -0.3193     1.7752 H       
  39 H39            6.2874     0.7197     5.1782 H       
  40 H40            6.8372     2.2089     4.3732 H       
  41 H41            5.0970     1.8590     4.5053 H       
  42 H42            8.6664     3.1323     2.5328 H       
  43 H43            9.1449     5.5747     1.0242 H       
  44 H44            8.6414     6.5756    -1.1611 H       
  45 H45            6.4782     3.0842    -2.3149 H       
  46 Cl46          14.1449    11.5756    10.1782 Cl      
  47 H47           14.1449    12.9456    10.1782 H       
@<TRIPOS>BOND
   1    1    2 1
   2    1    6 1
   3    1   27 1
   4    1   28 1
   5    2    3 1
   6    2   29 1
   7    2   30 1
   8    3    4 2
   9    3    7 1
  10    4    5 1
  11    4    9 1
  12    5    6 1
  13    5   31 1
  14    5   32 1
  15    6   33 1
  16    6   34 1
  17    7    8 1
  18    8    9 am
  19    8   25 2
  20    9   10 1
  21   10   11 1
  22   10   35 1
  23   10   36 1
  24   11   12 am
  25   11   14 2
  26   12   13 1
  27   12   15 1
  28   13   16 1
  29   13   37 1
  30   13   38 1
  31   15   39 1
  32   15   40 1
  33   15   41 1
  34   16   17 1
  35   16   20 2
  36   17   18 1
  37   17   42 1
  38   18   19 ar
  39   18   21 ar
  40   19   20 1
  41   19   24 ar
  42   21   22 ar
  43   21   43 1
  44   22   23 ar
  45   22   44 1
  46   23   24 ar
  47   23   26 1
  48   24   45 1
  49   46   47 1

#	End of record

