#	Name: ASD09530025
#	Creating user name:	WinNT
#	Creation time:	15. 06. 2019 21:22

#	Modifying user name:	WinNT
#	Modification time:	15. 06. 2019 21:22

#	Program:	/corina/corina34_cracker 3.40 0067  02.08.2006

@<TRIPOS>MOLECULE
ASD09530025
  56   59    0    0    0
SMALL
NO_CHARGES


@<TRIPOS>ATOM
   1 C1            -0.0168     1.3894     0.0097 C.ar    
   2 C2             0.0021    -0.0041     0.0020 C.ar    
   3 C3             1.2212    -0.6792    -0.0132 C.ar    
   4 C4             2.4023     0.0348    -0.0207 C.ar    
   5 C5             2.3775     1.4178    -0.0126 C.ar    
   6 C6             1.1704     2.0931     0.0021 C.ar    
   7 C7            -1.2707    -0.7659     0.0106 C.ar    
   8 C8             3.6706     2.1918    -0.0203 C.3     
   9 C9             4.0883     2.4579    -1.4436 C.2     
  10 N10            5.2229     3.1398    -1.6966 N.am    
  11 O11            3.4034     2.0584    -2.3613 O.2     
  12 C12            5.6290     3.3985    -3.0802 C.3     
  13 C13            6.5056     4.6235    -3.1258 C.ar    
  14 N14            7.1840     4.9781    -2.0523 N.ar    
  15 C15            7.9637     6.0412    -2.0434 C.ar    
  16 C16            8.0973     6.8305    -3.1762 C.ar    
  17 C17            7.3955     6.4852    -4.3269 C.ar    
  18 C18            6.5920     5.3572    -4.2944 C.ar    
  19 O19            8.9020     7.9257    -3.1621 O.3     
  20 C20            9.5873     8.2117    -1.9412 C.3     
  21 C21            6.4062     2.1949    -3.6171 C.3     
  22 N22           -2.3199    -0.3037     0.6830 N.ar    
  23 C23           -3.4509    -0.9852     0.6879 C.ar    
  24 C24           -3.5454    -2.1794    -0.0052 C.ar    
  25 N25           -2.5048    -2.6439    -0.6758 N.ar    
  26 C26           -1.3721    -1.9669    -0.6918 C.ar    
  27 C27           -0.1865    -2.4969    -1.4564 C.3     
  28 C28            0.3646    -3.8641    -1.0466 C.3     
  29 C29           -0.4126    -3.7137    -2.3559 C.3     
  30 C30           10.4378     9.4713    -2.1166 C.3     
  31 F31            9.6112    10.5493    -2.4509 F       
  32 F32           11.1087     9.7512    -0.9213 F       
  33 F33           11.3712     9.2651    -3.1381 F       
  34 H34           -0.9588     1.9177     0.0170 H       
  35 H35            1.2417    -1.7589    -0.0189 H       
  36 H36            3.3476    -0.4873    -0.0325 H       
  37 H37            1.1569     3.1730     0.0084 H       
  38 H38            3.5301     3.1391     0.5003 H       
  39 H39            4.4442     1.6118     0.4830 H       
  40 H40            5.7707     3.4593    -0.9626 H       
  41 H41            4.7434     3.5624    -3.6942 H       
  42 H42            8.5037     6.3004    -1.1447 H       
  43 H43            7.4786     7.0796    -5.2248 H       
  44 H44            6.0329     5.0593    -5.1691 H       
  45 H45            8.8600     8.3723    -1.1453 H       
  46 H46           10.2313     7.3717    -1.6807 H       
  47 H47            7.2918     2.0310    -3.0031 H       
  48 H48            5.7722     1.3089    -3.5841 H       
  49 H49            6.7083     2.3874    -4.6466 H       
  50 H50           -4.3038    -0.6101     1.2342 H       
  51 H51           -4.4721    -2.7340     0.0021 H       
  52 H52            0.5285    -1.7467    -1.7942 H       
  53 H53            1.4421    -4.0135    -1.1152 H       
  54 H54           -0.1304    -4.3803    -0.2240 H       
  55 H55           -1.4188    -4.1309    -2.3947 H       
  56 H56            0.1537    -3.7642    -3.2859 H       
@<TRIPOS>BOND
   1    1    2 ar
   2    1    6 ar
   3    1   34 1
   4    2    3 ar
   5    2    7 1
   6    3    4 ar
   7    3   35 1
   8    4    5 ar
   9    4   36 1
  10    5    6 ar
  11    5    8 1
  12    6   37 1
  13    7   22 ar
  14    7   26 ar
  15    8    9 1
  16    8   38 1
  17    8   39 1
  18    9   10 am
  19    9   11 2
  20   10   12 1
  21   10   40 1
  22   12   13 1
  23   12   21 1
  24   12   41 1
  25   13   14 ar
  26   13   18 ar
  27   14   15 ar
  28   15   16 ar
  29   15   42 1
  30   16   17 ar
  31   16   19 1
  32   17   18 ar
  33   17   43 1
  34   18   44 1
  35   19   20 1
  36   20   30 1
  37   20   45 1
  38   20   46 1
  39   21   47 1
  40   21   48 1
  41   21   49 1
  42   22   23 ar
  43   23   24 ar
  44   23   50 1
  45   24   25 ar
  46   24   51 1
  47   25   26 ar
  48   26   27 1
  49   27   28 1
  50   27   29 1
  51   27   52 1
  52   28   29 1
  53   28   53 1
  54   28   54 1
  55   29   55 1
  56   29   56 1
  57   30   31 1
  58   30   32 1
  59   30   33 1

#	End of record

