#	Name: ASD01900526
#	Creating user name:	WinNT
#	Creation time:	15. 06. 2019 19:52

#	Modifying user name:	WinNT
#	Modification time:	15. 06. 2019 19:52

#	Program:	/corina/corina34_cracker 3.40 0067  02.08.2006

@<TRIPOS>MOLECULE
ASD01900526
  26   28    0    0    0
SMALL
NO_CHARGES


@<TRIPOS>ATOM
   1 C1            -0.0193     1.3997    -0.0217 C.ar    
   2 C2            -0.0004    -0.0057     0.0022 C.ar    
   3 C3             1.2255    -0.6602    -0.0426 C.ar    
   4 C4             2.3767     0.1053    -0.1089 C.ar    
   5 C5             2.2815     1.4878    -0.1289 C.ar    
   6 N6             1.1121     2.0906    -0.0850 N.ar    
   7 O7            -1.2775    -0.4289     0.0678 O.3     
   8 C8            -1.4411     1.7705     0.0421 C.2     
   9 C9            -2.1284     0.6150     0.0883 C.2     
  10 N10           -1.9750     3.0711     0.0460 N.pl3   
  11 C11           -3.3558     3.2591    -0.0396 C.ar    
  12 C12           -3.9607     4.3014     0.6522 C.ar    
  13 C13           -5.3276     4.4844     0.5652 C.ar    
  14 C14           -6.0935     3.6306    -0.2100 C.ar    
  15 C15           -5.4939     2.5928    -0.8992 C.ar    
  16 C16           -4.1273     2.4079    -0.8210 C.ar    
  17 Cl17          -6.0852     5.7857     1.4291 Cl      
  18 H18            1.2781    -1.7388    -0.0256 H       
  19 H19            3.3446    -0.3724    -0.1445 H       
  20 H20            3.1825     2.0810    -0.1807 H       
  21 H21           -3.2044     0.5360     0.1382 H       
  22 H22           -1.3840     3.8377     0.1080 H       
  23 H23           -3.3634     4.9674     1.2573 H       
  24 H24           -7.1617     3.7752    -0.2763 H       
  25 H25           -6.0943     1.9283    -1.5028 H       
  26 H26           -3.6594     1.5998    -1.3636 H       
@<TRIPOS>BOND
   1    1    2 ar
   2    1    6 ar
   3    1    8 1
   4    2    3 ar
   5    2    7 1
   6    3    4 ar
   7    3   18 1
   8    4    5 ar
   9    4   19 1
  10    5    6 ar
  11    5   20 1
  12    7    9 1
  13    8    9 2
  14    8   10 1
  15    9   21 1
  16   10   11 1
  17   10   22 1
  18   11   12 ar
  19   11   16 ar
  20   12   13 ar
  21   12   23 1
  22   13   14 ar
  23   13   17 1
  24   14   15 ar
  25   14   24 1
  26   15   16 ar
  27   15   25 1
  28   16   26 1

#	End of record

