#	Name: ASD01881439
#	Creating user name:	WinNT
#	Creation time:	15. 06. 2019 19:42

#	Modifying user name:	WinNT
#	Modification time:	15. 06. 2019 19:42

#	Program:	/corina/corina34_cracker 3.40 0067  02.08.2006

@<TRIPOS>MOLECULE
ASD01881439
  53   57    0    0    0
SMALL
NO_CHARGES


@<TRIPOS>ATOM
   1 Cl1            0.5571     8.5307     0.4863 Cl      
   2 C2            -0.3575     1.5722    -0.0657 C.3     
   3 C3             1.1501     9.9918     4.3836 C.ar    
   4 C4             1.3130     8.8955     3.5626 C.ar    
   5 C5            -0.0332    10.1641     5.0879 C.ar    
   6 C6            -1.0589     9.2323     4.9685 C.ar    
   7 C7            -0.9018     8.1333     4.1486 C.ar    
   8 C8             0.2873     7.9587     3.4398 C.ar    
   9 C9             0.4598     6.7807     2.5582 C.2     
  10 C10            0.5920     6.9446     1.1911 C.2     
  11 C11            0.4967     5.4757     3.1073 C.2     
  12 C12            0.6539     4.4067     2.3047 C.2     
  13 N13            0.7801     4.5583     0.9535 N.pl3   
  14 C14            0.7547     5.8068     0.3808 C.2     
  15 C15            0.9466     3.6813    -0.0747 C.2     
  16 N16            1.0092     4.3776    -1.1803 N.2     
  17 N17            0.8979     5.6336    -0.9242 N.2     
  18 C18            1.0418     2.1817     0.0402 C.3     
  19 F19           -2.2094     9.4028     5.6559 F       
  20 O20           -0.1901    11.2455     5.8959 O.3     
  21 C21            0.1135    11.1073     7.2115 C.ar    
  22 C22            0.4984     9.8732     7.7298 C.ar    
  23 C23            0.7993     9.7741     9.0728 C.ar    
  24 N24            0.7255    10.8290     9.8620 N.ar    
  25 C25            0.3649    12.0148     9.4083 C.ar    
  26 C26            0.0537    12.1975     8.0768 C.ar    
  27 C27           -0.4634     0.0461    -0.0895 C.3     
  28 C28           -0.8962     0.8236     1.1551 C.3     
  29 C29           -0.3571    13.5551     7.5678 C.3     
  30 C30            0.2979    13.1850    10.3554 C.3     
  31 C31            1.6547    13.8912    10.3902 C.3     
  32 H32           -1.0715     2.1357    -0.6664 H       
  33 H33            1.9463    10.7149     4.4820 H       
  34 H34            2.2343     8.7629     3.0148 H       
  35 H35           -1.6979     7.4094     4.0559 H       
  36 H36            0.3987     5.3379     4.1740 H       
  37 H37            0.6809     3.4164     2.7350 H       
  38 H38            1.4810     1.9182     1.0023 H       
  39 H39            1.6684     1.7948    -0.7634 H       
  40 H40            0.5601     9.0057     7.0895 H       
  41 H41            1.0987     8.8210     9.4833 H       
  42 H42           -1.2473    -0.3945    -0.7056 H       
  43 H43            0.4639    -0.5237    -0.0298 H       
  44 H44           -0.2537     0.7653     2.0336 H       
  45 H45           -1.9649     0.8945     1.3578 H       
  46 H46            0.5271    14.1052     7.2458 H       
  47 H47           -1.0380    13.4364     6.7250 H       
  48 H48           -0.8574    14.1057     8.3643 H       
  49 H49           -0.4668    13.8837    10.0162 H       
  50 H50            0.0476    12.8296    11.3550 H       
  51 H51            1.6063    14.7377    11.0753 H       
  52 H52            2.4194    13.1925    10.7295 H       
  53 H53            1.9051    14.2467     9.3907 H       
@<TRIPOS>BOND
   1    1   10 1
   2    2   27 1
   3    2   18 1
   4    2   28 1
   5    2   32 1
   6    3    4 ar
   7    3    5 ar
   8    3   33 1
   9    4    8 ar
  10    4   34 1
  11    5    6 ar
  12    5   20 1
  13    6    7 ar
  14    6   19 1
  15    7    8 ar
  16    7   35 1
  17    8    9 1
  18    9   10 2
  19    9   11 1
  20   10   14 1
  21   11   12 2
  22   11   36 1
  23   12   13 1
  24   12   37 1
  25   13   14 1
  26   13   15 1
  27   14   17 2
  28   15   16 2
  29   15   18 1
  30   16   17 1
  31   18   38 1
  32   18   39 1
  33   20   21 1
  34   21   22 ar
  35   21   26 ar
  36   22   23 ar
  37   22   40 1
  38   23   24 ar
  39   23   41 1
  40   24   25 ar
  41   25   26 ar
  42   25   30 1
  43   26   29 1
  44   27   28 1
  45   27   42 1
  46   27   43 1
  47   28   44 1
  48   28   45 1
  49   29   46 1
  50   29   47 1
  51   29   48 1
  52   30   31 1
  53   30   49 1
  54   30   50 1
  55   31   51 1
  56   31   52 1
  57   31   53 1

#	End of record

