#	Name: ASD05143261
#	Creating user name:	WinNT
#	Creation time:	15. 06. 2019 20:57

#	Modifying user name:	WinNT
#	Modification time:	15. 06. 2019 20:57

#	Program:	/corina/corina34_cracker 3.40 0067  02.08.2006

@<TRIPOS>MOLECULE
ASD05143261
  44   46    0    0    0
SMALL
NO_CHARGES


@<TRIPOS>ATOM
   1 C1            -0.4308     1.4753     0.2111 C.2     
   2 N2            -0.0995     0.2556    -0.1640 N.2     
   3 S3            -1.5640    -0.5925    -0.3171 S.3     
   4 C4            -2.5512     0.7450     0.1337 C.2     
   5 N5            -1.7141     1.7308     0.3720 N.2     
   6 N6            -3.9300     0.7745     0.2298 N.pl3   
   7 C7            -4.5712     1.9066     0.7423 C.ar    
   8 C8            -5.8801     2.1911     0.3747 C.ar    
   9 C9            -6.5110     3.3096     0.8827 C.ar    
  10 C10           -5.8402     4.1468     1.7569 C.ar    
  11 C11           -4.5359     3.8661     2.1245 C.ar    
  12 C12           -3.9022     2.7456     1.6243 C.ar    
  13 C13            1.1649    -0.2283    -0.3851 C.ar    
  14 C14            1.9903     0.3754    -1.3349 C.ar    
  15 C15            1.6339    -1.3233     0.3431 C.ar    
  16 C16            2.9064    -1.8046     0.1162 C.ar    
  17 C17            3.7178    -1.2046    -0.8308 C.ar    
  18 C18            3.2612    -0.1160    -1.5521 C.ar    
  19 C19            0.5978     2.5150     0.4480 C.ar    
  20 C20            0.3138     3.8542     0.1821 C.ar    
  21 C21            1.8519     2.1590     0.9432 C.ar    
  22 C22            2.8058     3.1318     1.1618 C.ar    
  23 C23            2.5199     4.4580     0.8911 C.ar    
  24 C24            1.2758     4.8180     0.4047 C.ar    
  25 C25            0.7518    -1.9777     1.3750 C.3     
  26 Cl26          -6.6362     5.5523     2.3931 Cl      
  27 H27           -4.4527     0.0098    -0.0583 H       
  28 H28           -6.4038     1.5384    -0.3080 H       
  29 H29           -7.5287     3.5313     0.5972 H       
  30 H30           -4.0146     4.5215     2.8063 H       
  31 H31           -2.8845     2.5267     1.9118 H       
  32 H32            1.6350     1.2252    -1.8989 H       
  33 H33            3.2705    -2.6514     0.6790 H       
  34 H34            4.7135    -1.5851    -1.0044 H       
  35 H35            3.8994     0.3477    -2.2897 H       
  36 H36           -0.6571     4.1363    -0.1976 H       
  37 H37            2.0760     1.1240     1.1555 H       
  38 H38            3.7774     2.8573     1.5453 H       
  39 H39            3.2695     5.2160     1.0645 H       
  40 H40            1.0584     5.8549     0.1953 H       
  41 H41            0.2292    -2.8212     0.9240 H       
  42 H42            1.3640    -2.3310     2.2048 H       
  43 H43            0.0243    -1.2540     1.7427 H       
  44 Br44           9.7135    10.8549     7.8063 Br      
@<TRIPOS>BOND
   1    1    2 2
   2    1   19 1
   3    1    5 1
   4    2    3 1
   5    2   13 1
   6    3    4 1
   7    4    5 2
   8    4    6 1
   9    6    7 1
  10    6   27 1
  11    7    8 ar
  12    7   12 ar
  13    8    9 ar
  14    8   28 1
  15    9   10 ar
  16    9   29 1
  17   10   11 ar
  18   10   26 1
  19   11   12 ar
  20   11   30 1
  21   12   31 1
  22   13   14 ar
  23   13   15 ar
  24   14   18 ar
  25   14   32 1
  26   15   16 ar
  27   15   25 1
  28   16   17 ar
  29   16   33 1
  30   17   18 ar
  31   17   34 1
  32   18   35 1
  33   19   20 ar
  34   19   21 ar
  35   20   24 ar
  36   20   36 1
  37   21   22 ar
  38   21   37 1
  39   22   23 ar
  40   22   38 1
  41   23   24 ar
  42   23   39 1
  43   24   40 1
  44   25   41 1
  45   25   42 1
  46   25   43 1

#	End of record

