#	Name: ASD01478070
#	Creating user name:	WinNT
#	Creation time:	15. 06. 2019 19:21

#	Modifying user name:	WinNT
#	Modification time:	15. 06. 2019 19:21

#	Program:	/corina/corina34_cracker 3.40 0067  02.08.2006

@<TRIPOS>MOLECULE
ASD01478070
  29   29    0    0    0
SMALL
NO_CHARGES


@<TRIPOS>ATOM
   1 C1            -0.0187     1.5258     0.0104 C.3     
   2 C2             0.0021    -0.0041     0.0020 C.3     
   3 O3            -0.6461    -0.4957     1.1768 O.3     
   4 C4             0.1152    -1.4670     1.8974 C.3     
   5 C5             0.1583    -1.0848     3.3783 C.3     
   6 O6             1.5157    -0.8916     3.7810 O.3     
   7 C7             1.7608     0.3658     4.4142 C.3     
   8 O8             2.8129     1.0474     3.7283 O.3     
   9 C9             2.4862     2.3848     3.3453 C.3     
  10 C10            2.8222     2.5883     1.8666 C.3     
  11 O11            1.6265     2.8863     1.1430 O.3     
  12 C12            1.4167     2.0554    -0.0004 C.3     
  13 O13           -0.7098     1.9991    -1.1473 O.3     
  14 H14           -0.5289     1.8773     0.9072 H       
  15 H15           -0.5211    -0.3697    -0.8816 H       
  16 H16            1.0344    -0.3533    -0.0165 H       
  17 H17           -0.3497    -2.4468     1.7884 H       
  18 H18            1.1300    -1.5002     1.5010 H       
  19 H19           -0.4011    -0.1620     3.5318 H       
  20 H20           -0.2869    -1.8828     3.9725 H       
  21 H21            0.8548     0.9710     4.3829 H       
  22 H22            2.0511     0.1997     5.4516 H       
  23 H23            1.4217     2.5582     3.5032 H       
  24 H24            3.0620     3.0865     3.9487 H       
  25 H25            3.5246     3.4155     1.7641 H       
  26 H26            3.2712     1.6788     1.4675 H       
  27 H27            2.1133     1.2175     0.0266 H       
  28 H28            1.5826     2.6367    -0.9074 H       
  29 H29           -0.7617     2.9629    -1.2077 H       
@<TRIPOS>BOND
   1    1    2 1
   2    1   12 1
   3    1   13 1
   4    1   14 1
   5    2    3 1
   6    2   15 1
   7    2   16 1
   8    3    4 1
   9    4    5 1
  10    4   17 1
  11    4   18 1
  12    5    6 1
  13    5   19 1
  14    5   20 1
  15    6    7 1
  16    7    8 1
  17    7   21 1
  18    7   22 1
  19    8    9 1
  20    9   10 1
  21    9   23 1
  22    9   24 1
  23   10   11 1
  24   10   25 1
  25   10   26 1
  26   11   12 1
  27   12   27 1
  28   12   28 1
  29   13   29 1

#	End of record

