#	Name: ASD03091858
#	Creating user name:	WinNT
#	Creation time:	15. 06. 2019 20:31

#	Modifying user name:	WinNT
#	Modification time:	15. 06. 2019 20:31

#	Program:	/corina/corina34_cracker 3.40 0067  02.08.2006

@<TRIPOS>MOLECULE
ASD03091858
  55   58    0    0    0
SMALL
NO_CHARGES


@<TRIPOS>ATOM
   1 C1            -0.0170     1.3998     0.0097 C.ar    
   2 C2            -1.2283     2.0682     0.0306 C.ar    
   3 C3            -2.4087     1.3494     0.0435 C.ar    
   4 C4            -2.3914    -0.0360     0.0356 C.ar    
   5 C5            -1.1918    -0.7183     0.0148 C.ar    
   6 C6             0.0021    -0.0041     0.0020 C.ar    
   7 O7             1.1631     2.0665     0.0021 O.3     
   8 C8             2.2620     1.4580     0.6804 C.3     
   9 N9             2.4081     0.0565     0.2863 N.am    
  10 C10            1.3144    -0.6822    -0.0142 C.2     
  11 C11           -3.6892    -0.8018     0.0501 C.3     
  12 C12           -4.2052    -0.9426    -1.3588 C.ar    
  13 C13           -5.0413     0.0168    -1.8949 C.ar    
  14 C14           -3.8407    -2.0350    -2.1333 C.ar    
  15 C15           -4.3373    -2.1256    -3.4222 C.ar    
  16 C16           -5.1784    -1.1263    -3.8940 C.ar    
  17 N17           -5.4989    -0.0973    -3.1270 N.ar    
  18 O18            1.4088    -1.8630    -0.2883 O.2     
  19 C19            3.7406    -0.5484     0.2167 C.3     
  20 C20            4.0030    -1.0464    -1.2079 C.3     
  21 O21            4.0069     0.0628    -2.1089 O.3     
  22 O22           -5.6715    -1.2032    -5.1557 O.3     
  23 C23           -3.7269     2.0794     0.0669 C.3     
  24 C24            3.8163    -1.7320     1.1847 C.3     
  25 O25            5.0972    -2.3558     1.0730 O.3     
  26 C26            5.3782    -2.8828    -0.2252 C.3     
  27 C27            5.3653    -1.7455    -1.2499 C.3     
  28 C28           -1.2604     3.5748     0.0397 C.3     
  29 C29           -6.5311    -0.1442    -5.5819 C.3     
  30 H30           -1.1800    -1.7983     0.0090 H       
  31 H31            3.1773     1.9966     0.4346 H       
  32 H32            2.0934     1.5120     1.7559 H       
  33 H33           -3.5226    -1.7910     0.4766 H       
  34 H34           -4.4213    -0.2647     0.6532 H       
  35 H35           -5.3244     0.8711    -1.2979 H       
  36 H36           -3.1843    -2.7969    -1.7395 H       
  37 H37           -4.0739    -2.9620    -4.0526 H       
  38 H38            4.4919     0.1931     0.4885 H       
  39 H39            3.2220    -1.7492    -1.4981 H       
  40 H40            4.1744    -0.1793    -3.0300 H       
  41 H41           -4.0596     2.2614    -0.9550 H       
  42 H42           -4.4684     1.4737     0.5879 H       
  43 H43           -3.6062     3.0309     0.5846 H       
  44 H44            3.6728    -1.3768     2.2052 H       
  45 H45            3.0377    -2.4538     0.9380 H       
  46 H46            6.3599    -3.3566    -0.2204 H       
  47 H47            4.6201    -3.6197    -0.4904 H       
  48 H48            5.5358    -2.1515    -2.2469 H       
  49 H49            6.1501    -1.0287    -1.0084 H       
  50 H50           -1.2533     3.9321     1.0695 H       
  51 H51           -0.3858     3.9600    -0.4845 H       
  52 H52           -2.1652     3.9220    -0.4591 H       
  53 H53           -7.4028    -0.0988    -4.9291 H       
  54 H54           -5.9925     0.8022    -5.5352 H       
  55 H55           -6.8538    -0.3284    -6.6067 H       
@<TRIPOS>BOND
   1    1    6 ar
   2    1    7 1
   3    1    2 ar
   4    2    3 ar
   5    2   28 1
   6    3    4 ar
   7    3   23 1
   8    4    5 ar
   9    4   11 1
  10    5    6 ar
  11    5   30 1
  12    6   10 1
  13    7    8 1
  14    8    9 1
  15    8   31 1
  16    8   32 1
  17    9   10 am
  18    9   19 1
  19   10   18 2
  20   11   12 1
  21   11   33 1
  22   11   34 1
  23   12   14 ar
  24   12   13 ar
  25   13   17 ar
  26   13   35 1
  27   14   15 ar
  28   14   36 1
  29   15   16 ar
  30   15   37 1
  31   16   22 1
  32   16   17 ar
  33   19   24 1
  34   19   20 1
  35   19   38 1
  36   20   21 1
  37   20   27 1
  38   20   39 1
  39   21   40 1
  40   22   29 1
  41   23   41 1
  42   23   42 1
  43   23   43 1
  44   24   25 1
  45   24   44 1
  46   24   45 1
  47   25   26 1
  48   26   27 1
  49   26   46 1
  50   26   47 1
  51   27   48 1
  52   27   49 1
  53   28   50 1
  54   28   51 1
  55   28   52 1
  56   29   53 1
  57   29   54 1
  58   29   55 1

#	End of record

