#	Name: ASD03092560
#	Creating user name:	WinNT
#	Creation time:	15. 06. 2019 20:32

#	Modifying user name:	WinNT
#	Modification time:	15. 06. 2019 20:32

#	Program:	/corina/corina34_cracker 3.40 0067  02.08.2006

@<TRIPOS>MOLECULE
ASD03092560
  39   41    0    0    0
SMALL
NO_CHARGES


@<TRIPOS>ATOM
   1 N1             1.3340     1.6628    -0.2126 N.2     
   2 N2             2.0789     0.6292    -0.0490 N.pl3   
   3 C3             1.2973    -0.4689     0.1728 C.2     
   4 C4            -0.0132    -0.0255     0.1330 C.2     
   5 C5             0.0679     1.3463    -0.1168 C.2     
   6 C6             1.7567    -1.8473     0.4068 C.2     
   7 O7             2.9427    -2.1109     0.3503 O.2     
   8 N8             0.8631    -2.8175     0.6838 N.am    
   9 C9             1.3063    -4.2086     0.8050 C.3     
  10 N10           -3.1547    -7.5296     1.6979 N.pl3   
  11 C11           -3.4997    -7.8113     0.4041 C.2     
  12 C12           -2.6563    -7.1950    -0.4390 C.2     
  13 C13           -1.6924    -6.4584     0.3821 C.ar    
  14 C14           -0.5956    -5.6434     0.0948 C.ar    
  15 C15            0.1224    -5.0877     1.1158 C.ar    
  16 C16           -0.2296    -5.3269     2.4372 C.ar    
  17 C17           -1.3076    -6.1281     2.7432 C.ar    
  18 C18           -2.0529    -6.7042     1.7194 C.ar    
  19 C19           -4.6551    -8.6846    -0.0126 C.3     
  20 C20           -1.0962     2.2939    -0.2516 C.3     
  21 C21            3.5432     0.6281    -0.0941 C.3     
  22 H22           -0.9082    -0.6150     0.2663 H       
  23 H23           -0.0734    -2.5948     0.8028 H       
  24 H24            1.7601    -4.5284    -0.1330 H       
  25 H25            2.0386    -4.2879     1.6085 H       
  26 H26           -3.6196    -7.8590     2.4829 H       
  27 H27           -2.6833    -7.2347    -1.5179 H       
  28 H28           -0.3153    -5.4536    -0.9308 H       
  29 H29            0.3477    -4.8806     3.2334 H       
  30 H30           -1.5733    -6.3084     3.7743 H       
  31 H31           -5.5498    -8.0727    -0.1282 H       
  32 H32           -4.4211    -9.1688    -0.9607 H       
  33 H33           -4.8301    -9.4438     0.7497 H       
  34 H34           -1.4081     2.3401    -1.2950 H       
  35 H35           -1.9258     1.9397     0.3603 H       
  36 H36           -0.7966     3.2873     0.0824 H       
  37 H37            3.9379     0.7218     0.9176 H       
  38 H38            3.8924    -0.3054    -0.5354 H       
  39 H39            3.8887     1.4672    -0.6980 H       
@<TRIPOS>BOND
   1    1    2 1
   2    1    5 2
   3    2    3 1
   4    2   21 1
   5    3    4 2
   6    3    6 1
   7    4    5 1
   8    4   22 1
   9    5   20 1
  10    6    7 2
  11    6    8 am
  12    8    9 1
  13    8   23 1
  14    9   15 1
  15    9   24 1
  16    9   25 1
  17   10   11 1
  18   10   18 1
  19   10   26 1
  20   11   12 2
  21   11   19 1
  22   12   13 1
  23   12   27 1
  24   13   14 ar
  25   13   18 ar
  26   14   15 ar
  27   14   28 1
  28   15   16 ar
  29   16   17 ar
  30   16   29 1
  31   17   18 ar
  32   17   30 1
  33   19   31 1
  34   19   32 1
  35   19   33 1
  36   20   34 1
  37   20   35 1
  38   20   36 1
  39   21   37 1
  40   21   38 1
  41   21   39 1

#	End of record

