#	Name: ASD08150041
#	Creating user name:	WinNT
#	Creation time:	15. 06. 2019 21:15

#	Modifying user name:	WinNT
#	Modification time:	15. 06. 2019 21:15

#	Program:	/corina/corina34_cracker 3.40 0067  02.08.2006

@<TRIPOS>MOLECULE
ASD08150041
  43   47    0    0    0
SMALL
NO_CHARGES


@<TRIPOS>ATOM
   1 N1            -0.0155     1.2942     0.0092 N.2     
   2 C2             0.0021    -0.0041     0.0020 C.2     
   3 N3             1.1489    -0.7359    -0.0124 N.am    
   4 C4             2.3562    -0.1243    -0.0202 C.2     
   5 C5             2.3706     1.3443    -0.0129 C.ar    
   6 C6             3.5626     2.0708    -0.0195 C.ar    
   7 C7             3.5166     3.4510    -0.0117 C.ar    
   8 C8             2.2986     4.1157     0.0030 C.ar    
   9 C9             1.1119     3.4164     0.0097 C.ar    
  10 C10            1.1301     2.0208     0.0021 C.ar    
  11 O11            3.3903    -0.7666    -0.0323 O.2     
  12 F12            4.7514     1.4291    -0.0329 F       
  13 C13            1.0795    -2.1352    -0.0188 C.ar    
  14 C14            1.0563    -2.8369     1.1807 C.ar    
  15 C15            0.9878    -4.2171     1.1703 C.ar    
  16 C16            0.9430    -4.8994    -0.0318 C.ar    
  17 C17            0.9660    -4.2037    -1.2264 C.ar    
  18 C18            1.0281    -2.8235    -1.2231 C.ar    
  19 Cl19           1.1137    -1.9808     2.6898 Cl      
  20 C20           -1.3144    -0.7374     0.0106 C.3     
  21 N21           -3.9895     1.5400     0.7794 N.2     
  22 C22           -3.0705     0.6878     1.1299 C.2     
  23 N23           -2.4131     0.2316     0.0263 N.pl3   
  24 C24           -2.9686     0.8468    -1.0670 C.ar    
  25 N25           -2.7535     0.8047    -2.3777 N.ar    
  26 C26           -3.4758     1.5361    -3.2000 C.ar    
  27 N27           -4.4362     2.3380    -2.7778 N.ar    
  28 C28           -4.7239     2.4461    -1.4848 C.ar    
  29 C29           -3.9803     1.6846    -0.5675 C.ar    
  30 N30           -5.7320     3.2896    -1.0518 N.pl3   
  31 H31            4.4360     4.0176    -0.0168 H       
  32 H32            2.2809     5.1955     0.0096 H       
  33 H33            0.1708     3.9461     0.0208 H       
  34 H34            0.9697    -4.7634     2.1018 H       
  35 H35            0.8902    -5.9781    -0.0374 H       
  36 H36            0.9308    -4.7397    -2.1633 H       
  37 H37            1.0411    -2.2809    -2.1568 H       
  38 H38           -1.3903    -1.3583    -0.8820 H       
  39 H39           -1.3734    -1.3679     0.8979 H       
  40 H40           -2.8597     0.3866     2.1454 H       
  41 H41           -3.2751     1.4785    -4.2596 H       
  42 H42           -6.2381     3.8105    -1.6948 H       
  43 H43           -5.9325     3.3599    -0.1053 H       
@<TRIPOS>BOND
   1    1    2 2
   2    1   10 1
   3    2    3 1
   4    2   20 1
   5    3    4 am
   6    3   13 1
   7    4    5 1
   8    4   11 2
   9    5    6 ar
  10    5   10 ar
  11    6    7 ar
  12    6   12 1
  13    7    8 ar
  14    7   31 1
  15    8    9 ar
  16    8   32 1
  17    9   10 ar
  18    9   33 1
  19   13   14 ar
  20   13   18 ar
  21   14   15 ar
  22   14   19 1
  23   15   16 ar
  24   15   34 1
  25   16   17 ar
  26   16   35 1
  27   17   18 ar
  28   17   36 1
  29   18   37 1
  30   20   23 1
  31   20   38 1
  32   20   39 1
  33   21   22 2
  34   21   29 1
  35   22   23 1
  36   22   40 1
  37   23   24 1
  38   24   25 ar
  39   24   29 ar
  40   25   26 ar
  41   26   27 ar
  42   26   41 1
  43   27   28 ar
  44   28   29 ar
  45   28   30 1
  46   30   42 1
  47   30   43 1

#	End of record

