#	Name: ASD01810735
#	Creating user name:	WinNT
#	Creation time:	15. 06. 2019 19:25

#	Modifying user name:	WinNT
#	Modification time:	15. 06. 2019 19:25

#	Program:	/corina/corina34_cracker 3.40 0067  02.08.2006

@<TRIPOS>MOLECULE
ASD01810735
  49   53    0    0    0
SMALL
NO_CHARGES


@<TRIPOS>ATOM
   1 C1            -0.0164     1.3577     0.0095 C.2     
   2 C2             0.0021    -0.0041     0.0020 C.2     
   3 C3             1.2353    -0.6757    -0.0134 C.2     
   4 C4             2.4751     0.1081    -0.0211 C.2     
   5 N5             2.3944     1.4922    -0.0121 N.pl3   
   6 C6             3.5349     2.2306    -0.0190 C.2     
   7 C7             3.4864     3.5839    -0.0101 C.2     
   8 C8             2.2505     4.2411     0.0065 C.2     
   9 C9             1.0998     3.5074     0.0132 C.2     
  10 C10            1.1723     2.1042     0.0022 C.2     
  11 N11            2.9726    -2.0503    -0.0382 N.am    
  12 N12            3.4691    -0.7430    -0.0356 N.2     
  13 C13            1.6240    -2.0267    -0.0248 C.2     
  14 O14            0.8798    -2.9974    -0.0223 O.2     
  15 C15            3.7578    -3.2101    -0.0524 C.ar    
  16 C16            4.7112    -3.3946    -1.0487 C.ar    
  17 C17            5.4840    -4.5410    -1.0589 C.ar    
  18 C18            5.3094    -5.5026    -0.0802 C.ar    
  19 C19            4.3623    -5.3215     0.9105 C.ar    
  20 C20            3.5906    -4.1756     0.9307 C.ar    
  21 F21            4.8812    -2.4553    -2.0047 F       
  22 C22           -1.3401     2.0778     0.0197 C.3     
  23 N23           -1.8345     2.2133    -1.3570 N.3     
  24 C24           -3.2220     2.6937    -1.3731 C.3     
  25 C25           -3.6540     2.9612    -2.8167 C.3     
  26 C26           -3.5322     1.6686    -3.6285 C.3     
  27 C27           -2.0886     1.1635    -3.5556 C.3     
  28 C28           -1.7021     0.9481    -2.0906 C.3     
  29 F29           -4.3933     0.7013    -3.0994 F       
  30 F30           -3.8727     1.9202    -4.9619 F       
  31 H31           -0.9226    -0.5620     0.0083 H       
  32 H32            4.4927     1.7317    -0.0315 H       
  33 H33            4.4020     4.1566    -0.0154 H       
  34 H34            2.2080     5.3203     0.0144 H       
  35 H35            0.1398     4.0019     0.0264 H       
  36 H36            6.2243    -4.6859    -1.8318 H       
  37 H37            5.9142    -6.3974    -0.0901 H       
  38 H38            4.2284    -6.0751     1.6726 H       
  39 H39            2.8547    -4.0332     1.7083 H       
  40 H40           -2.0588     1.5088     0.6094 H       
  41 H41           -1.2122     3.0672     0.4588 H       
  42 H42           -3.8730     1.9382    -0.9333 H       
  43 H43           -3.2939     3.6154    -0.7958 H       
  44 H44           -4.6890     3.3028    -2.8295 H       
  45 H45           -3.0121     3.7266    -3.2527 H       
  46 H46           -2.0052     0.2207    -4.0963 H       
  47 H47           -1.4221     1.9006    -4.0033 H       
  48 H48           -0.6700     0.6020    -2.0344 H       
  49 H49           -2.3602     0.2007    -1.6474 H       
@<TRIPOS>BOND
   1    1    2 1
   2    1   10 2
   3    1   22 1
   4    2    3 2
   5    2   31 1
   6    3    4 1
   7    3   13 1
   8    4    5 1
   9    4   12 2
  10    5    6 1
  11    5   10 1
  12    6    7 2
  13    6   32 1
  14    7    8 1
  15    7   33 1
  16    8    9 2
  17    8   34 1
  18    9   10 1
  19    9   35 1
  20   11   12 1
  21   11   13 am
  22   11   15 1
  23   13   14 2
  24   15   16 ar
  25   15   20 ar
  26   16   17 ar
  27   16   21 1
  28   17   18 ar
  29   17   36 1
  30   18   19 ar
  31   18   37 1
  32   19   20 ar
  33   19   38 1
  34   20   39 1
  35   22   23 1
  36   22   40 1
  37   22   41 1
  38   23   24 1
  39   23   28 1
  40   24   25 1
  41   24   42 1
  42   24   43 1
  43   25   26 1
  44   25   44 1
  45   25   45 1
  46   26   27 1
  47   26   29 1
  48   26   30 1
  49   27   28 1
  50   27   46 1
  51   27   47 1
  52   28   48 1
  53   28   49 1

#	End of record

