#	Name: ASD01180183
#	Creating user name:	WinNT
#	Creation time:	15. 06. 2019 19:06

#	Modifying user name:	WinNT
#	Modification time:	15. 06. 2019 19:06

#	Program:	/corina/corina34_cracker 3.40 0067  02.08.2006

@<TRIPOS>MOLECULE
ASD01180183
  63   65    0    0    0
SMALL
NO_CHARGES


@<TRIPOS>ATOM
   1 C1             0.7892     1.4535     0.9395 C.ar    
   2 C2             0.6475     0.0842     0.7952 C.ar    
   3 C3             1.7989    -0.6850     0.6056 C.ar    
   4 C4             3.0368    -0.0473     0.5693 C.ar    
   5 N5             3.1223     1.2597     0.7118 N.ar    
   6 C6             2.0538     2.0116     0.8918 C.ar    
   7 C7             2.2134     3.5019     1.0488 C.3     
   8 C8             1.7042    -2.1572     0.4458 C.ar    
   9 C9             2.8577    -2.9157     0.2572 C.ar    
  10 C10            2.7639    -4.2847     0.1092 C.ar    
  11 C11            1.5276    -4.9039     0.1478 C.ar    
  12 C12            0.3793    -4.1559     0.3348 C.ar    
  13 C13            0.4620    -2.7869     0.4897 C.ar    
  14 C14            1.4314    -6.3990    -0.0149 C.3     
  15 C15            1.2745    -7.0526     1.3595 C.3     
  16 N16            0.2705    -6.7260    -0.8466 N.pl3   
  17 C17            0.3615    -6.6431    -2.2257 C.ar    
  18 N18           -0.7203    -6.8445    -2.9655 N.ar    
  19 C19           -0.6809    -6.7758    -4.2799 C.ar    
  20 C20            0.5147    -6.4860    -4.9389 C.ar    
  21 C21            1.6754    -6.2683    -4.1805 C.ar    
  22 C22            1.5879    -6.3434    -2.8168 C.ar    
  23 C23            0.5580    -6.4102    -6.4117 C.2     
  24 N24           -0.5623    -6.6214    -7.1306 N.am    
  25 O25            1.6044    -6.1571    -6.9769 O.2     
  26 C26           -0.5193    -6.5461    -8.5930 C.3     
  27 C27           -1.9133    -6.8237    -9.1592 C.3     
  28 C28           -1.8690    -6.7463   -10.6636 C.2     
  29 O29           -2.9848    -6.9566   -11.3795 O.3     
  30 O30           -0.8292    -6.4948   -11.2252 O.2     
  31 C31            1.2893    -8.5747     1.2051 C.3     
  32 C32            2.6654    -9.0236     0.7093 C.3     
  33 C33            0.9967    -9.2274     2.5577 C.3     
  34 H34           -0.0788     2.0799     1.0833 H       
  35 H35           -0.3279    -0.3781     0.8288 H       
  36 H36            3.9346    -0.6295     0.4234 H       
  37 H37            2.1628     3.9779     0.0696 H       
  38 H38            1.4149     3.8880     1.6823 H       
  39 H39            3.1781     3.7175     1.5082 H       
  40 H40            3.8235    -2.4332     0.2265 H       
  41 H41            3.6573    -4.8735    -0.0375 H       
  42 H42           -0.5835    -4.6444     0.3638 H       
  43 H43           -0.4352    -2.2037     0.6360 H       
  44 H44            2.3374    -6.7715    -0.4931 H       
  45 H45            2.0976    -6.7447     2.0043 H       
  46 H46            0.3289    -6.7417     1.8038 H       
  47 H47           -0.5618    -7.0006    -0.4311 H       
  48 H48           -1.5808    -6.9453    -4.8525 H       
  49 H49            2.6153    -6.0422    -4.6619 H       
  50 H50            2.4627    -6.1810    -2.2047 H       
  51 H51           -1.3970    -6.8233    -6.6797 H       
  52 H52           -0.1957    -5.5504    -8.8962 H       
  53 H53            0.1822    -7.2880    -8.9746 H       
  54 H54           -2.2369    -7.8195    -8.8560 H       
  55 H55           -2.6148    -6.0818    -8.7777 H       
  56 H56           -2.9070    -6.8963   -12.3415 H       
  57 H57            0.5280    -8.8743     0.4849 H       
  58 H58            3.4181    -8.7844     1.4605 H       
  59 H59            2.6554   -10.0995     0.5347 H       
  60 H60            2.9029    -8.5068    -0.2206 H       
  61 H61            0.0164    -8.9076     2.9109 H       
  62 H62            1.0073   -10.3118     2.4477 H       
  63 H63            1.7580    -8.9278     3.2779 H       
@<TRIPOS>BOND
   1    1    2 ar
   2    1    6 ar
   3    1   34 1
   4    2    3 ar
   5    2   35 1
   6    3    4 ar
   7    3    8 1
   8    4    5 ar
   9    4   36 1
  10    5    6 ar
  11    6    7 1
  12    7   37 1
  13    7   38 1
  14    7   39 1
  15    8    9 ar
  16    8   13 ar
  17    9   10 ar
  18    9   40 1
  19   10   11 ar
  20   10   41 1
  21   11   12 ar
  22   11   14 1
  23   12   13 ar
  24   12   42 1
  25   13   43 1
  26   14   15 1
  27   14   16 1
  28   14   44 1
  29   15   31 1
  30   15   45 1
  31   15   46 1
  32   16   17 1
  33   16   47 1
  34   17   18 ar
  35   17   22 ar
  36   18   19 ar
  37   19   20 ar
  38   19   48 1
  39   20   21 ar
  40   20   23 1
  41   21   22 ar
  42   21   49 1
  43   22   50 1
  44   23   24 am
  45   23   25 2
  46   24   26 1
  47   24   51 1
  48   26   27 1
  49   26   52 1
  50   26   53 1
  51   27   28 1
  52   27   54 1
  53   27   55 1
  54   28   29 1
  55   28   30 2
  56   29   56 1
  57   31   32 1
  58   31   33 1
  59   31   57 1
  60   32   58 1
  61   32   59 1
  62   32   60 1
  63   33   61 1
  64   33   62 1
  65   33   63 1

#	End of record

