#	Name: ASD02500086
#	Creating user name:	WinNT
#	Creation time:	15. 06. 2019 20:22

#	Modifying user name:	WinNT
#	Modification time:	15. 06. 2019 20:22

#	Program:	/corina/corina34_cracker 3.40 0067  02.08.2006

@<TRIPOS>MOLECULE
ASD02500086
  51   54    0    0    0
SMALL
NO_CHARGES


@<TRIPOS>ATOM
   1 N1             0.3127     1.4105    -0.2224 N.am    
   2 N2            -3.8128    -5.7115    -2.1690 N.3     
   3 C3            -3.6971    -6.2314    -0.7999 C.3     
   4 C4            -2.2643    -6.0238    -0.2977 C.3     
   5 N5            -1.9152    -4.6038    -0.4553 N.am    
   6 C6            -2.1338    -3.9748    -1.7667 C.3     
   7 C7            -3.5717    -4.2631    -2.2111 C.3     
   8 C8            -1.4087    -3.8975     0.5749 C.2     
   9 O9            -1.3229    -4.4054     1.6763 O.2     
  10 C10           -0.9584    -2.5083     0.3660 C.ar    
  11 C11           -1.4199    -1.4889     1.2041 C.ar    
  12 C12           -0.9978    -0.1942     1.0071 C.ar    
  13 C13           -0.1118     0.1011    -0.0256 C.ar    
  14 C14            0.3496    -0.9117    -0.8617 C.ar    
  15 C15           -0.0648    -2.2095    -0.6665 C.ar    
  16 S16            1.9209     1.7346    -0.4480 S.o2    
  17 C17            2.7586     1.2728     1.0317 C.ar    
  18 O18            2.3718     0.8437    -1.4591 O.2     
  19 O19            2.0352     3.1474    -0.5496 O.2     
  20 C20            2.4928     1.9510     2.2338 C.ar    
  21 C21            3.1791     1.5615     3.4109 C.ar    
  22 C22            4.1078     0.5099     3.3566 C.ar    
  23 C23            4.3384    -0.1238     2.1736 C.ar    
  24 C24            3.6614     0.2544     1.0162 C.ar    
  25 N25            1.6077     2.9518     2.2803 N.ar    
  26 C26            1.3564     3.5878     3.3987 C.ar    
  27 C27            1.9960     3.2551     4.5910 C.ar    
  28 C28            2.9115     2.2420     4.6138 C.ar    
  29 Ar29          -5.5929    -6.1652    -2.9598 Du      
  30 C30           -2.3793    -1.8075     2.3218 C.3     
  31 H31           -0.3337     2.1337    -0.2316 H       
  32 H32           -4.3913    -5.6998    -0.1491 H       
  33 H33           -3.9342    -7.2953    -0.7936 H       
  34 H34           -2.2012    -6.3018     0.7544 H       
  35 H35           -1.5788    -6.6366    -0.8830 H       
  36 H36           -1.9845    -2.8981    -1.6858 H       
  37 H37           -1.4357    -4.3906    -2.4932 H       
  38 H38           -3.7179    -3.8995    -3.2282 H       
  39 H39           -4.2677    -3.7589    -1.5406 H       
  40 H40           -1.3542     0.5938     1.6539 H       
  41 H41            1.0366    -0.6794    -1.6621 H       
  42 H42            0.2937    -2.9949    -1.3153 H       
  43 H43            4.6364     0.2056     4.2479 H       
  44 H44            5.0529    -0.9326     2.1328 H       
  45 H45            3.8616    -0.2640     0.0902 H       
  46 H46            0.6347     4.3913     3.3957 H       
  47 H47            1.7679     3.7980     5.4964 H       
  48 H48            3.4164     1.9706     5.5292 H       
  49 H49           -1.8217    -1.9684     3.2444 H       
  50 H50           -3.0707    -0.9756     2.4554 H       
  51 H51           -2.9394    -2.7092     2.0738 H       
@<TRIPOS>BOND
   1    1   13 1
   2    1   16 am
   3    1   31 1
   4    2    3 1
   5    2   29 1
   6    2    7 1
   7    3    4 1
   8    3   32 1
   9    3   33 1
  10    4    5 1
  11    4   34 1
  12    4   35 1
  13    5    6 1
  14    5    8 am
  15    6    7 1
  16    6   36 1
  17    6   37 1
  18    7   38 1
  19    7   39 1
  20    8    9 2
  21    8   10 1
  22   10   11 ar
  23   10   15 ar
  24   11   12 ar
  25   11   30 1
  26   12   13 ar
  27   12   40 1
  28   13   14 ar
  29   14   15 ar
  30   14   41 1
  31   15   42 1
  32   16   17 1
  33   16   18 2
  34   16   19 2
  35   17   20 ar
  36   17   24 ar
  37   20   21 ar
  38   20   25 ar
  39   21   22 ar
  40   21   28 ar
  41   22   23 ar
  42   22   43 1
  43   23   24 ar
  44   23   44 1
  45   24   45 1
  46   25   26 ar
  47   26   27 ar
  48   26   46 1
  49   27   28 ar
  50   27   47 1
  51   28   48 1
  52   30   49 1
  53   30   50 1
  54   30   51 1

#	End of record

