#	Name: ASD01884157
#	Creating user name:	WinNT
#	Creation time:	15. 06. 2019 19:47

#	Modifying user name:	WinNT
#	Modification time:	15. 06. 2019 19:47

#	Program:	/corina/corina34_cracker 3.40 0067  02.08.2006

@<TRIPOS>MOLECULE
ASD01884157
  39   41    0    0    0
SMALL
NO_CHARGES


@<TRIPOS>ATOM
   1 C1            -1.2826    -0.6765    -0.0460 C.ar    
   2 C2            -0.0590    -0.0464    -0.2666 C.ar    
   3 C3            -0.0089     1.3459    -0.1895 C.ar    
   4 C4            -1.1622     2.0432     0.0998 C.ar    
   5 N5            -2.3031     1.4106     0.3031 N.ar    
   6 C6            -2.3934     0.0948     0.2335 C.ar    
   7 Cl7           -3.9241    -0.6755     0.5116 Cl      
   8 N8             1.0833    -0.7869    -0.5559 N.3     
   9 C9             1.4980    -1.5887     0.6023 C.3     
  10 C10            2.6646    -2.4960     0.2050 C.3     
  11 C11            3.3592    -0.7733    -1.4618 C.3     
  12 C12            2.1724     0.0840    -1.0161 C.3     
  13 C13           -1.3931    -2.1777    -0.1177 C.3     
  14 F14           -1.3008    -2.7142     1.1711 F       
  15 F15           -2.6244    -2.5284    -0.6817 F       
  16 F16           -0.3565    -2.6843    -0.9090 F       
  17 C17            3.8308    -1.6339    -0.2864 C.3     
  18 F18            4.2705    -0.8063     0.7522 F       
  19 C19            4.9608    -2.5241    -0.7355 C.ar    
  20 C20            6.2235    -1.9949    -0.9264 C.ar    
  21 C21            7.2601    -2.8115    -1.3384 C.ar    
  22 C22            7.0340    -4.1572    -1.5591 C.ar    
  23 C23            5.7715    -4.6866    -1.3674 C.ar    
  24 C24            4.7359    -3.8709    -0.9512 C.ar    
  25 H25            0.9210     1.8701    -0.3540 H       
  26 H26           -1.1321     3.1210     0.1614 H       
  27 H27            1.8115    -0.9263     1.4091 H       
  28 H28            0.6609    -2.2001     0.9392 H       
  29 H29            2.9823    -3.0797     1.0690 H       
  30 H30            2.3477    -3.1681    -0.5924 H       
  31 H31            3.0532    -1.4184    -2.2854 H       
  32 H32            4.1732    -0.1262    -1.7887 H       
  33 H33            1.8252     0.6875    -1.8547 H       
  34 H34            2.4828     0.7386    -0.2017 H       
  35 H35            6.4002    -0.9435    -0.7540 H       
  36 H36            8.2465    -2.3979    -1.4882 H       
  37 H37            7.8437    -4.7950    -1.8817 H       
  38 H38            5.5948    -5.7379    -1.5401 H       
  39 H39            3.7504    -4.2851    -0.7978 H       
@<TRIPOS>BOND
   1    1    2 ar
   2    1   13 1
   3    1    6 ar
   4    2    3 ar
   5    2    8 1
   6    3    4 ar
   7    3   25 1
   8    4    5 ar
   9    4   26 1
  10    5    6 ar
  11    6    7 1
  12    8    9 1
  13    8   12 1
  14    9   10 1
  15    9   27 1
  16    9   28 1
  17   10   17 1
  18   10   29 1
  19   10   30 1
  20   11   12 1
  21   11   17 1
  22   11   31 1
  23   11   32 1
  24   12   33 1
  25   12   34 1
  26   13   14 1
  27   13   15 1
  28   13   16 1
  29   17   18 1
  30   17   19 1
  31   19   20 ar
  32   19   24 ar
  33   20   21 ar
  34   20   35 1
  35   21   22 ar
  36   21   36 1
  37   22   23 ar
  38   22   37 1
  39   23   24 ar
  40   23   38 1
  41   24   39 1

#	End of record

