#	Name: ASD04230101
#	Creating user name:	WinNT
#	Creation time:	15. 06. 2019 20:48

#	Modifying user name:	WinNT
#	Modification time:	15. 06. 2019 20:48

#	Program:	/corina/corina34_cracker 3.40 0067  02.08.2006

@<TRIPOS>MOLECULE
ASD04230101
  46   50    0    0    0
SMALL
NO_CHARGES


@<TRIPOS>ATOM
   1 C1             1.5359     4.6863     1.7196 C.ar    
   2 C2             2.5438     5.3841     2.3694 C.ar    
   3 C3             3.8003     4.8590     2.4681 C.ar    
   4 C4             4.0823     3.6081     1.9004 C.ar    
   5 C5             3.0563     2.8818     1.2692 C.ar    
   6 C6             1.7831     3.4397     1.1725 C.ar    
   7 C7             5.3932     3.0678     1.9621 C.2     
   8 C8             5.6627     1.9284     1.2157 C.2     
   9 C9             4.5671     1.3877     0.3905 C.2     
  10 O10            3.2978     1.6422     0.7795 O.3     
  11 C11            6.9878     1.2871     1.2466 C.2     
  12 N12            7.2188     0.1818     0.5108 N.am    
  13 O13            7.8739     1.7548     1.9361 O.2     
  14 C14            8.5059    -0.3623     0.4513 C.ar    
  15 C15            8.6753    -1.7390     0.3691 C.ar    
  16 C16            9.9457    -2.2802     0.3102 C.ar    
  17 C17           11.0532    -1.4563     0.3322 C.ar    
  18 C18           10.8926    -0.0740     0.4145 C.ar    
  19 C19            9.6135     0.4724     0.4686 C.ar    
  20 C20           12.0821     0.8129     0.4387 C.ar    
  21 O21            4.7981     0.7328    -0.6087 O.2     
  22 O22            0.7869     2.7610     0.5434 O.3     
  23 C23           13.3558     0.2653     0.3794 C.ar    
  24 C24           14.4661     1.1092     0.4024 C.ar    
  25 C25           14.2882     2.5029     0.4853 C.ar    
  26 C26           13.0008     3.0297     0.5434 C.ar    
  27 C27           11.9175     2.1999     0.5156 C.ar    
  28 C28           15.9137     0.8873     0.3576 C.2     
  29 C29           16.4972     2.0948     0.4130 C.2     
  30 N30           15.5422     3.0716     0.4896 N.pl3   
  31 H31            0.5488     5.1179     1.6441 H       
  32 H32            2.3327     6.3515     2.8007 H       
  33 H33            4.5762     5.4066     2.9825 H       
  34 H34            6.1574     3.5287     2.5704 H       
  35 H35            6.4924    -0.2364     0.0225 H       
  36 H36            7.8121    -2.3878     0.3516 H       
  37 H37           10.0724    -3.3509     0.2471 H       
  38 H38           12.0443    -1.8828     0.2860 H       
  39 H39            9.4840     1.5428     0.5321 H       
  40 H40            0.2741     2.1849     1.1268 H       
  41 H41           13.4863    -0.8050     0.3162 H       
  42 H42           12.8588     4.0984     0.6071 H       
  43 H43           10.9228     2.6182     0.5608 H       
  44 H44           16.4159    -0.0667     0.2928 H       
  45 H45           17.5629     2.2695     0.3991 H       
  46 H46           15.7219     4.0236     0.5391 H       
@<TRIPOS>BOND
   1    1    2 ar
   2    1    6 ar
   3    1   31 1
   4    2    3 ar
   5    2   32 1
   6    3    4 ar
   7    3   33 1
   8    4    5 ar
   9    4    7 1
  10    5    6 ar
  11    5   10 1
  12    6   22 1
  13    7    8 2
  14    7   34 1
  15    8    9 1
  16    8   11 1
  17    9   10 1
  18    9   21 2
  19   11   12 am
  20   11   13 2
  21   12   14 1
  22   12   35 1
  23   14   15 ar
  24   14   19 ar
  25   15   16 ar
  26   15   36 1
  27   16   17 ar
  28   16   37 1
  29   17   18 ar
  30   17   38 1
  31   18   19 ar
  32   18   20 1
  33   19   39 1
  34   20   23 ar
  35   20   27 ar
  36   22   40 1
  37   23   24 ar
  38   23   41 1
  39   24   25 ar
  40   24   28 1
  41   25   26 ar
  42   25   30 1
  43   26   27 ar
  44   26   42 1
  45   27   43 1
  46   28   29 2
  47   28   44 1
  48   29   30 1
  49   29   45 1
  50   30   46 1

#	End of record

