#	Name: ASD01814264
#	Creating user name:	WinNT
#	Creation time:	15. 06. 2019 19:32

#	Modifying user name:	WinNT
#	Modification time:	15. 06. 2019 19:32

#	Program:	/corina/corina34_cracker 3.40 0067  02.08.2006

@<TRIPOS>MOLECULE
ASD01814264
  56   60    0    0    0
SMALL
NO_CHARGES


@<TRIPOS>ATOM
   1 C1            -0.1887     1.1279     0.6589 C.ar    
   2 C2            -0.0775    -0.2585     0.6317 C.ar    
   3 C3             1.1251    -0.8618     0.4133 C.ar    
   4 C4             2.2713    -0.0777     0.2121 C.ar    
   5 C5             2.1543     1.3335     0.2404 C.ar    
   6 C6             0.9053     1.9204     0.4671 C.ar    
   7 C7             3.5292    -0.6738    -0.0166 C.ar    
   8 C8             4.6369     0.0807    -0.2115 C.ar    
   9 C9             4.5757     1.4828    -0.1933 C.ar    
  10 C10            3.3525     2.1408     0.0301 C.ar    
  11 C11            5.7700     2.3109    -0.4043 C.2     
  12 N12            5.6114     3.6544    -0.3698 N.am    
  13 C13            4.3886     4.1978    -0.1470 C.2     
  14 N14            3.3174     3.4838     0.0420 N.2     
  15 C15            3.6424    -2.1763    -0.0442 C.3     
  16 C16            3.3865    -2.6737    -1.4435 C.2     
  17 C17            2.0741    -2.9168    -1.8726 C.2     
  18 C18            1.8603    -3.3664    -3.1425 C.2     
  19 C19            2.9598    -3.5759    -3.9923 C.2     
  20 N20            4.2086    -3.3337    -3.5506 N.am    
  21 C21            4.4230    -2.8809    -2.2888 C.2     
  22 O22            6.8613     1.8079    -0.6024 O.2     
  23 O23            2.7827    -3.9780    -5.1311 O.2     
  24 C24            6.7691     4.5286    -0.5741 C.3     
  25 C25            6.9701     5.4062     0.6630 C.3     
  26 C26            8.1792     6.3192     0.4497 C.3     
  27 C27            7.9379     7.2078    -0.7723 C.3     
  28 C28            7.7370     6.3302    -2.0094 C.3     
  29 C29            6.5279     5.4172    -1.7960 C.3     
  30 O30            7.1954     4.5763     1.8043 O.3     
  31 C31            5.3484    -3.5561    -4.4437 C.3     
  32 H32           -1.1534     1.5825     0.8294 H       
  33 H33           -0.9571    -0.8659     0.7864 H       
  34 H34            1.1956    -1.9394     0.3954 H       
  35 H35            0.8071     2.9957     0.4899 H       
  36 H36            5.5856    -0.4058    -0.3839 H       
  37 H37            4.3001     5.2739    -0.1256 H       
  38 H38            4.6441    -2.4709     0.2686 H       
  39 H39            2.9078    -2.6085     0.6351 H       
  40 H40            1.2417    -2.7503    -1.2049 H       
  41 H41            0.8565    -3.5597    -3.4911 H       
  42 H42            5.4321    -2.6925    -1.9531 H       
  43 H43            7.6591     3.9208    -0.7369 H       
  44 H44            6.0800     6.0140     0.8258 H       
  45 H45            8.3223     6.9444     1.3310 H       
  46 H46            9.0692     5.7114     0.2869 H       
  47 H47            7.0479     7.8156    -0.6095 H       
  48 H48            8.7993     7.8582    -0.9243 H       
  49 H49            7.5651     6.9632    -2.8799 H       
  50 H50            8.6270     5.7224    -2.1721 H       
  51 H51            6.3847     4.7920    -2.6773 H       
  52 H52            5.6379     6.0250    -1.6333 H       
  53 H53            7.3312     5.0667     2.6265 H       
  54 H54            4.9894    -3.9126    -5.4092 H       
  55 H55            5.8907    -2.6205    -4.5806 H       
  56 H56            6.0133    -4.3006    -4.0058 H       
@<TRIPOS>BOND
   1    1    2 ar
   2    1    6 ar
   3    1   32 1
   4    2    3 ar
   5    2   33 1
   6    3    4 ar
   7    3   34 1
   8    4    5 ar
   9    4    7 ar
  10    5    6 ar
  11    5   10 ar
  12    6   35 1
  13    7    8 ar
  14    7   15 1
  15    8    9 ar
  16    8   36 1
  17    9   10 ar
  18    9   11 1
  19   10   14 1
  20   11   12 am
  21   11   22 2
  22   12   13 1
  23   12   24 1
  24   13   14 2
  25   13   37 1
  26   15   16 1
  27   15   38 1
  28   15   39 1
  29   16   17 1
  30   16   21 2
  31   17   18 2
  32   17   40 1
  33   18   19 1
  34   18   41 1
  35   19   20 am
  36   19   23 2
  37   20   21 1
  38   20   31 1
  39   21   42 1
  40   24   25 1
  41   24   29 1
  42   24   43 1
  43   25   26 1
  44   25   30 1
  45   25   44 1
  46   26   27 1
  47   26   45 1
  48   26   46 1
  49   27   28 1
  50   27   47 1
  51   27   48 1
  52   28   29 1
  53   28   49 1
  54   28   50 1
  55   29   51 1
  56   29   52 1
  57   30   53 1
  58   31   54 1
  59   31   55 1
  60   31   56 1

#	End of record

