#	Name: ASD01910451
#	Creating user name:	WinNT
#	Creation time:	15. 06. 2019 19:55

#	Modifying user name:	WinNT
#	Modification time:	15. 06. 2019 19:55

#	Program:	/corina/corina34_cracker 3.40 0067  02.08.2006

@<TRIPOS>MOLECULE
ASD01910451
  43   46    0    0    0
SMALL
NO_CHARGES


@<TRIPOS>ATOM
   1 C1            -0.6094     2.2747     0.1984 C.ar    
   2 C2            -0.7307     0.8958     0.2627 C.ar    
   3 C3             0.4013     0.0978     0.3021 C.ar    
   4 C4             1.6548     0.6735     0.2780 C.ar    
   5 C5             1.7814     2.0598     0.2133 C.ar    
   6 C6             0.6403     2.8587     0.1733 C.ar    
   7 F7            -1.9564     0.3280     0.2874 F       
   8 C8             3.1275     2.6836     0.1876 C.2     
   9 N9             3.3980     4.0071     0.1263 N.2     
  10 C10            4.7045     4.0996     0.1262 C.2     
  11 O11            5.1872     2.8545     0.1863 O.3     
  12 N12            4.2746     2.0566     0.2258 N.2     
  13 C13            5.5118     5.3708     0.0686 C.3     
  14 C14            6.3904     5.4748     1.3174 C.3     
  15 C15            7.1863     6.7813     1.2757 C.3     
  16 C16            8.0960     6.7814     0.0431 C.3     
  17 N17            7.2749     6.5366    -1.1505 N.am    
  18 C18            6.4025     5.3548    -1.1777 C.3     
  19 C19            7.3213     7.3802    -2.2006 C.2     
  20 C20            6.5916     7.0539    -3.4430 C.ar    
  21 O21            7.9636     8.4096    -2.1254 O.2     
  22 C22            5.8989     8.0449    -4.1391 C.ar    
  23 N23            5.2480     7.7555    -5.2467 N.ar    
  24 C24            5.2232     6.5301    -5.7408 C.ar    
  25 C25            5.8878     5.4900    -5.1070 C.ar    
  26 C26            6.5889     5.7451    -3.9443 C.ar    
  27 F27            4.5399     6.2863    -6.8805 F       
  28 H28           -1.4943     2.8928     0.1633 H       
  29 H29            0.3023    -0.9765     0.3522 H       
  30 H30            2.5366     0.0508     0.3095 H       
  31 H31            0.7340     3.9334     0.1228 H       
  32 H32            4.8391     6.2273     0.0247 H       
  33 H33            5.7605     5.4616     2.2068 H       
  34 H34            7.0794     4.6307     1.3480 H       
  35 H35            6.4983     7.6249     1.2201 H       
  36 H36            7.7942     6.8659     2.1765 H       
  37 H37            8.5908     7.7485    -0.0458 H       
  38 H38            8.8432     5.9938     0.1404 H       
  39 H39            7.0116     4.4509    -1.1799 H       
  40 H40            5.7799     5.3806    -2.0720 H       
  41 H41            5.8962     9.0584    -3.7661 H       
  42 H42            5.8605     4.4926    -5.5202 H       
  43 H43            7.1155     4.9545    -3.4305 H       
@<TRIPOS>BOND
   1    1    2 ar
   2    1    6 ar
   3    1   28 1
   4    2    3 ar
   5    2    7 1
   6    3    4 ar
   7    3   29 1
   8    4    5 ar
   9    4   30 1
  10    5    6 ar
  11    5    8 1
  12    6   31 1
  13    8    9 1
  14    8   12 2
  15    9   10 2
  16   10   11 1
  17   10   13 1
  18   11   12 1
  19   13   14 1
  20   13   18 1
  21   13   32 1
  22   14   15 1
  23   14   33 1
  24   14   34 1
  25   15   16 1
  26   15   35 1
  27   15   36 1
  28   16   17 1
  29   16   37 1
  30   16   38 1
  31   17   18 1
  32   17   19 am
  33   18   39 1
  34   18   40 1
  35   19   20 1
  36   19   21 2
  37   20   22 ar
  38   20   26 ar
  39   22   23 ar
  40   22   41 1
  41   23   24 ar
  42   24   25 ar
  43   24   27 1
  44   25   26 ar
  45   25   42 1
  46   26   43 1

#	End of record

