#	Name: ASD01812821
#	Creating user name:	WinNT
#	Creation time:	15. 06. 2019 19:29

#	Modifying user name:	WinNT
#	Modification time:	15. 06. 2019 19:29

#	Program:	/corina/corina34_cracker 3.40 0067  02.08.2006

@<TRIPOS>MOLECULE
ASD01812821
  57   60    0    0    0
SMALL
NO_CHARGES


@<TRIPOS>ATOM
   1 N1            -0.0158     1.3147     0.0093 N.ar    
   2 C2             0.0021    -0.0041     0.0020 C.ar    
   3 C3             1.1989    -0.7033    -0.0127 C.ar    
   4 C4             2.3829    -0.0013    -0.0202 C.ar    
   5 C5             2.3448     1.3978    -0.0128 C.ar    
   6 C6             1.0955     2.0332     0.0025 C.ar    
   7 C7             3.8373    -0.3889    -0.0363 C.3     
   8 N8             4.5955     0.8684    -0.0373 N.am    
   9 C9             3.7280     1.8961    -0.0237 C.2     
  10 C10            6.0558     0.9844    -0.0504 C.3     
  11 C11            6.5432     1.0311    -1.4757 C.ar    
  12 C12            6.4763     2.2162    -2.1897 C.ar    
  13 C13            6.9225     2.2630    -3.4977 C.ar    
  14 C14            7.4392     1.1163    -4.0952 C.ar    
  15 C15            7.5038    -0.0725    -3.3715 C.ar    
  16 C16            7.0611    -0.1080    -2.0647 C.ar    
  17 O17            1.0255     3.3856     0.0100 O.3     
  18 O18            4.0429     3.0706    -0.0212 O.2     
  19 C19            7.9195     1.1602    -5.4995 C.2     
  20 C20            8.4410     0.1162    -6.2062 C.2     
  21 C21            7.9140     2.2857    -6.3462 C.2     
  22 N22            8.4140     1.9286    -7.4995 N.2     
  23 N23            8.7470     0.5700    -7.4384 N.pl3   
  24 C24            9.3328    -0.2204    -8.5239 C.3     
  25 C25           -0.2795     3.9677     0.0251 C.3     
  26 C26           -0.1594     5.4699     0.0316 C.2     
  27 F27            5.9741     3.3272    -1.6079 F       
  28 O28           -2.5479     5.6264     0.0547 O.3     
  29 N29           -1.2692     6.2345     0.0458 N.am    
  30 C30            8.4460    -0.1164    -9.7664 C.3     
  31 O31            0.9358     5.9908     0.0240 O.2     
  32 C32           -1.1525     7.6949     0.0521 C.3     
  33 C33           -3.0606     5.3702     1.3637 C.3     
  34 H34           -0.9309    -0.5480     0.0080 H       
  35 H35            1.2023    -1.7833    -0.0178 H       
  36 H36            4.0797    -0.9721     0.8522 H       
  37 H37            4.0624    -0.9631    -0.9351 H       
  38 H38            6.3524     1.8979     0.4651 H       
  39 H39            6.4932     0.1235     0.4552 H       
  40 H40            6.8701     3.1868    -4.0546 H       
  41 H41            7.9035    -0.9643    -3.8312 H       
  42 H42            7.1155    -1.0283    -1.5021 H       
  43 H43            8.5833    -0.8913    -5.8441 H       
  44 H44            7.5579     3.2720    -6.0876 H       
  45 H45           10.3277     0.1604    -8.7546 H       
  46 H46            9.4054    -1.2634    -8.2156 H       
  47 H47           -0.8289     3.6509    -0.8614 H       
  48 H48           -0.8123     3.6419     0.9185 H       
  49 H49            7.4511    -0.4972    -9.5357 H       
  50 H50            8.3734     0.9266   -10.0747 H       
  51 H51            8.8819    -0.7044   -10.5741 H       
  52 H52           -1.1332     8.0622    -0.9739 H       
  53 H53           -2.0059     8.1253     0.5761 H       
  54 H54           -0.2317     7.9836     0.5588 H       
  55 H55           -2.3829     4.7019     1.8950 H       
  56 H56           -3.1473     6.3093     1.9102 H       
  57 H57           -4.0427     4.9040     1.2845 H       
@<TRIPOS>BOND
   1    1    2 ar
   2    1    6 ar
   3    2    3 ar
   4    2   34 1
   5    3    4 ar
   6    3   35 1
   7    4    7 1
   8    4    5 ar
   9    5    6 ar
  10    5    9 1
  11    6   17 1
  12    7    8 1
  13    7   36 1
  14    7   37 1
  15    8    9 am
  16    8   10 1
  17    9   18 2
  18   10   11 1
  19   10   38 1
  20   10   39 1
  21   11   12 ar
  22   11   16 ar
  23   12   13 ar
  24   12   27 1
  25   13   14 ar
  26   13   40 1
  27   14   15 ar
  28   14   19 1
  29   15   16 ar
  30   15   41 1
  31   16   42 1
  32   17   25 1
  33   19   21 1
  34   19   20 2
  35   20   23 1
  36   20   43 1
  37   21   22 2
  38   21   44 1
  39   22   23 1
  40   23   24 1
  41   24   30 1
  42   24   45 1
  43   24   46 1
  44   25   26 1
  45   25   47 1
  46   25   48 1
  47   26   29 am
  48   26   31 2
  49   28   29 1
  50   28   33 1
  51   29   32 1
  52   30   49 1
  53   30   50 1
  54   30   51 1
  55   32   52 1
  56   32   53 1
  57   32   54 1
  58   33   55 1
  59   33   56 1
  60   33   57 1

#	End of record

