#	Name: ASD01940233
#	Creating user name:	WinNT
#	Creation time:	15. 06. 2019 20:12

#	Modifying user name:	WinNT
#	Modification time:	15. 06. 2019 20:12

#	Program:	/corina/corina34_cracker 3.40 0067  02.08.2006

@<TRIPOS>MOLECULE
ASD01940233
  42   44    0    0    0
SMALL
NO_CHARGES


@<TRIPOS>ATOM
   1 O1             0.9811    -5.3040    -2.3140 O.3     
   2 C2             1.6077    -4.7148    -1.2824 C.2     
   3 C3             1.2650    -3.4142    -1.2637 C.2     
   4 C4             0.3804    -3.2081    -2.3472 C.2     
   5 C5             0.2355    -4.3950    -2.9632 C.2     
   6 S6             1.8127    -2.2006    -0.1097 S.o2    
   7 O7             3.2288    -2.3057    -0.0585 O.2     
   8 O8             1.1341    -0.9968    -0.4411 O.2     
   9 N9             1.2558    -2.6559     1.3819 N.am    
  10 C10           -0.6187    -4.6600    -4.1762 C.3     
  11 C11            2.5367    -5.3955    -0.3105 C.3     
  12 C12           -0.1182    -2.6265     1.6558 C.ar    
  13 C13           -0.5674    -2.3488     2.9462 C.ar    
  14 C14           -1.9296    -2.3205     3.2118 C.ar    
  15 C15           -2.8381    -2.5680     2.1945 C.ar    
  16 C16           -2.3897    -2.8438     0.9146 C.ar    
  17 C17           -1.0336    -2.8678     0.6429 C.ar    
  18 N18            0.3540    -2.0994     3.9726 N.pl3   
  19 C19           -0.0412    -2.2111     5.3094 C.ar    
  20 C20           -0.3829    -3.4538     5.8340 C.ar    
  21 C21           -0.7725    -3.5600     7.1559 C.ar    
  22 C22           -0.8231    -2.4320     7.9561 C.ar    
  23 C23           -0.4843    -1.1960     7.4366 C.ar    
  24 C24           -0.0880    -1.0835     6.1176 C.ar    
  25 I25           -1.4148    -2.5972     9.9590 I       
  26 F26           -0.3344    -4.5547     5.0524 F       
  27 F27           -4.1638    -2.5404     2.4531 F       
  28 F28           -2.3695    -2.0523     4.4607 F       
  29 H29           -0.0891    -2.2764    -2.6265 H       
  30 H30            1.8806    -2.9430     2.0660 H       
  31 H31           -0.5416    -5.7116    -4.4522 H       
  32 H32           -1.6572    -4.4192    -3.9488 H       
  33 H33           -0.2752    -4.0407    -5.0048 H       
  34 H34            2.5574    -6.4657    -0.5164 H       
  35 H35            3.5406    -4.9851    -0.4193 H       
  36 H36            2.1840    -5.2281     0.7072 H       
  37 H37           -3.1006    -3.0369     0.1248 H       
  38 H38           -0.6875    -3.0786    -0.3582 H       
  39 H39            1.2657    -1.8493     3.7557 H       
  40 H40           -1.0381    -4.5238     7.5645 H       
  41 H41           -0.5256    -0.3178     8.0639 H       
  42 H42            0.1806    -0.1182     5.7145 H       
@<TRIPOS>BOND
   1    1    2 1
   2    1    5 1
   3    2    3 2
   4    2   11 1
   5    3    4 1
   6    3    6 1
   7    4    5 2
   8    4   29 1
   9    5   10 1
  10    6    7 2
  11    6    8 2
  12    6    9 am
  13    9   12 1
  14    9   30 1
  15   10   31 1
  16   10   32 1
  17   10   33 1
  18   11   34 1
  19   11   35 1
  20   11   36 1
  21   12   13 ar
  22   12   17 ar
  23   13   14 ar
  24   13   18 1
  25   14   15 ar
  26   14   28 1
  27   15   16 ar
  28   15   27 1
  29   16   17 ar
  30   16   37 1
  31   17   38 1
  32   18   19 1
  33   18   39 1
  34   19   20 ar
  35   19   24 ar
  36   20   21 ar
  37   20   26 1
  38   21   22 ar
  39   21   40 1
  40   22   23 ar
  41   22   25 1
  42   23   24 ar
  43   23   41 1
  44   24   42 1

#	End of record

