#	Name: ASD01940466
#	Creating user name:	WinNT
#	Creation time:	15. 06. 2019 20:12

#	Modifying user name:	WinNT
#	Modification time:	15. 06. 2019 20:12

#	Program:	/corina/corina34_cracker 3.40 0067  02.08.2006

@<TRIPOS>MOLECULE
ASD01940466
  69   71    0    0    0
SMALL
NO_CHARGES


@<TRIPOS>ATOM
   1 N1             2.1170     3.0031    -2.9304 N.am    
   2 N2             3.0648     2.1802    -3.5471 N.2     
   3 C3             3.8556     1.6613    -2.6530 C.2     
   4 C4             3.4329     2.1515    -1.3440 C.ar    
   5 C5             3.8924     1.9441    -0.0334 C.ar    
   6 C6             3.2412     2.5855     1.0287 C.ar    
   7 C7             2.1436     3.4232     0.7744 C.ar    
   8 C8             1.7002     3.6218    -0.4974 C.ar    
   9 C9             2.3317     2.9950    -1.5726 C.ar    
  10 N10            4.9748     1.1162     0.2064 N.pl3   
  11 C11            4.7697    -0.2366     0.4966 C.ar    
  12 C12            5.8527    -1.1075     0.5638 C.ar    
  13 C13            5.6454    -2.4437     0.8514 C.ar    
  14 C14            4.3633    -2.9140     1.0714 C.ar    
  15 C15            3.2857    -2.0507     1.0047 C.ar    
  16 C16            3.4857    -0.7126     0.7239 C.ar    
  17 Si17           4.0873    -4.7204     1.4591 Si      
  18 C18            4.0125    -4.9548     3.3058 C.3     
  19 C19            2.4827    -5.2811     0.6964 C.3     
  20 C20            5.4915    -5.7268     0.7618 C.3     
  21 F21            7.1048    -0.6481     0.3480 F       
  22 C22            1.1520     3.6971    -3.5657 C.2     
  23 O23            0.3789     4.3841    -2.9291 O.2     
  24 O24            1.0450     3.6288    -4.9056 O.3     
  25 C25            3.7067     2.3811     2.4084 C.2     
  26 O26            4.5685     1.5565     2.6432 O.2     
  27 O27            3.1778     3.1080     3.4129 O.3     
  28 C28           -0.0177     4.4025    -5.5224 C.3     
  29 C29            0.1784     5.8854    -5.2007 C.3     
  30 C30            0.0184     4.2004    -7.0385 C.3     
  31 C31           -1.3695     3.9369    -4.9778 C.3     
  32 C32            3.7015     2.8695     4.7459 C.3     
  33 C33            5.2297     2.9356     4.7128 C.3     
  34 C34            3.1655     3.9362     5.7029 C.3     
  35 C35            3.2612     1.4853     5.2267 C.3     
  36 H36            4.6777     0.9877    -2.8450 H       
  37 H37            1.6454     3.9151     1.5967 H       
  38 H38            0.8541     4.2689    -0.6754 H       
  39 H39            5.8758     1.4739     0.1733 H       
  40 H40            6.4850    -3.1209     0.9039 H       
  41 H41            2.2861    -2.4218     1.1768 H       
  42 H42            2.6432    -0.0385     0.6765 H       
  43 H43            3.1909    -4.3660     3.7138 H       
  44 H44            3.8514    -6.0088     3.5320 H       
  45 H45            4.9513    -4.6267     3.7520 H       
  46 H46            2.5561    -5.2211    -0.3894 H       
  47 H47            2.2810    -6.3111     0.9906 H       
  48 H48            1.6724    -4.6392     1.0419 H       
  49 H49            6.4303    -5.3987     1.2080 H       
  50 H50            5.3305    -6.7808     0.9880 H       
  51 H51            5.5353    -5.5896    -0.3187 H       
  52 H52            1.1415     6.2170    -5.5887 H       
  53 H53           -0.6193     6.4662    -5.6637 H       
  54 H54            0.1528     6.0293    -4.1206 H       
  55 H55           -0.1213     3.1439    -7.2677 H       
  56 H56           -0.7794     4.7812    -7.5015 H       
  57 H57            0.9815     4.5321    -7.4265 H       
  58 H58           -1.3952     4.0809    -3.8976 H       
  59 H59           -2.1673     4.5177    -5.4408 H       
  60 H60           -1.5092     2.8804    -5.2069 H       
  61 H61            5.5436     3.9296     4.3941 H       
  62 H62            5.6239     2.7320     5.7085 H       
  63 H63            5.6105     2.1923     4.0124 H       
  64 H64            2.0768     3.8891     5.7265 H       
  65 H65            3.5587     3.7571     6.7036 H       
  66 H66            3.4792     4.9222     5.3604 H       
  67 H67            3.6431     0.7254     4.5450 H       
  68 H68            3.6544     1.3063     6.2275 H       
  69 H69            2.1725     1.4383     5.2503 H       
@<TRIPOS>BOND
   1    1    2 1
   2    1    9 1
   3    1   22 am
   4    2    3 2
   5    3    4 1
   6    3   36 1
   7    4    5 ar
   8    4    9 ar
   9    5    6 ar
  10    5   10 1
  11    6    7 ar
  12    6   25 1
  13    7    8 ar
  14    7   37 1
  15    8    9 ar
  16    8   38 1
  17   10   11 1
  18   10   39 1
  19   11   12 ar
  20   11   16 ar
  21   12   13 ar
  22   12   21 1
  23   13   14 ar
  24   13   40 1
  25   14   15 ar
  26   14   17 1
  27   15   16 ar
  28   15   41 1
  29   16   42 1
  30   17   18 1
  31   17   19 1
  32   17   20 1
  33   18   43 1
  34   18   44 1
  35   18   45 1
  36   19   46 1
  37   19   47 1
  38   19   48 1
  39   20   49 1
  40   20   50 1
  41   20   51 1
  42   22   23 2
  43   22   24 1
  44   24   28 1
  45   25   26 2
  46   25   27 1
  47   27   32 1
  48   28   29 1
  49   28   31 1
  50   28   30 1
  51   29   52 1
  52   29   53 1
  53   29   54 1
  54   30   55 1
  55   30   56 1
  56   30   57 1
  57   31   58 1
  58   31   59 1
  59   31   60 1
  60   32   33 1
  61   32   35 1
  62   32   34 1
  63   33   61 1
  64   33   62 1
  65   33   63 1
  66   34   64 1
  67   34   65 1
  68   34   66 1
  69   35   67 1
  70   35   68 1
  71   35   69 1

#	End of record

