#	Name: ASD05850002
#	Creating user name:	WinNT
#	Creation time:	15. 06. 2019 21:04

#	Modifying user name:	WinNT
#	Modification time:	15. 06. 2019 21:04

#	Program:	/corina/corina34_cracker 3.40 0067  02.08.2006

@<TRIPOS>MOLECULE
ASD05850002
  15   16    0    0    0
SMALL
NO_CHARGES


@<TRIPOS>ATOM
   1 C1            -0.0167     1.3827     0.0096 C.ar    
   2 C2             0.0021    -0.0041     0.0020 C.ar    
   3 C3             1.2028    -0.6877    -0.0131 C.ar    
   4 C4             2.3966     0.0143    -0.0207 C.ar    
   5 C5             2.3816     1.4174    -0.0130 C.ar    
   6 C6             1.1626     2.0958     0.0022 C.ar    
   7 O7             3.6985    -0.3540    -0.0351 O.3     
   8 C8             4.4504     0.7615    -0.0363 C.2     
   9 N9             3.6818     1.8213    -0.0232 N.2     
  10 S10            6.2120     0.7918    -0.0520 S.3     
  11 Cl11          -1.4927    -0.8868     0.0121 Cl      
  12 H12           -0.9610     1.9068     0.0169 H       
  13 H13            1.2103    -1.7676    -0.0186 H       
  14 H14            1.1431     3.1756     0.0078 H       
  15 H15            6.4330     2.1843    -0.0470 H       
@<TRIPOS>BOND
   1    1    2 ar
   2    1    6 ar
   3    1   12 1
   4    2    3 ar
   5    2   11 1
   6    3    4 ar
   7    3   13 1
   8    4    5 ar
   9    4    7 1
  10    5    6 ar
  11    5    9 1
  12    6   14 1
  13    7    8 1
  14    8    9 2
  15    8   10 1
  16   10   15 1

#	End of record

