#	Name: ASD00990061
#	Creating user name:	WinNT
#	Creation time:	15. 06. 2019 18:54

#	Modifying user name:	WinNT
#	Modification time:	15. 06. 2019 18:54

#	Program:	/corina/corina34_cracker 3.40 0067  02.08.2006

@<TRIPOS>MOLECULE
ASD00990061
  90   92    0    0    0
SMALL
NO_CHARGES


@<TRIPOS>ATOM
   1 C1            -0.0170     1.4008     0.0097 C.ar    
   2 C2             0.0021    -0.0041     0.0020 C.ar    
   3 C3            -1.1926    -0.7112     0.0100 C.ar    
   4 C4            -2.3907    -0.0279     0.0255 C.ar    
   5 C5            -2.4085     1.3605     0.0327 C.ar    
   6 C6            -1.2425     2.0720     0.0302 C.ar    
   7 N7             1.2766     1.8140    -0.0004 N.2     
   8 C8             2.0659     0.7798    -0.0135 C.2     
   9 N9             1.3339    -0.3670    -0.0126 N.pl3   
  10 C10            3.5715     0.8430    -0.0280 C.3     
  11 N11            4.0730     0.8558     1.3485 N.am    
  12 C12            4.3769    -0.4054     2.0291 C.3     
  13 Br13          -4.0196    -0.9883     0.0365 Br      
  14 O14            4.7157     2.0396     3.2536 O.3     
  15 C15            4.8871     3.3379     3.8806 C.3     
  16 C16            3.5411     4.0638     3.9268 C.3     
  17 C17            5.4148     3.1509     5.3046 C.3     
  18 C18            5.8863     4.1672     3.0714 C.3     
  19 C19            4.2548     2.0279     1.9886 C.2     
  20 O20            4.0027     3.0739     1.4241 O.2     
  21 C21            1.8614    -1.7338    -0.0250 C.3     
  22 O22            2.0457    -2.1854     1.3181 O.3     
  23 C23            2.5596    -3.5149     1.4189 C.3     
  24 H24           -1.1839    -1.7912     0.0038 H       
  25 H25           -3.3536     1.8830     0.0445 H       
  26 H26           -1.2678     3.1517     0.0361 H       
  27 H27            3.9667    -0.0280    -0.5506 H       
  28 H28            3.8922     1.7503    -0.5399 H       
  29 H29            5.4169    -0.6756     1.8460 H       
  30 H30            4.2152    -0.2881     3.1006 H       
  31 H31            3.7248    -1.1908     1.6470 H       
  32 H32            2.8293     3.4730     4.5033 H       
  33 H33            3.6698     5.0384     4.3975 H       
  34 H34            3.1652     4.1970     2.9124 H       
  35 H35            6.3737     2.6338     5.2717 H       
  36 H36            5.5435     4.1255     5.7753 H       
  37 H37            4.7030     2.5601     5.8811 H       
  38 H38            5.5104     4.3005     2.0569 H       
  39 H39            6.0150     5.1419     3.5421 H       
  40 H40            6.8452     3.6501     3.0385 H       
  41 H41            1.1570    -2.3904    -0.5357 H       
  42 H42            2.8175    -1.7495    -0.5481 H       
  43 H43            1.8698    -4.2085     0.9382 H       
  44 H44            3.5303    -3.5676     0.9258 H       
  45 H45            2.6709    -3.7828     2.4696 H       
  46 C46           15.9024    15.7503    11.4417 C.ar    
  47 C47           15.9215    14.3456    11.4340 C.ar    
  48 C48           14.7282    13.6364    11.4420 C.ar    
  49 C49           13.5280    14.3135    11.4574 C.ar    
  50 C50           13.5033    15.7020    11.4651 C.ar    
  51 C51           14.6769    16.4218    11.4621 C.ar    
  52 N52           17.1958    16.1638    11.4316 N.2     
  53 C53           17.9855    15.1299    11.4185 C.2     
  54 N54           17.2540    13.9830    11.4193 N.pl3   
  55 C55           19.4910    15.1936    11.4037 C.3     
  56 N56           19.9928    15.2068    12.7800 N.am    
  57 C57           20.2973    13.9458    13.4608 C.3     
  58 Br58          11.8452    16.6109    11.4864 Br      
  59 C59           17.7820    12.6165    11.4073 C.3     
  60 O60           17.9661    12.1652    12.7507 O.3     
  61 C61           18.4804    10.8358    12.8519 C.3     
  62 O62           20.6355    16.3911    14.6848 O.3     
  63 C63           20.8066    17.6896    15.3116 C.3     
  64 C64           19.4603    18.4149    15.3579 C.3     
  65 C65           21.3346    17.5029    16.7355 C.3     
  66 C66           21.8053    18.5191    14.5020 C.3     
  67 C67           20.1743    16.3790    13.4199 C.2     
  68 O68           19.9218    17.4249    12.8553 O.2     
  69 H69           14.7404    12.5564    11.4357 H       
  70 H70           12.6003    13.7606    11.4633 H       
  71 H71           14.6504    17.5014    11.4681 H       
  72 H72           19.8864    14.3226    10.8811 H       
  73 H73           19.8113    16.1009    10.8915 H       
  74 H74           21.3373    13.6759    13.2775 H       
  75 H75           20.1357    14.0632    14.5323 H       
  76 H76           19.6453    13.1601    13.0789 H       
  77 H77           17.0780    11.9595    10.8966 H       
  78 H78           18.7383    12.6010    10.8846 H       
  79 H79           19.4513    10.7834    12.3591 H       
  80 H80           18.5914    10.5682    13.9027 H       
  81 H81           17.7910    10.1419    12.3711 H       
  82 H82           18.7488    17.8240    15.9347 H       
  83 H83           19.5887    19.3897    15.8285 H       
  84 H84           19.0841    18.5479    14.3436 H       
  85 H85           22.2937    16.9861    16.7025 H       
  86 H86           21.4630    18.4777    17.2060 H       
  87 H87           20.6231    16.9120    17.3123 H       
  88 H88           21.4291    18.6521    13.4877 H       
  89 H89           21.9337    19.4938    14.9726 H       
  90 H90           22.7644    18.0023    14.4690 H       
@<TRIPOS>BOND
   1    1    2 ar
   2    1    7 1
   3    1    6 ar
   4    2    3 ar
   5    2    9 1
   6    3    4 ar
   7    3   24 1
   8    4    5 ar
   9    4   13 1
  10    5    6 ar
  11    5   25 1
  12    6   26 1
  13    7    8 2
  14    8    9 1
  15    8   10 1
  16    9   21 1
  17   10   11 1
  18   10   27 1
  19   10   28 1
  20   11   12 1
  21   11   19 am
  22   12   29 1
  23   12   30 1
  24   12   31 1
  25   14   15 1
  26   14   19 1
  27   15   16 1
  28   15   17 1
  29   15   18 1
  30   16   32 1
  31   16   33 1
  32   16   34 1
  33   17   35 1
  34   17   36 1
  35   17   37 1
  36   18   38 1
  37   18   39 1
  38   18   40 1
  39   19   20 2
  40   21   22 1
  41   21   41 1
  42   21   42 1
  43   22   23 1
  44   23   43 1
  45   23   44 1
  46   23   45 1
  47   46   47 ar
  48   46   52 1
  49   46   51 ar
  50   47   48 ar
  51   47   54 1
  52   48   49 ar
  53   48   69 1
  54   49   50 ar
  55   49   70 1
  56   50   51 ar
  57   50   58 1
  58   51   71 1
  59   52   53 2
  60   53   54 1
  61   53   55 1
  62   54   59 1
  63   55   56 1
  64   55   72 1
  65   55   73 1
  66   56   57 1
  67   56   67 am
  68   57   74 1
  69   57   75 1
  70   57   76 1
  71   59   60 1
  72   59   77 1
  73   59   78 1
  74   60   61 1
  75   61   79 1
  76   61   80 1
  77   61   81 1
  78   62   63 1
  79   62   67 1
  80   63   64 1
  81   63   65 1
  82   63   66 1
  83   64   82 1
  84   64   83 1
  85   64   84 1
  86   65   85 1
  87   65   86 1
  88   65   87 1
  89   66   88 1
  90   66   89 1
  91   66   90 1
  92   67   68 2

#	End of record

