#	Name: ASD02198659
#	Creating user name:	WinNT
#	Creation time:	15. 06. 2019 20:19

#	Modifying user name:	WinNT
#	Modification time:	15. 06. 2019 20:19

#	Program:	/corina/corina34_cracker 3.40 0067  02.08.2006

@<TRIPOS>MOLECULE
ASD02198659
  49   51    0    0    0
SMALL
NO_CHARGES


@<TRIPOS>ATOM
   1 C1            -0.0164     1.3546     0.0095 C.2     
   2 C2             0.0021    -0.0041     0.0020 C.2     
   3 N3            -1.1538    -0.7131     0.0092 N.pl3   
   4 N4            -2.3138    -0.1682     0.0232 N.2     
   5 C5            -2.4750     1.1404     0.0317 C.2     
   6 C6            -1.2844     2.0003     0.0311 C.2     
   7 C7            -1.0762    -2.1098     0.0005 C.ar    
   8 C8            -1.6602    -4.2175    -0.9926 C.ar    
   9 C9            -0.9234    -4.8776    -0.0184 C.ar    
  10 C10           -0.2669    -4.1502     0.9701 C.ar    
  11 C11           -0.3435    -2.7714     0.9789 C.ar    
  12 C12           -3.8278     1.7305     0.0473 C.2     
  13 O13           -1.3786     3.2183     0.0391 O.2     
  14 C14           -1.7372    -2.8373    -0.9843 C.ar    
  15 O15            1.1379     2.0730     0.0023 O.3     
  16 C16            2.3614     1.3348    -0.0133 C.3     
  17 N17           -4.9121     0.9301     0.0530 N.am    
  18 O18           -3.9640     2.9387     0.0551 O.2     
  19 F19           -2.4544    -2.1949    -1.9319 F       
  20 F20            0.4499    -4.7928     1.9179 F       
  21 N21           -0.8460    -6.2735    -0.0266 N.3     
  22 C22           -2.1808    -6.8760     0.1030 C.3     
  23 C23           -2.0562    -8.4001     0.0294 C.3     
  24 O24           -1.1581    -8.8496     1.0476 O.3     
  25 C25            0.1516    -8.2832     0.9512 C.3     
  26 C26            0.0493    -6.7578     1.0340 C.3     
  27 O27           -4.7535    -0.4770     0.0439 O.3     
  28 C28           -6.2549     1.5158     0.0684 C.3     
  29 C29           -4.6765    -1.0616     1.3455 C.3     
  30 H30            0.9480    -0.5251    -0.0101 H       
  31 H31           -2.1693    -4.7822    -1.7597 H       
  32 H32            0.1663    -2.2071     1.7458 H       
  33 H33            2.4155     0.7024     0.8728 H       
  34 H34            2.3985     0.7119    -0.9071 H       
  35 H35            3.2033     2.0270    -0.0176 H       
  36 H36           -2.6167    -6.5922     1.0609 H       
  37 H37           -2.8194    -6.5235    -0.7070 H       
  38 H38           -3.0357    -8.8532     0.1822 H       
  39 H39           -1.6704    -8.6870    -0.9488 H       
  40 H40            0.7688    -8.6516     1.7706 H       
  41 H41            0.6016    -8.5666    -0.0003 H       
  42 H42            1.0386    -6.3191     0.9038 H       
  43 H43           -0.3509    -6.4722     2.0068 H       
  44 H44           -6.5973     1.6666    -0.9553 H       
  45 H45           -6.9390     0.8425     0.5849 H       
  46 H46           -6.2273     2.4740     0.5872 H       
  47 H47           -3.8232    -0.6452     1.8809 H       
  48 H48           -5.5919    -0.8446     1.8961 H       
  49 H49           -4.5556    -2.1409     1.2525 H       
@<TRIPOS>BOND
   1    1    2 2
   2    1   15 1
   3    1    6 1
   4    2    3 1
   5    2   30 1
   6    3    4 1
   7    3    7 1
   8    4    5 2
   9    5    6 1
  10    5   12 1
  11    6   13 2
  12    7   14 ar
  13    7   11 ar
  14    8    9 ar
  15    8   14 ar
  16    8   31 1
  17    9   10 ar
  18    9   21 1
  19   10   11 ar
  20   10   20 1
  21   11   32 1
  22   12   17 am
  23   12   18 2
  24   14   19 1
  25   15   16 1
  26   16   33 1
  27   16   34 1
  28   16   35 1
  29   17   27 1
  30   17   28 1
  31   21   22 1
  32   21   26 1
  33   22   23 1
  34   22   36 1
  35   22   37 1
  36   23   24 1
  37   23   38 1
  38   23   39 1
  39   24   25 1
  40   25   26 1
  41   25   40 1
  42   25   41 1
  43   26   42 1
  44   26   43 1
  45   27   29 1
  46   28   44 1
  47   28   45 1
  48   28   46 1
  49   29   47 1
  50   29   48 1
  51   29   49 1

#	End of record

