#	Name: ASD08150529
#	Creating user name:	WinNT
#	Creation time:	15. 06. 2019 21:16

#	Modifying user name:	WinNT
#	Modification time:	15. 06. 2019 21:16

#	Program:	/corina/corina34_cracker 3.40 0067  02.08.2006

@<TRIPOS>MOLECULE
ASD08150529
  29   30    0    0    0
SMALL
NO_CHARGES


@<TRIPOS>ATOM
   1 C1             0.1646     1.6116     0.0294 C.2     
   2 C2            -0.1326     0.1678     0.0392 C.ar    
   3 C3             0.9068    -0.7673    -0.0817 C.ar    
   4 C4             0.6168    -2.1253    -0.0709 C.ar    
   5 C5            -0.6886    -2.5539     0.0577 C.ar    
   6 C6            -1.7220    -1.6325     0.1778 C.ar    
   7 C7            -1.4502    -0.2773     0.1747 C.ar    
   8 O8             1.3187     1.9947     0.0096 O.2     
   9 N9            -0.8427     2.5070     0.0367 N.am    
  10 O10           -3.0050    -2.0660     0.3036 O.3     
  11 C11           -0.5630     3.8736     0.1444 C.ar    
  12 C12           -1.4682     4.8103    -0.3411 C.ar    
  13 C13           -1.1884     6.1592    -0.2329 C.ar    
  14 C14           -0.0094     6.5770     0.3572 C.ar    
  15 C15            0.8925     5.6475     0.8409 C.ar    
  16 C16            0.6164     4.2974     0.7416 C.ar    
  17 Cl17          -2.9476     4.2862    -1.0829 Cl      
  18 N18            2.2227    -0.3354    -0.2123 N.pl3   
  19 H19            1.4145    -2.8475    -0.1637 H       
  20 H20           -0.9084    -3.6112     0.0648 H       
  21 H21           -2.2550     0.4362     0.2727 H       
  22 H22           -1.7615     2.2040    -0.0327 H       
  23 H23           -3.2855    -2.2043     1.2186 H       
  24 H24           -1.8909     6.8878    -0.6098 H       
  25 H25            0.2073     7.6318     0.4400 H       
  26 H26            1.8122     5.9774     1.3012 H       
  27 H27            1.3194     3.5724     1.1242 H       
  28 H28            2.4163     0.6113    -0.2968 H       
  29 H29            2.9466    -0.9810    -0.2188 H       
@<TRIPOS>BOND
   1    1    2 1
   2    1    8 2
   3    1    9 am
   4    2    3 ar
   5    2    7 ar
   6    3    4 ar
   7    3   18 1
   8    4    5 ar
   9    4   19 1
  10    5    6 ar
  11    5   20 1
  12    6    7 ar
  13    6   10 1
  14    7   21 1
  15    9   11 1
  16    9   22 1
  17   10   23 1
  18   11   12 ar
  19   11   16 ar
  20   12   13 ar
  21   12   17 1
  22   13   14 ar
  23   13   24 1
  24   14   15 ar
  25   14   25 1
  26   15   16 ar
  27   15   26 1
  28   16   27 1
  29   18   28 1
  30   18   29 1

#	End of record

