#	Name: ASD05503017
#	Creating user name:	WinNT
#	Creation time:	15. 06. 2019 21:01

#	Modifying user name:	WinNT
#	Modification time:	15. 06. 2019 21:01

#	Program:	/corina/corina34_cracker 3.40 0067  02.08.2006

@<TRIPOS>MOLECULE
ASD05503017
  49   51    0    0    0
SMALL
NO_CHARGES


@<TRIPOS>ATOM
   1 C1            -0.2504     1.1828     0.3447 C.ar    
   2 C2            -0.0861     0.0100    -0.3811 C.ar    
   3 C3             1.1576    -0.6031    -0.4339 C.ar    
   4 C4             2.2334    -0.0420     0.2390 C.ar    
   5 C5             2.0624     1.1315     0.9634 C.ar    
   6 C6             0.8229     1.7392     1.0139 C.ar    
   7 N7            -1.1737    -0.5530    -1.0580 N.am    
   8 C8            -0.9832    -1.1798    -2.2359 C.2     
   9 C9            -2.1311    -1.8900    -2.9058 C.3     
  10 O10            0.1122    -1.1723    -2.7566 O.2     
  11 C11           -1.6498    -2.5125    -4.2179 C.3     
  12 C12           -2.8153    -3.2336    -4.8980 C.3     
  13 N13            3.4884    -0.6570     0.1887 N.am    
  14 C14            4.6071     0.0946     0.1738 C.2     
  15 C15            5.9283    -0.5495     0.0168 C.ar    
  16 O16            4.5295     1.3022     0.2895 O.2     
  17 C17            6.0195    -1.9365    -0.1163 C.ar    
  18 C18            7.2533    -2.5383    -0.2629 C.ar    
  19 C19            8.4035    -1.7737    -0.2791 C.ar    
  20 C20            8.3256    -0.3875    -0.1476 C.ar    
  21 C21            7.0862     0.2267    -0.0047 C.ar    
  22 C22            9.5632     0.4313    -0.1648 C.ar    
  23 C23           10.8055    -0.1822    -0.3123 C.ar    
  24 C24           11.9532     0.5842    -0.3281 C.ar    
  25 C25           11.8718     1.9589    -0.1979 C.ar    
  26 C26           10.6412     2.5731    -0.0512 C.ar    
  27 C27            9.4867     1.8168    -0.0393 C.ar    
  28 H28           -1.2172     1.6628     0.3825 H       
  29 H29            1.2879    -1.5153    -0.9973 H       
  30 H30            2.8993     1.5688     1.4875 H       
  31 H31            0.6924     2.6509     1.5779 H       
  32 H32           -2.0647    -0.4921    -0.6796 H       
  33 H33           -2.5070    -2.6738    -2.2481 H       
  34 H34           -2.9285    -1.1764    -3.1132 H       
  35 H35           -1.2739    -1.7288    -4.8755 H       
  36 H36           -0.8524    -3.2261    -4.0105 H       
  37 H37           -3.1911    -4.0174    -4.2404 H       
  38 H38           -3.6127    -2.5200    -5.1055 H       
  39 H39           -2.4724    -3.6771    -5.8328 H       
  40 H40            3.5538    -1.6245     0.1646 H       
  41 H41            5.1236    -2.5394    -0.1040 H       
  42 H42            7.3195    -3.6114    -0.3652 H       
  43 H43            9.3657    -2.2506    -0.3934 H       
  44 H44            7.0214     1.3000     0.0971 H       
  45 H45           10.8702    -1.2555    -0.4137 H       
  46 H46           12.9167     0.1097    -0.4421 H       
  47 H47           12.7725     2.5547    -0.2105 H       
  48 H48           10.5834     3.6468     0.0501 H       
  49 H49            8.5263     2.2975     0.0749 H       
@<TRIPOS>BOND
   1    1    2 ar
   2    1    6 ar
   3    1   28 1
   4    2    3 ar
   5    2    7 1
   6    3    4 ar
   7    3   29 1
   8    4    5 ar
   9    4   13 1
  10    5    6 ar
  11    5   30 1
  12    6   31 1
  13    7    8 am
  14    7   32 1
  15    8    9 1
  16    8   10 2
  17    9   11 1
  18    9   33 1
  19    9   34 1
  20   11   12 1
  21   11   35 1
  22   11   36 1
  23   12   37 1
  24   12   38 1
  25   12   39 1
  26   13   14 am
  27   13   40 1
  28   14   15 1
  29   14   16 2
  30   15   17 ar
  31   15   21 ar
  32   17   18 ar
  33   17   41 1
  34   18   19 ar
  35   18   42 1
  36   19   20 ar
  37   19   43 1
  38   20   21 ar
  39   20   22 1
  40   21   44 1
  41   22   23 ar
  42   22   27 ar
  43   23   24 ar
  44   23   45 1
  45   24   25 ar
  46   24   46 1
  47   25   26 ar
  48   25   47 1
  49   26   27 ar
  50   26   48 1
  51   27   49 1

#	End of record

