#	Name: ASD01916593
#	Creating user name:	WinNT
#	Creation time:	15. 06. 2019 20:07

#	Modifying user name:	WinNT
#	Modification time:	15. 06. 2019 20:07

#	Program:	/corina/corina34_cracker 3.40 0067  02.08.2006

@<TRIPOS>MOLECULE
ASD01916593
  25   26    0    0    0
SMALL
NO_CHARGES


@<TRIPOS>ATOM
   1 O1            -0.0144     1.2087     0.0087 O.3     
   2 N2             0.0021    -0.0041     0.0020 N.2     
   3 C3             1.2362    -0.4366    -0.0121 C.2     
   4 N4             2.0403     0.6507    -0.0139 N.2     
   5 C5             1.2351     1.6836    -0.0007 C.2     
   6 C6             1.6725    -1.8547    -0.0231 C.ar    
   7 C7             0.7248    -2.8794    -0.0193 C.ar    
   8 C8             1.1386    -4.1986    -0.0301 C.ar    
   9 C9             2.4876    -4.5021    -0.0447 C.ar    
  10 C10            3.4301    -3.4896    -0.0485 C.ar    
  11 C11            3.0295    -2.1687    -0.0432 C.ar    
  12 F12           -0.5932    -2.5830    -0.0046 F       
  13 C13            1.6410     3.1349     0.0032 C.3     
  14 C14            1.7640     3.6340    -1.4379 C.3     
  15 C15            2.1605     5.0516    -1.4340 C.1     
  16 C16            2.4767     6.1822    -1.4310 C.1     
  17 H17            0.4072    -4.9932    -0.0269 H       
  18 H18            2.8066    -5.5338    -0.0528 H       
  19 H19            4.4822    -3.7332    -0.0599 H       
  20 H20            3.7671    -1.3799    -0.0507 H       
  21 H21            0.8869     3.7217     0.5278 H       
  22 H22            2.6010     3.2423     0.5081 H       
  23 H23            2.5180     3.0472    -1.9624 H       
  24 H24            0.8040     3.5266    -1.9427 H       
  25 H25            2.7595     7.1934    -1.4282 H       
@<TRIPOS>BOND
   1    1    2 1
   2    1    5 1
   3    2    3 2
   4    3    4 1
   5    3    6 1
   6    4    5 2
   7    5   13 1
   8    6    7 ar
   9    6   11 ar
  10    7    8 ar
  11    7   12 1
  12    8    9 ar
  13    8   17 1
  14    9   10 ar
  15    9   18 1
  16   10   11 ar
  17   10   19 1
  18   11   20 1
  19   13   14 1
  20   13   21 1
  21   13   22 1
  22   14   15 1
  23   14   23 1
  24   14   24 1
  25   15   16 3
  26   16   25 1

#	End of record

