#	Name: ASD01917854
#	Creating user name:	WinNT
#	Creation time:	15. 06. 2019 20:10

#	Modifying user name:	WinNT
#	Modification time:	15. 06. 2019 20:10

#	Program:	/corina/corina34_cracker 3.40 0067  02.08.2006

@<TRIPOS>MOLECULE
ASD01917854
  40   43    0    0    0
SMALL
NO_CHARGES


@<TRIPOS>ATOM
   1 C1             0.0064     1.2813    -0.0864 C.2     
   2 C2            -0.0045    -0.0648    -0.0767 C.2     
   3 C3            -1.2864    -0.8819    -0.0276 C.3     
   4 C4            -2.4269     0.0044     0.4786 C.3     
   5 N5            -2.3950     1.2872    -0.2399 N.am    
   6 C6            -1.2238     2.1583    -0.0388 C.3     
   7 C7            -3.4039     1.6536    -1.0549 C.2     
   8 O8            -4.3087     0.8746    -1.2915 O.2     
   9 S9             1.6750     1.8305    -0.1554 S.3     
  10 C10            2.2159     0.2091    -0.1607 C.2     
  11 N11            1.2111    -0.5931    -0.1158 N.2     
  12 C12            3.6601    -0.2186    -0.2110 C.3     
  13 O13            4.0661    -0.3658    -1.5732 O.3     
  14 C14            5.3505    -0.7498    -1.7962 C.ar    
  15 C15            5.8118    -0.9121    -3.0944 C.ar    
  16 C16            7.1178    -1.3025    -3.3184 C.ar    
  17 C17            7.9651    -1.5315    -2.2500 C.ar    
  18 C18            7.5076    -1.3710    -0.9551 C.ar    
  19 C19            6.2042    -0.9747    -0.7260 C.ar    
  20 C20           -3.4116     2.9901    -1.6563 C.2     
  21 C21           -4.2976     3.4442    -2.5916 C.2     
  22 C22           -3.9356     4.7680    -2.8815 C.2     
  23 C23           -2.8568     5.0620    -2.1196 C.2     
  24 O24           -2.5481     3.9895    -1.3786 O.3     
  25 Br25          -1.9409     6.7162    -2.0982 Br      
  26 H26           -1.5244    -1.2467    -1.0268 H       
  27 H27           -1.1542    -1.7270     0.6480 H       
  28 H28           -3.3809    -0.4909     0.2980 H       
  29 H29           -2.3037     0.1819     1.5470 H       
  30 H30           -1.2914     2.6516     0.9308 H       
  31 H31           -1.1763     2.9041    -0.8322 H       
  32 H32            4.2797     0.5362     0.2732 H       
  33 H33            3.7754    -1.1705     0.3074 H       
  34 H34            5.1503    -0.7337    -3.9293 H       
  35 H35            7.4773    -1.4293    -4.3289 H       
  36 H36            8.9858    -1.8367    -2.4272 H       
  37 H37            8.1711    -1.5511    -0.1223 H       
  38 H38            5.8473    -0.8494     0.2856 H       
  39 H39           -5.1178     2.8908    -3.0245 H       
  40 H40           -4.4256     5.4284    -3.5817 H       
@<TRIPOS>BOND
   1    1    2 2
   2    1    9 1
   3    1    6 1
   4    2    3 1
   5    2   11 1
   6    3    4 1
   7    3   26 1
   8    3   27 1
   9    4    5 1
  10    4   28 1
  11    4   29 1
  12    5    6 1
  13    5    7 am
  14    6   30 1
  15    6   31 1
  16    7    8 2
  17    7   20 1
  18    9   10 1
  19   10   11 2
  20   10   12 1
  21   12   13 1
  22   12   32 1
  23   12   33 1
  24   13   14 1
  25   14   15 ar
  26   14   19 ar
  27   15   16 ar
  28   15   34 1
  29   16   17 ar
  30   16   35 1
  31   17   18 ar
  32   17   36 1
  33   18   19 ar
  34   18   37 1
  35   19   38 1
  36   20   21 2
  37   20   24 1
  38   21   22 1
  39   21   39 1
  40   22   23 2
  41   22   40 1
  42   23   25 1
  43   23   24 1

#	End of record

