#	Name: ASD04910033
#	Creating user name:	WinNT
#	Creation time:	15. 06. 2019 20:55

#	Modifying user name:	WinNT
#	Modification time:	15. 06. 2019 20:55

#	Program:	/corina/corina34_cracker 3.40 0067  02.08.2006

@<TRIPOS>MOLECULE
ASD04910033
  60   62    0    0    0
SMALL
NO_CHARGES


@<TRIPOS>ATOM
   1 C1            -0.0184     1.5028     0.0103 C.2     
   2 C2             0.0021    -0.0041     0.0020 C.3     
   3 C3             1.4513    -0.4944    -0.0145 C.3     
   4 O4             1.0197     2.1211     0.0037 O.2     
   5 O5            -1.1898     2.1580     0.0194 O.3     
   6 C6             2.6473    -2.6171    -0.0373 C.2     
   7 O7             3.6919    -1.9949    -0.0439 O.2     
   8 N8             1.4712    -1.9592    -0.0225 N.am    
   9 C9             2.7037    -6.7740    -0.0593 C.ar    
  10 N10            3.8547    -6.1143    -0.0672 N.ar    
  11 C11            3.8796    -4.7949    -0.0607 C.ar    
  12 C12            2.6673    -4.0925    -0.0454 C.ar    
  13 C13            1.4746    -4.8276    -0.0375 C.ar    
  14 N14            1.5353    -6.1458    -0.0447 N.ar    
  15 N15            2.7224    -8.1531    -0.0723 N.pl3   
  16 C16            1.4638    -8.9028    -0.0639 C.3     
  17 C17            0.9438    -9.0425    -1.4960 C.3     
  18 C18            0.5878    -7.6600    -2.0464 C.3     
  19 C19            0.1865    -7.7847    -3.5176 C.3     
  20 C20            1.6983   -10.2717     0.5211 C.ar    
  21 C21            0.7607   -10.8287     1.3712 C.ar    
  22 C22            0.9728   -12.0831     1.9089 C.ar    
  23 C23            2.1288   -12.7851     1.5947 C.ar    
  24 C24            3.0682   -12.2234     0.7406 C.ar    
  25 C25            2.8481   -10.9706     0.2022 C.ar    
  26 N26            2.3472   -14.0582     2.1392 N.pl3   
  27 N27            1.4880   -14.7410     3.0099 N.2     
  28 C28            2.0314   -15.8961     3.2987 C.2     
  29 C29            3.2530   -15.9868     2.6223 C.2     
  30 C30            3.4218   -14.8472     1.9124 C.2     
  31 C31            4.2090   -17.1507     2.6711 C.3     
  32 F32            3.6894   -18.1464     3.5053 F       
  33 F33            4.3826   -17.6659     1.3821 F       
  34 F34            5.4426   -16.7202     3.1713 F       
  35 C35           -0.5796    -7.0779    -1.2469 C.3     
  36 H36           -0.4983    -0.3791     0.8948 H       
  37 H37           -0.5153    -0.3696    -0.8850 H       
  38 H38            1.9516    -0.1193    -0.9073 H       
  39 H39            1.9686    -0.1289     0.8726 H       
  40 H40           -1.1523     3.1243     0.0245 H       
  41 H41            0.6378    -2.4556    -0.0172 H       
  42 H42            4.8203    -4.2644    -0.0669 H       
  43 H43            0.5199    -4.3230    -0.0253 H       
  44 H44            3.5688    -8.6266    -0.0870 H       
  45 H45            0.7281    -8.3710     0.5395 H       
  46 H46            1.7148    -9.4945    -2.1200 H       
  47 H47            0.0560    -9.6749    -1.5002 H       
  48 H48            1.4517    -7.0011    -1.9601 H       
  49 H49           -0.6774    -8.4436    -3.6040 H       
  50 H50           -0.0671    -6.7998    -3.9097 H       
  51 H51            1.0182    -8.1994    -4.0872 H       
  52 H52           -0.1383   -10.2822     1.6152 H       
  53 H53            0.2405   -12.5174     2.5733 H       
  54 H54            3.9683   -12.7670     0.4944 H       
  55 H55            3.5767   -10.5347    -0.4653 H       
  56 H56            1.6099   -16.6493     3.9478 H       
  57 H57            4.2644   -14.6095     1.2801 H       
  58 H58           -0.8333    -6.0930    -1.6391 H       
  59 H59           -1.4436    -7.7369    -1.3333 H       
  60 H60           -0.2937    -6.9891    -0.1988 H       
@<TRIPOS>BOND
   1    1    2 1
   2    1    4 2
   3    1    5 1
   4    2    3 1
   5    2   36 1
   6    2   37 1
   7    3    8 1
   8    3   38 1
   9    3   39 1
  10    5   40 1
  11    6    7 2
  12    6    8 am
  13    6   12 1
  14    8   41 1
  15    9   10 ar
  16    9   14 ar
  17    9   15 1
  18   10   11 ar
  19   11   12 ar
  20   11   42 1
  21   12   13 ar
  22   13   14 ar
  23   13   43 1
  24   15   16 1
  25   15   44 1
  26   16   17 1
  27   16   20 1
  28   16   45 1
  29   17   18 1
  30   17   46 1
  31   17   47 1
  32   18   19 1
  33   18   35 1
  34   18   48 1
  35   19   49 1
  36   19   50 1
  37   19   51 1
  38   20   21 ar
  39   20   25 ar
  40   21   22 ar
  41   21   52 1
  42   22   23 ar
  43   22   53 1
  44   23   24 ar
  45   23   26 1
  46   24   25 ar
  47   24   54 1
  48   25   55 1
  49   26   27 1
  50   26   30 1
  51   27   28 2
  52   28   29 1
  53   28   56 1
  54   29   30 2
  55   29   31 1
  56   30   57 1
  57   31   32 1
  58   31   33 1
  59   31   34 1
  60   35   58 1
  61   35   59 1
  62   35   60 1

#	End of record

