#	Name: ASD03430685
#	Creating user name:	WinNT
#	Creation time:	15. 06. 2019 20:41

#	Modifying user name:	WinNT
#	Modification time:	15. 06. 2019 20:41

#	Program:	/corina/corina34_cracker 3.40 0067  02.08.2006

@<TRIPOS>MOLECULE
ASD03430685
  60   66    0    0    0
SMALL
NO_CHARGES


@<TRIPOS>ATOM
   1 C1             2.6634     0.3806    -0.0152 C.ar    
   2 C2             2.0940    -0.8821    -0.0509 C.ar    
   3 C3             2.8756    -1.9942    -0.2688 C.ar    
   4 C4             4.2514    -1.8673    -0.4459 C.ar    
   5 C5             4.8180    -0.5994    -0.4121 C.ar    
   6 C6             4.0284     0.5225    -0.1959 C.ar    
   7 O7             4.8410    -3.0837    -0.6199 O.3     
   8 C8             2.5625    -3.4619    -0.3840 C.3     
   9 C9             3.8404    -4.0476    -1.0001 C.3     
  10 C10            0.9727    -4.6339     0.8077 C.ar    
  11 C11            2.2449    -4.0833     0.9437 C.ar    
  12 C12            1.3588    -3.7219    -1.2434 C.2     
  13 N13            0.4831    -4.4063    -0.4806 N.am    
  14 O14            1.2046    -3.3822    -2.3975 O.2     
  15 C15            2.9283    -4.1843     2.1344 C.ar    
  16 C16            2.3528    -4.8366     3.2108 C.ar    
  17 C17            1.0906    -5.3872     3.0870 C.ar    
  18 C18            0.4019    -5.2895     1.8955 C.ar    
  19 C19           -0.8290    -4.8595    -0.9487 C.3     
  20 C20           -1.9098    -4.1875    -0.1417 C.ar    
  21 C21           -0.9938    -4.5037    -2.4038 C.ar    
  22 O22            4.6299     1.7407    -0.1630 O.3     
  23 C23            1.7711     1.5735     0.2151 C.3     
  24 C24           -3.0535    -4.8854     0.1986 C.ar    
  25 C25           -4.0449    -4.2690     0.9388 C.ar    
  26 C26           -3.8925    -2.9547     1.3391 C.ar    
  27 C27           -2.7485    -2.2570     0.9996 C.ar    
  28 C28           -1.7551    -2.8748     0.2631 C.ar    
  29 C29           -0.9607    -5.4956    -3.3659 C.ar    
  30 C30           -1.1117    -5.1692    -4.7007 C.ar    
  31 C31           -1.2963    -3.8508    -5.0732 C.ar    
  32 C32           -1.3304    -2.8590    -4.1109 C.ar    
  33 C33           -1.1836    -3.1859    -2.7758 C.ar    
  34 C34            2.6167     2.7749     0.6448 C.3     
  35 C35            3.8050     2.8963    -0.3179 C.3     
  36 H36            1.0297    -0.9947     0.0936 H       
  37 H37            5.8824    -0.4851    -0.5549 H       
  38 H38            3.7542    -4.1085    -2.0850 H       
  39 H39            4.0630    -5.0255    -0.5730 H       
  40 H40            3.9143    -3.7539     2.2288 H       
  41 H41            2.8883    -4.9150     4.1454 H       
  42 H42            0.6418    -5.8965     3.9270 H       
  43 H43           -0.5835    -5.7224     1.8064 H       
  44 H44           -0.9044    -5.9402    -0.8281 H       
  45 H45            1.2417     1.8138    -0.7068 H       
  46 H46            1.0486     1.3404     0.9972 H       
  47 H47           -3.1726    -5.9123    -0.1142 H       
  48 H48           -4.9388    -4.8141     1.2040 H       
  49 H49           -4.6674    -2.4728     1.9168 H       
  50 H50           -2.6295    -1.2300     1.3121 H       
  51 H51           -0.8613    -2.3297    -0.0021 H       
  52 H52           -0.8164    -6.5256    -3.0749 H       
  53 H53           -1.0851    -5.9441    -5.4525 H       
  54 H54           -1.4137    -3.5957    -6.1160 H       
  55 H55           -1.4743    -1.8289    -4.4020 H       
  56 H56           -1.2102    -2.4110    -2.0240 H       
  57 H57            2.0146     3.6825     0.6014 H       
  58 H58            2.9811     2.6233     1.6608 H       
  59 H59            4.3794     3.7919    -0.0811 H       
  60 H60            3.4418     2.9532    -1.3441 H       
@<TRIPOS>BOND
   1    1    2 ar
   2    1    6 ar
   3    1   23 1
   4    2    3 ar
   5    2   36 1
   6    3    4 ar
   7    3    8 1
   8    4    5 ar
   9    4    7 1
  10    5    6 ar
  11    5   37 1
  12    6   22 1
  13    7    9 1
  14    8    9 1
  15    8   11 1
  16    8   12 1
  17    9   38 1
  18    9   39 1
  19   10   11 ar
  20   10   13 1
  21   10   18 ar
  22   11   15 ar
  23   12   13 am
  24   12   14 2
  25   13   19 1
  26   15   16 ar
  27   15   40 1
  28   16   17 ar
  29   16   41 1
  30   17   18 ar
  31   17   42 1
  32   18   43 1
  33   19   20 1
  34   19   21 1
  35   19   44 1
  36   20   24 ar
  37   20   28 ar
  38   21   29 ar
  39   21   33 ar
  40   22   35 1
  41   23   34 1
  42   23   45 1
  43   23   46 1
  44   24   25 ar
  45   24   47 1
  46   25   26 ar
  47   25   48 1
  48   26   27 ar
  49   26   49 1
  50   27   28 ar
  51   27   50 1
  52   28   51 1
  53   29   30 ar
  54   29   52 1
  55   30   31 ar
  56   30   53 1
  57   31   32 ar
  58   31   54 1
  59   32   33 ar
  60   32   55 1
  61   33   56 1
  62   34   35 1
  63   34   57 1
  64   34   58 1
  65   35   59 1
  66   35   60 1

#	End of record

