#	Name: ASD01882154
#	Creating user name:	WinNT
#	Creation time:	15. 06. 2019 19:44

#	Modifying user name:	WinNT
#	Modification time:	15. 06. 2019 19:44

#	Program:	/corina/corina34_cracker 3.40 0067  02.08.2006

@<TRIPOS>MOLECULE
ASD01882154
  50   53    0    0    0
SMALL
NO_CHARGES


@<TRIPOS>ATOM
   1 C1            -0.4070     0.7384    -1.1126 C.2     
   2 C2             0.0021    -0.0041     0.0020 C.2     
   3 C3            -0.8269    -0.0436     1.1386 C.2     
   4 C4            -1.9990     0.6181     1.1664 C.2     
   5 N5            -2.4375     1.3532     0.1042 N.pl3   
   6 C6            -1.6865     1.4486    -1.0386 C.2     
   7 C7            -3.5720     2.0989    -0.1027 C.2     
   8 C8            -3.4873     2.6148    -1.3454 C.2     
   9 N9            -2.3371     2.2111    -1.8983 N.2     
  10 N10            1.2030    -0.6889    -0.0141 N.pl3   
  11 C11           -4.7001     2.3019     0.8756 C.3     
  12 C12            1.2305    -2.1543     0.0880 C.3     
  13 C13            2.1618    -2.5511     1.2378 C.3     
  14 C14            3.5346    -1.9102     1.0215 C.3     
  15 C15            3.3932    -0.3864     1.0183 C.3     
  16 C16            2.4756     0.0345    -0.1397 C.3     
  17 C17            4.4635    -2.3260     2.1329 C.ar    
  18 C18            4.1538    -2.0176     3.4441 C.ar    
  19 C19            5.0060    -2.3990     4.4638 C.ar    
  20 C20            6.1675    -3.0890     4.1720 C.ar    
  21 C21            6.4769    -3.3982     2.8604 C.ar    
  22 C22            5.6227    -3.0208     1.8415 C.ar    
  23 C23            7.7435    -4.1501     2.5422 C.3     
  24 F24            8.4347    -4.4221     3.7277 F       
  25 F25            7.4238    -5.3525     1.9025 F       
  26 F26            8.5479    -3.3738     1.7010 F       
  27 C27           -5.8074     1.2838     0.5957 C.3     
  28 F28           -5.2964    -0.0111     0.7354 F       
  29 F29           -6.8547     1.4723     1.5039 F       
  30 F30           -6.2834     1.4592    -0.7080 F       
  31 C31            0.4055     0.8066    -2.2898 C.1     
  32 N32            1.0500     0.8606    -3.2237 N.1     
  33 H33           -0.5180    -0.6142     2.0020 H       
  34 H34           -2.6099     0.5652     2.0554 H       
  35 H35           -4.2232     3.2506    -1.8152 H       
  36 H36           -4.3292     2.1653     1.8914 H       
  37 H37           -5.0982     3.3108     0.7668 H       
  38 H38            0.2253    -2.5257     0.2872 H       
  39 H39            1.6008    -2.5787    -0.8452 H       
  40 H40            1.7426    -2.2033     2.1820 H       
  41 H41            2.2666    -3.6358     1.2634 H       
  42 H42            3.9423    -2.2391     0.0656 H       
  43 H43            2.9625    -0.0590     1.9645 H       
  44 H44            4.3745     0.0697     0.8875 H       
  45 H45            2.9498    -0.2117    -1.0897 H       
  46 H46            2.2912     1.1076    -0.0883 H       
  47 H47            3.2462    -1.4784     3.6722 H       
  48 H48            4.7643    -2.1574     5.4883 H       
  49 H49            6.8336    -3.3862     4.9684 H       
  50 H50            5.8644    -3.2623     0.8170 H       
@<TRIPOS>BOND
   1    1    2 2
   2    1   31 1
   3    1    6 1
   4    2    3 1
   5    2   10 1
   6    3    4 2
   7    3   33 1
   8    4    5 1
   9    4   34 1
  10    5    6 1
  11    5    7 1
  12    6    9 2
  13    7    8 2
  14    7   11 1
  15    8    9 1
  16    8   35 1
  17   10   12 1
  18   10   16 1
  19   11   27 1
  20   11   36 1
  21   11   37 1
  22   12   13 1
  23   12   38 1
  24   12   39 1
  25   13   14 1
  26   13   40 1
  27   13   41 1
  28   14   15 1
  29   14   17 1
  30   14   42 1
  31   15   16 1
  32   15   43 1
  33   15   44 1
  34   16   45 1
  35   16   46 1
  36   17   18 ar
  37   17   22 ar
  38   18   19 ar
  39   18   47 1
  40   19   20 ar
  41   19   48 1
  42   20   21 ar
  43   20   49 1
  44   21   22 ar
  45   21   23 1
  46   22   50 1
  47   23   24 1
  48   23   25 1
  49   23   26 1
  50   27   28 1
  51   27   29 1
  52   27   30 1
  53   31   32 3

#	End of record

