#	Name: ASD01001123
#	Creating user name:	WinNT
#	Creation time:	15. 06. 2019 18:55

#	Modifying user name:	WinNT
#	Modification time:	15. 06. 2019 18:55

#	Program:	/corina/corina34_cracker 3.40 0067  02.08.2006

@<TRIPOS>MOLECULE
ASD01001123
  44   47    0    0    0
SMALL
NO_CHARGES


@<TRIPOS>ATOM
   1 C1            -0.0161     1.3338     0.0094 C.2     
   2 C2             0.0021    -0.0041     0.0020 C.2     
   3 C3            -1.3323    -0.5755     0.0105 C.2     
   4 C4            -2.3245     0.3651     0.0244 C.2     
   5 S5            -1.6658     1.9350     0.0208 S.3     
   6 N6            -3.6799     0.0799     0.0339 N.am    
   7 C7            -4.5797     1.0832     0.0474 C.2     
   8 C8            -1.5906    -2.0184     0.0042 C.2     
   9 O9            -1.6884    -2.6237     1.0557 O.2     
  10 C10           -6.0134     0.7815     0.0576 C.2     
  11 C11            1.2250     2.2057     0.0022 C.3     
  12 C12            2.4300     1.3497     0.4014 C.3     
  13 C13            2.4400     0.0744    -0.4468 C.3     
  14 C14            1.2810    -0.8262    -0.0127 C.3     
  15 C15           -7.0186     1.7077     0.0715 C.2     
  16 C16           -8.2738     1.1474     0.0786 C.2     
  17 C17           -8.2984    -0.1906     0.0708 C.2     
  18 S18           -6.7167    -0.8300     0.0461 S.3     
  19 N19           -1.7196    -2.6748    -1.1658 N.am    
  20 O20           -4.2012     2.2400     0.0512 O.2     
  21 C21           -1.9787    -4.1142    -1.3167 C.3     
  22 C22           -2.0210    -4.4160    -2.8295 C.3     
  23 C23           -1.2220    -3.2352    -3.4419 C.3     
  24 C24           -1.6308    -2.0674    -2.5061 C.3     
  25 H25           -3.9815    -0.8420     0.0309 H       
  26 H26            1.3803     2.6121    -0.9972 H       
  27 H27            1.1031     3.0207     0.7156 H       
  28 H28            3.3487     1.9101     0.2281 H       
  29 H29            2.3561     1.0854     1.4563 H       
  30 H30            2.3251     0.3358    -1.4987 H       
  31 H31            3.3837    -0.4517    -0.3023 H       
  32 H32            1.4766    -1.2178     0.9855 H       
  33 H33            1.1757    -1.6513    -0.7171 H       
  34 H34           -6.8440     2.7735     0.0767 H       
  35 H35           -9.1744     1.7434     0.0900 H       
  36 H36           -9.1993    -0.7863     0.0751 H       
  37 H37           -1.1785    -4.6861    -0.8468 H       
  38 H38           -2.9357    -4.3684    -0.8611 H       
  39 H39           -1.5327    -5.3659    -3.0471 H       
  40 H40           -3.0482    -4.4167    -3.1940 H       
  41 H41           -0.1493    -3.4223    -3.3930 H       
  42 H42           -1.5368    -3.0406    -4.4671 H       
  43 H43           -2.5953    -1.6591    -2.8080 H       
  44 H44           -0.8683    -1.2886    -2.5161 H       
@<TRIPOS>BOND
   1    1    2 2
   2    1   11 1
   3    1    5 1
   4    2    3 1
   5    2   14 1
   6    3    4 2
   7    3    8 1
   8    4    5 1
   9    4    6 1
  10    6    7 am
  11    6   25 1
  12    7   10 1
  13    7   20 2
  14    8    9 2
  15    8   19 am
  16   10   15 2
  17   10   18 1
  18   11   12 1
  19   11   26 1
  20   11   27 1
  21   12   13 1
  22   12   28 1
  23   12   29 1
  24   13   14 1
  25   13   30 1
  26   13   31 1
  27   14   32 1
  28   14   33 1
  29   15   16 1
  30   15   34 1
  31   16   17 2
  32   16   35 1
  33   17   18 1
  34   17   36 1
  35   19   21 1
  36   19   24 1
  37   21   22 1
  38   21   37 1
  39   21   38 1
  40   22   23 1
  41   22   39 1
  42   22   40 1
  43   23   24 1
  44   23   41 1
  45   23   42 1
  46   24   43 1
  47   24   44 1

#	End of record

