#	Name: ASD01813018
#	Creating user name:	WinNT
#	Creation time:	15. 06. 2019 19:29

#	Modifying user name:	WinNT
#	Modification time:	15. 06. 2019 19:29

#	Program:	/corina/corina34_cracker 3.40 0067  02.08.2006

@<TRIPOS>MOLECULE
ASD01813018
  45   48    0    0    0
SMALL
NO_CHARGES


@<TRIPOS>ATOM
   1 C1            -0.6674     1.4729     0.0024 C.2     
   2 C2            -0.4101     0.1547    -0.0343 C.2     
   3 N3            -1.4217    -0.7582     0.0645 N.pl3   
   4 C4            -2.7105    -0.4194     0.1885 C.2     
   5 C5            -3.0775     0.9113     0.2255 C.2     
   6 C6            -2.0125     1.9182     0.1326 C.2     
   7 O7            -2.2759     3.1100     0.1590 O.2     
   8 C8            -1.0779    -2.1820     0.0326 C.3     
   9 C9            -1.2003    -2.6968    -1.3785 C.ar    
  10 C10            0.4045     2.5267    -0.0817 C.3     
  11 C11            1.6984     1.9396    -0.6415 C.3     
  12 C12            2.0279     0.6683     0.1506 C.3     
  13 C13            0.9868    -0.3933    -0.1944 C.3     
  14 O14           -0.0404     3.5832    -0.9349 O.3     
  15 C15           -0.0663    -2.7638    -2.1852 C.ar    
  16 C16           -0.1423    -3.2234    -3.4643 C.ar    
  17 C17           -1.3812    -3.6375    -3.9817 C.ar    
  18 C18           -2.5347    -3.5698    -3.1608 C.ar    
  19 C19           -2.4161    -3.0946    -1.8439 C.ar    
  20 C20           -1.4992    -4.1172    -5.2975 C.ar    
  21 C21           -2.7158    -4.5093    -5.7647 C.ar    
  22 C22           -3.8501    -4.4428    -4.9574 C.ar    
  23 C23           -3.7741    -3.9838    -3.6785 C.ar    
  24 C24           -4.4883     1.3072     0.3583 C.2     
  25 O25           -5.3533     0.4570     0.4375 O.2     
  26 O26           -4.8216     2.6128     0.3922 O.3     
  27 H27           -3.4653    -1.1886     0.2594 H       
  28 H28           -0.0538    -2.3163     0.3808 H       
  29 H29           -1.7577    -2.7345     0.6812 H       
  30 H30            0.5935     2.9265     0.9145 H       
  31 H31            1.5649     1.6927    -1.6948 H       
  32 H32            2.5076     2.6616    -0.5319 H       
  33 H33            3.0210     0.3118    -0.1228 H       
  34 H34            1.9947     0.8819     1.2190 H       
  35 H35            1.1145    -1.2495     0.4679 H       
  36 H36            1.1301    -0.7143    -1.2262 H       
  37 H37            0.5991     4.3011    -1.0381 H       
  38 H38            0.8872    -2.4461    -1.7900 H       
  39 H39            0.7450    -3.2691    -4.0784 H       
  40 H40           -3.2864    -3.0374    -1.2070 H       
  41 H41           -0.6290    -4.1741    -5.9347 H       
  42 H42           -2.8038    -4.8772    -6.7763 H       
  43 H43           -4.8036    -4.7602    -5.3528 H       
  44 H44           -4.6614    -3.9382    -3.0645 H       
  45 H45           -5.7611     2.8239     0.4805 H       
@<TRIPOS>BOND
   1    1    2 2
   2    1   10 1
   3    1    6 1
   4    2    3 1
   5    2   13 1
   6    3    4 1
   7    3    8 1
   8    4    5 2
   9    4   27 1
  10    5    6 1
  11    5   24 1
  12    6    7 2
  13    8    9 1
  14    8   28 1
  15    8   29 1
  16    9   15 ar
  17    9   19 ar
  18   10   11 1
  19   10   14 1
  20   10   30 1
  21   11   12 1
  22   11   31 1
  23   11   32 1
  24   12   13 1
  25   12   33 1
  26   12   34 1
  27   13   35 1
  28   13   36 1
  29   14   37 1
  30   15   16 ar
  31   15   38 1
  32   16   17 ar
  33   16   39 1
  34   17   18 ar
  35   17   20 ar
  36   18   19 ar
  37   18   23 ar
  38   19   40 1
  39   20   21 ar
  40   20   41 1
  41   21   22 ar
  42   21   42 1
  43   22   23 ar
  44   22   43 1
  45   23   44 1
  46   24   25 2
  47   24   26 1
  48   26   45 1

#	End of record

