#	Name: ASD01940625
#	Creating user name:	WinNT
#	Creation time:	15. 06. 2019 20:12

#	Modifying user name:	WinNT
#	Modification time:	15. 06. 2019 20:12

#	Program:	/corina/corina34_cracker 3.40 0067  02.08.2006

@<TRIPOS>MOLECULE
ASD01940625
  46   48    0    0    0
SMALL
NO_CHARGES


@<TRIPOS>ATOM
   1 C1            -0.2210     1.3406     0.4958 C.ar    
   2 C2            -0.4650    -0.0409     0.5390 C.ar    
   3 C3             0.5324    -0.9028     0.9622 C.ar    
   4 C4             1.7689    -0.4067     1.3432 C.ar    
   5 C5             2.0213     0.9542     1.3053 C.ar    
   6 C6             1.0365     1.8348     0.8837 C.ar    
   7 N7             1.2913     3.2000     0.8457 N.pl3   
   8 C8             2.2944     3.7471     1.6530 C.ar    
   9 C9             2.7082     3.0788     2.7970 C.ar    
  10 C10            3.6992     3.6215     3.5926 C.ar    
  11 C11            4.2794     4.8294     3.2510 C.ar    
  12 C12            3.8702     5.4994     2.1114 C.ar    
  13 C13            2.8833     4.9594     1.3079 C.ar    
  14 F14            2.4876     5.6106     0.1923 F       
  15 I15            5.7808     5.6472     4.4617 I       
  16 F16            2.7349    -1.2568     1.7549 F       
  17 C17           -1.2713     2.2638     0.0422 C.2     
  18 O18           -2.0526     2.7381     0.8451 O.2     
  19 N19           -1.3686     2.5849    -1.2631 N.am    
  20 O20           -1.6743    -0.5300     0.1677 O.3     
  21 C21           -1.8335    -1.8801     0.1325 C.ar    
  22 C22           -2.1540    -2.5762     1.2962 C.ar    
  23 C23           -2.3155    -3.9535     1.2538 C.ar    
  24 C24           -2.1585    -4.6309     0.0593 C.ar    
  25 C25           -1.8401    -3.9394    -1.0950 C.ar    
  26 C26           -1.6831    -2.5661    -1.0617 C.ar    
  27 N27           -2.3119    -1.8882     2.5043 N.am    
  28 S28           -3.4135    -2.4186     3.6213 S.o2    
  29 N29           -2.8399    -3.8451     4.2364 N.am    
  30 O30           -3.3854    -1.4812     4.6889 O.2     
  31 O31           -4.5947    -2.7390     2.8993 O.2     
  32 H32            0.3459    -1.9661     0.9959 H       
  33 H33            2.9881     1.3311     1.6049 H       
  34 H34            0.7737     3.7738     0.2595 H       
  35 H35            2.2558     2.1356     3.0654 H       
  36 H36            4.0208     3.1016     4.4829 H       
  37 H37            4.3249     6.4427     1.8474 H       
  38 H38           -0.7457     2.2068    -1.9033 H       
  39 H39           -2.0616     3.1941    -1.5624 H       
  40 H40           -2.5636    -4.4962     2.1540 H       
  41 H41           -2.2845    -5.7030     0.0275 H       
  42 H42           -1.7177    -4.4731    -2.0259 H       
  43 H43           -1.4387    -2.0286    -1.9661 H       
  44 H44           -1.7762    -1.1006     2.6876 H       
  45 H45           -1.9967    -4.2055     3.9200 H       
  46 H46           -3.3471    -4.3203     4.9130 H       
@<TRIPOS>BOND
   1    1    2 ar
   2    1    6 ar
   3    1   17 1
   4    2    3 ar
   5    2   20 1
   6    3    4 ar
   7    3   32 1
   8    4    5 ar
   9    4   16 1
  10    5    6 ar
  11    5   33 1
  12    6    7 1
  13    7    8 1
  14    7   34 1
  15    8    9 ar
  16    8   13 ar
  17    9   10 ar
  18    9   35 1
  19   10   11 ar
  20   10   36 1
  21   11   12 ar
  22   11   15 1
  23   12   13 ar
  24   12   37 1
  25   13   14 1
  26   17   18 2
  27   17   19 am
  28   19   38 1
  29   19   39 1
  30   20   21 1
  31   21   22 ar
  32   21   26 ar
  33   22   23 ar
  34   22   27 1
  35   23   24 ar
  36   23   40 1
  37   24   25 ar
  38   24   41 1
  39   25   26 ar
  40   25   42 1
  41   26   43 1
  42   27   28 am
  43   27   44 1
  44   28   29 am
  45   28   30 2
  46   28   31 2
  47   29   45 1
  48   29   46 1

#	End of record

