#	Name: ASD01948138
#	Creating user name:	WinNT
#	Creation time:	15. 06. 2019 20:13

#	Modifying user name:	WinNT
#	Modification time:	15. 06. 2019 20:13

#	Program:	/corina/corina34_cracker 3.40 0067  02.08.2006

@<TRIPOS>MOLECULE
ASD01948138
  46   49    0    0    0
SMALL
NO_CHARGES


@<TRIPOS>ATOM
   1 C1             1.8319     1.3945     1.0503 C.ar    
   2 C2             1.8200     0.0033     1.0448 C.ar    
   3 C3             2.4022    -0.6967     2.0926 C.ar    
   4 C4             2.9914    -0.0108     3.1374 C.ar    
   5 C5             3.0018     1.3721     3.1413 C.ar    
   6 C6             2.4278     2.0743     2.0962 C.ar    
   7 N7             1.2223    -0.6887    -0.0143 N.pl3   
   8 C8             3.8108    -1.9712    -0.4396 C.2     
   9 C9             2.6136    -2.7150    -0.2965 C.2     
  10 C10            1.3225    -2.0636    -0.0843 C.2     
  11 N11            4.9612    -2.6544    -0.6385 N.am    
  12 F12            1.2669     2.0799     0.0324 F       
  13 C13            2.6728    -4.1147    -0.3611 C.2     
  14 N14            1.5269    -4.8476    -0.2255 N.am    
  15 C15            0.3355    -4.2583    -0.0302 C.2     
  16 C16            0.2020    -2.8692     0.0448 C.2     
  17 C17            4.9511    -4.0088    -0.6964 C.2     
  18 N18            3.8581    -4.7084    -0.5562 N.2     
  19 O19            3.8037    -0.7539    -0.3902 O.2     
  20 C20            1.5998    -6.3092    -0.2946 C.3     
  21 O21           -0.6590    -4.9562     0.0847 O.2     
  22 I22            3.8961     2.4061     4.7287 I       
  23 C23            6.1684    -1.9593    -0.7857 C.ar    
  24 C24            6.5934    -1.5622    -2.0468 C.ar    
  25 C25            6.9397    -1.6608     0.3295 C.ar    
  26 C26            8.1294    -0.9747     0.1811 C.ar    
  27 C27            8.5524    -0.5854    -1.0763 C.ar    
  28 C28            7.7838    -0.8767    -2.1886 C.ar    
  29 N29            9.8275     0.1500    -1.2317 N.pl3   
  30 O30           10.5029     0.4116    -0.2525 O.2     
  31 O31           10.2013     0.4936    -2.3389 O.2     
  32 N32            5.7717    -1.8740    -3.2377 N.pl3   
  33 O33            6.1450    -1.5255    -4.3435 O.2     
  34 O34            4.7221    -2.4791    -3.1120 O.2     
  35 H35            2.3942    -1.7766     2.0913 H       
  36 H36            3.4443    -0.5556     3.9526 H       
  37 H37            2.4374     3.1542     2.1020 H       
  38 H38            0.7374    -0.2022    -0.6992 H       
  39 H39           -0.7699    -2.4254     0.2030 H       
  40 H40            5.8839    -4.5289    -0.8566 H       
  41 H41            1.7643    -6.7124     0.7046 H       
  42 H42            0.6648    -6.7010    -0.6952 H       
  43 H43            2.4244    -6.6015    -0.9447 H       
  44 H44            6.6096    -1.9643     1.3120 H       
  45 H45            8.7296    -0.7419     1.0482 H       
  46 H46            8.1170    -0.5716    -3.1695 H       
@<TRIPOS>BOND
   1    1    2 ar
   2    1   12 1
   3    1    6 ar
   4    2    3 ar
   5    2    7 1
   6    3    4 ar
   7    3   35 1
   8    4    5 ar
   9    4   36 1
  10    5    6 ar
  11    5   22 1
  12    6   37 1
  13    7   10 1
  14    7   38 1
  15    8    9 1
  16    8   19 2
  17    8   11 am
  18    9   10 1
  19    9   13 2
  20   10   16 2
  21   11   17 1
  22   11   23 1
  23   13   14 1
  24   13   18 1
  25   14   15 am
  26   14   20 1
  27   15   16 1
  28   15   21 2
  29   16   39 1
  30   17   18 2
  31   17   40 1
  32   20   41 1
  33   20   42 1
  34   20   43 1
  35   23   24 ar
  36   23   25 ar
  37   24   32 1
  38   24   28 ar
  39   25   26 ar
  40   25   44 1
  41   26   27 ar
  42   26   45 1
  43   27   28 ar
  44   27   29 1
  45   28   46 1
  46   29   30 2
  47   29   31 2
  48   32   33 2
  49   32   34 2

#	End of record

