#	Name: ASD01880009
#	Creating user name:	WinNT
#	Creation time:	15. 06. 2019 19:39

#	Modifying user name:	WinNT
#	Modification time:	15. 06. 2019 19:39

#	Program:	/corina/corina34_cracker 3.40 0067  02.08.2006

@<TRIPOS>MOLECULE
ASD01880009
  59   61    0    0    0
SMALL
NO_CHARGES


@<TRIPOS>ATOM
   1 N1             0.0243    -0.0604    -0.2249 N.pl3   
   2 N2            -0.0220     1.2250    -0.2772 N.2     
   3 N3             1.1817     1.6883    -0.2650 N.2     
   4 C4             2.0119     0.6376    -0.2022 C.2     
   5 N5             1.2547    -0.4412    -0.1786 N.2     
   6 C6             3.4952     0.6806    -0.1666 C.ar    
   7 C7             4.1589     1.9054    -0.1983 C.ar    
   8 C8             5.5372     1.9423    -0.1652 C.ar    
   9 C9             6.2632     0.7608    -0.1008 C.ar    
  10 C10            5.6045    -0.4609    -0.0696 C.ar    
  11 C11            4.2263    -0.5035    -0.0957 C.ar    
  12 C12           12.0039     1.3551     4.6379 C.ar    
  13 C13           13.2177     1.5251     3.9771 C.ar    
  14 C14           14.3944     1.4516     4.6642 C.ar    
  15 C15           14.3876     1.2043     6.0435 C.ar    
  16 C16           13.1628     1.0325     6.7141 C.ar    
  17 C17           11.9778     1.1093     6.0035 C.ar    
  18 C18           10.6603     0.9274     6.7121 C.3     
  19 C19           10.1546     2.2846     7.2050 C.3     
  20 C20            8.8170     2.0999     7.9244 C.3     
  21 O21           13.1436     0.7922     8.0485 O.3     
  22 C22           15.6494     1.1244     6.7833 C.2     
  23 C23           16.9613     1.1867     6.0444 C.3     
  24 O24           15.6383     1.0082     7.9911 O.2     
  25 O25            7.6210     0.8001    -0.0688 O.3     
  26 C26            8.2354     2.0861    -0.1721 C.3     
  27 C27           10.9380     1.6967     2.5427 C.3     
  28 C28            9.6387     2.0311     0.4350 C.3     
  29 C29            9.5346     1.7516     1.9356 C.3     
  30 O30           10.8408     1.4356     3.9443 O.3     
  31 C31            8.3323     2.4882    -1.6451 C.3     
  32 H32           -0.7460    -0.6498    -0.2174 H       
  33 H33            3.5946     2.8248    -0.2492 H       
  34 H34            6.0522     2.8913    -0.1898 H       
  35 H35            6.1718    -1.3785    -0.0198 H       
  36 H36            3.7143    -1.4542    -0.0714 H       
  37 H37           13.2279     1.7159     2.9141 H       
  38 H38           15.3318     1.5839     4.1444 H       
  39 H39            9.9335     0.4973     6.0229 H       
  40 H40           10.7944     0.2589     7.5625 H       
  41 H41           10.8814     2.7147     7.8941 H       
  42 H42           10.0205     2.9531     6.3545 H       
  43 H43            8.4567     3.0668     8.2755 H       
  44 H44            8.0902     1.6698     7.2352 H       
  45 H45            8.9511     1.4314     8.7748 H       
  46 H46           13.1016     1.5913     8.5915 H       
  47 H47           16.7733     1.2035     4.9709 H       
  48 H48           17.4986     2.0900     6.3333 H       
  49 H49           17.5611     0.3116     6.2945 H       
  50 H50            7.6352     2.8198     0.3661 H       
  51 H51           11.5101     0.9019     2.0639 H       
  52 H52           11.4398     2.6513     2.3848 H       
  53 H53           10.2108     1.2364    -0.0438 H       
  54 H54           10.1405     2.9858     0.2771 H       
  55 H55            9.0328     0.7970     2.0934 H       
  56 H56            8.9625     2.5464     2.4144 H       
  57 H57            8.9325     1.7545    -2.1833 H       
  58 H58            7.3325     2.5274    -2.0776 H       
  59 H59            8.8009     3.4692    -1.7239 H       
@<TRIPOS>BOND
   1    1    2 1
   2    1    5 1
   3    1   32 1
   4    2    3 2
   5    3    4 1
   6    4    5 2
   7    4    6 1
   8    6    7 ar
   9    6   11 ar
  10    7    8 ar
  11    7   33 1
  12    8    9 ar
  13    8   34 1
  14    9   10 ar
  15    9   25 1
  16   10   11 ar
  17   10   35 1
  18   11   36 1
  19   12   13 ar
  20   12   17 ar
  21   12   30 1
  22   13   14 ar
  23   13   37 1
  24   14   15 ar
  25   14   38 1
  26   15   16 ar
  27   15   22 1
  28   16   17 ar
  29   16   21 1
  30   17   18 1
  31   18   19 1
  32   18   39 1
  33   18   40 1
  34   19   20 1
  35   19   41 1
  36   19   42 1
  37   20   43 1
  38   20   44 1
  39   20   45 1
  40   21   46 1
  41   22   23 1
  42   22   24 2
  43   23   47 1
  44   23   48 1
  45   23   49 1
  46   25   26 1
  47   26   28 1
  48   26   31 1
  49   26   50 1
  50   27   30 1
  51   27   29 1
  52   27   51 1
  53   27   52 1
  54   28   29 1
  55   28   53 1
  56   28   54 1
  57   29   55 1
  58   29   56 1
  59   31   57 1
  60   31   58 1
  61   31   59 1

#	End of record

