#	Name: ASD01150118
#	Creating user name:	WinNT
#	Creation time:	15. 06. 2019 19:03

#	Modifying user name:	WinNT
#	Modification time:	15. 06. 2019 19:03

#	Program:	/corina/corina34_cracker 3.40 0067  02.08.2006

@<TRIPOS>MOLECULE
ASD01150118
  60   64    0    0    0
SMALL
NO_CHARGES


@<TRIPOS>ATOM
   1 N1            -0.4335     1.4157    -0.4311 N.pl3   
   2 C2            -0.2217     0.0691    -0.2131 C.2     
   3 C3            -1.4774    -0.5252    -0.2025 C.2     
   4 N4            -2.3750     0.4424    -0.4064 N.2     
   5 C5            -1.7649     1.5929    -0.5365 C.2     
   6 C6             0.9215    -0.7355    -0.0179 C.2     
   7 N7             0.7684    -2.0622     0.1743 N.am    
   8 C8            -0.4526    -2.6242     0.1817 C.2     
   9 N9            -1.5683    -1.8928    -0.0001 N.am    
  10 O10            2.0332    -0.2380    -0.0234 O.2     
  11 C11           -2.8804    -2.5443     0.0151 C.3     
  12 O12           -0.5521    -3.8233     0.3575 O.2     
  13 C13            1.9508    -2.9030     0.3774 C.3     
  14 C14            2.2671    -2.9779     1.8490 C.ar    
  15 C15            1.7092    -3.9762     2.6257 C.ar    
  16 C16            1.9989    -4.0454     3.9753 C.ar    
  17 C17            2.8475    -3.1154     4.5490 C.ar    
  18 C18            3.4055    -2.1166     3.7712 C.ar    
  19 C19            3.1195    -2.0517     2.4205 C.ar    
  20 Cl20           3.2114    -3.2014     6.2442 Cl      
  21 C21           -2.4477     2.9145    -0.7781 C.3     
  22 C22           -2.7742     3.5727     0.5639 C.3     
  23 C23            0.5942     2.4557    -0.5239 C.3     
  24 C24           -3.3756    -2.6435     1.4350 C.2     
  25 C25           -4.5862    -3.1052     1.8255 C.2     
  26 N26           -4.6393    -3.0308     3.1746 N.pl3   
  27 N27           -3.4210    -2.5061     3.6250 N.2     
  28 C28           -2.6624    -2.2802     2.5826 C.2     
  29 C29           -5.7221    -3.4113     3.9800 C.ar    
  30 C30           -5.5023    -4.1373     5.1428 C.ar    
  31 C31           -6.5705    -4.5110     5.9345 C.ar    
  32 C32           -7.8591    -4.1623     5.5696 C.ar    
  33 C33           -8.0806    -3.4386     4.4110 C.ar    
  34 C34           -7.0152    -3.0577     3.6190 C.ar    
  35 Cl35          -9.1997    -4.6340     6.5665 Cl      
  36 C36           -5.6791    -3.6110     0.9195 C.3     
  37 F37           -6.5676    -2.5688     0.6338 F       
  38 F38           -5.1164    -4.0837    -0.2710 F       
  39 F39           -6.3677    -4.6501     1.5546 F       
  40 H40           -3.5843    -1.9574    -0.5750 H       
  41 H41           -2.7946    -3.5441    -0.4105 H       
  42 H42            1.7538    -3.9052    -0.0033 H       
  43 H43            2.7988    -2.4722    -0.1550 H       
  44 H44            1.0465    -4.7019     2.1778 H       
  45 H45            1.5627    -4.8251     4.5821 H       
  46 H46            4.0680    -1.3903     4.2184 H       
  47 H47            3.5551    -1.2721     1.8132 H       
  48 H48           -1.7871     3.5654    -1.3509 H       
  49 H49           -3.3695     2.7505    -1.3362 H       
  50 H50           -3.2681     4.5286     0.3891 H       
  51 H51           -3.4348     2.9218     1.1367 H       
  52 H52           -1.8524     3.7367     1.1220 H       
  53 H53            0.9133     2.5596    -1.5609 H       
  54 H54            0.1850     3.4031    -0.1730 H       
  55 H55            1.4487     2.1782     0.0933 H       
  56 H56           -1.6611    -1.8761     2.6042 H       
  57 H57           -4.4969    -4.4099     5.4278 H       
  58 H58           -6.4001    -5.0761     6.8390 H       
  59 H59           -9.0871    -3.1677     4.1283 H       
  60 H60           -7.1886    -2.4929     2.7149 H       
@<TRIPOS>BOND
   1    1    2 1
   2    1   23 1
   3    1    5 1
   4    2    3 2
   5    2    6 1
   6    3    4 1
   7    3    9 1
   8    4    5 2
   9    5   21 1
  10    6    7 am
  11    6   10 2
  12    7    8 am
  13    7   13 1
  14    8    9 am
  15    8   12 2
  16    9   11 1
  17   11   24 1
  18   11   40 1
  19   11   41 1
  20   13   14 1
  21   13   42 1
  22   13   43 1
  23   14   15 ar
  24   14   19 ar
  25   15   16 ar
  26   15   44 1
  27   16   17 ar
  28   16   45 1
  29   17   18 ar
  30   17   20 1
  31   18   19 ar
  32   18   46 1
  33   19   47 1
  34   21   22 1
  35   21   48 1
  36   21   49 1
  37   22   50 1
  38   22   51 1
  39   22   52 1
  40   23   53 1
  41   23   54 1
  42   23   55 1
  43   24   25 2
  44   24   28 1
  45   25   26 1
  46   25   36 1
  47   26   27 1
  48   26   29 1
  49   27   28 2
  50   28   56 1
  51   29   30 ar
  52   29   34 ar
  53   30   31 ar
  54   30   57 1
  55   31   32 ar
  56   31   58 1
  57   32   33 ar
  58   32   35 1
  59   33   34 ar
  60   33   59 1
  61   34   60 1
  62   36   37 1
  63   36   38 1
  64   36   39 1

#	End of record

