#	Name: ASD05060026
#	Creating user name:	WinNT
#	Creation time:	15. 06. 2019 20:56

#	Modifying user name:	WinNT
#	Modification time:	15. 06. 2019 20:56

#	Program:	/corina/corina34_cracker 3.40 0067  02.08.2006

@<TRIPOS>MOLECULE
ASD05060026
 127  128    0    0    0
SMALL
NO_CHARGES


@<TRIPOS>ATOM
   1 N1            -2.4861     5.2112    -2.6803 N.3     
   2 N2            -2.3441     4.0221    -3.5048 N.3     
   3 C3            -3.6058     3.2724    -3.5689 C.3     
   4 C4            -3.7083     2.3593    -2.3744 C.2     
   5 N5            -4.8987     2.2767    -1.7096 N.am    
   6 C6            -4.9155     1.3582    -0.5485 C.3     
   7 C7            -6.0383     1.7651     0.3708 C.2     
   8 N8            -5.9021     1.5652     1.7104 N.am    
   9 C9            -7.0344     1.9853     2.5595 C.3     
  10 C10           -6.5097     2.8422     3.6825 C.2     
  11 N11           -7.2470     3.9177     4.0888 N.am    
  12 C12           -6.6646     4.7048     5.1993 C.3     
  13 C13           -6.5904     6.1501     4.7788 C.2     
  14 N14           -5.5921     6.9322     5.2733 N.am    
  15 C15           -5.5702     8.3387     4.8248 C.3     
  16 C16           -4.1946     8.6608     4.3004 C.2     
  17 N17           -4.0498     9.7046     3.4315 N.am    
  18 C18           -2.6682     9.9528     2.9607 C.3     
  19 C19           -2.6727     9.9874     1.4540 C.2     
  20 C20           -1.6037     9.2907     0.6913 C.2     
  21 C21           -1.6102     9.3227    -0.8155 C.3     
  22 N22           -1.1834     8.0030    -1.3219 N.am    
  23 C23           -1.8282     7.5366    -2.4261 C.2     
  24 C24           -1.4385     6.1938    -2.9888 C.3     
  25 O25           -2.7042     8.1920    -2.9495 O.2     
  26 O26           -0.7299     8.6993     1.2791 O.2     
  27 O27           -3.5451    10.5808     0.8661 O.2     
  28 O28           -3.2336     8.0054     4.6439 O.2     
  29 O29           -7.4083     6.6097     4.0102 O.2     
  30 O30           -5.4519     2.5818     4.2156 O.2     
  31 O31           -7.0494     2.2634    -0.0767 O.2     
  32 O32           -2.7513     1.7093    -2.0102 O.2     
  33 C33           -4.7816     4.2514    -3.5650 C.3     
  34 C34           -4.8055     5.0250    -4.8848 C.3     
  35 C35           -6.1286     5.7835    -5.0074 C.3     
  36 C36           -3.6430     6.0193    -4.9142 C.3     
  37 C37           -0.1166     5.7431    -2.3642 C.3     
  38 O38            0.3278     4.5445    -3.0028 O.3     
  39 C39           -8.0311     2.7904     1.7232 C.3     
  40 C40           -7.3122     3.9739     1.0727 C.3     
  41 C41           -8.2093     4.5857    -0.0052 C.3     
  42 C42           -8.6252     1.8938     0.6350 C.3     
  43 C43           -5.1413    -0.0759    -1.0314 C.3     
  44 C44           -3.9494    -0.5217    -1.8807 C.3     
  45 C45           -4.1752    -1.9558    -2.3636 C.3     
  46 C46           -2.9832    -2.4016    -3.2130 C.3     
  47 N47           -3.2000    -3.7785    -3.6766 N.3     
  48 C48           -6.6024     8.5385     3.7132 C.3     
  49 C49           -6.2341     7.6856     2.5266 C.2     
  50 O50           -5.2436     6.9868     2.5661 O.2     
  51 N51           -7.0054     7.6994     1.4215 N.am    
  52 C52           -2.1738    11.2951     3.5037 C.3     
  53 C53           -2.5314    11.3835     7.1403 C.2     
  54 N54           -1.3397    10.8650     7.0211 N.2     
  55 C55           -1.0333    10.7552     5.7200 C.2     
  56 C56           -2.0745    11.2234     5.0057 C.2     
  57 N57           -3.0251    11.6221     5.9063 N.pl3   
  58 C58           -7.5408     3.1468     6.9180 C.2     
  59 C59           -7.5507     4.5759     6.4398 C.3     
  60 O60           -6.8916     2.3166     6.3272 O.2     
  61 O61           -8.2532     2.7962     8.0003 O.3     
  62 C62           -3.9471     8.5027    -0.9384 C.2     
  63 C63           -3.0227     9.6314    -1.3157 C.3     
  64 O64           -3.5408     7.5908    -0.2578 O.2     
  65 O65           -5.2220     8.5103    -1.3585 O.3     
  66 H66           -3.4042     5.6164    -2.7852 H       
  67 H67           -2.0175     4.2601    -4.4293 H       
  68 H68           -3.6299     2.6791    -4.4830 H       
  69 H69           -5.6796     2.7847    -1.9799 H       
  70 H70           -3.9660     1.4228    -0.0172 H       
  71 H71           -5.1022     1.1669     2.0877 H       
  72 H72           -7.5279     1.1052     2.9717 H       
  73 H73           -8.0942     4.1503     3.6776 H       
  74 H74           -5.6631     4.3368     5.4224 H       
  75 H75           -4.9286     6.5831     5.8888 H       
  76 H76           -5.8035     8.9934     5.6645 H       
  77 H77           -4.8008    10.2461     3.1423 H       
  78 H78           -2.0144     9.1521     3.3064 H       
  79 H79           -0.9202    10.0896    -1.1675 H       
  80 H80           -0.4792     7.4946    -0.8900 H       
  81 H81           -1.3215     6.2729    -4.0696 H       
  82 H82           -5.7142     3.6987    -3.4509 H       
  83 H83           -4.6697     4.9503    -2.7361 H       
  84 H84           -4.7081     4.3275    -5.7167 H       
  85 H85           -6.2260     6.4811    -4.1755 H       
  86 H86           -6.1456     6.3347    -5.9476 H       
  87 H87           -6.9568     5.0752    -4.9865 H       
  88 H88           -3.6932     6.6630    -4.0360 H       
  89 H89           -2.6989     5.4747    -4.9120 H       
  90 H90           -3.7088     6.6287    -5.8155 H       
  91 H91            0.6324     6.5241    -2.4958 H       
  92 H92           -0.2627     5.5554    -1.3005 H       
  93 H93            1.1626     4.2006    -2.6564 H       
  94 H94           -8.8302     3.1595     2.3662 H       
  95 H95           -7.0905     4.7254     1.8304 H       
  96 H96           -6.3826     3.6298     0.6194 H       
  97 H97           -7.6972     5.4289    -0.4686 H       
  98 H98           -8.4311     3.8342    -0.7629 H       
  99 H99           -9.1389     4.9299     0.4482 H       
 100 H100          -7.8952     1.1362     0.3499 H       
 101 H101          -9.5237     1.4077     1.0152 H       
 102 H102          -8.8798     2.4987    -0.2352 H       
 103 H103          -5.2420    -0.7374    -0.1709 H       
 104 H104          -6.0507    -0.1185    -1.6308 H       
 105 H105          -3.8487     0.1398    -2.7412 H       
 106 H106          -3.0400    -0.4791    -1.2814 H       
 107 H107          -4.2758    -2.6173    -1.5032 H       
 108 H108          -5.0846    -1.9984    -2.9630 H       
 109 H109          -2.8826    -1.7401    -4.0735 H       
 110 H110          -2.0738    -2.3590    -2.6136 H       
 111 H111          -2.4258    -4.0964    -4.2403 H       
 112 H112          -3.3605    -4.4009    -2.8989 H       
 113 H113          -7.5884     8.2490     4.0767 H       
 114 H114          -6.6181     9.5871     3.4161 H       
 115 H115          -7.7976     8.2583     1.3899 H       
 116 H116          -6.7684     7.1505     0.6577 H       
 117 H117          -1.1923    11.5172     3.0849 H       
 118 H118          -2.8750    12.0810     3.2230 H       
 119 H119          -3.0402    11.5843     8.0716 H       
 120 H120          -0.1127    10.3607     5.3159 H       
 121 H121          -3.8916    12.0047     5.6971 H       
 122 H122          -7.1694     5.2253     7.2278 H       
 123 H123          -8.5706     4.8683     6.1898 H       
 124 H124          -8.2156     1.8680     8.2689 H       
 125 H125          -3.3750    10.5571    -0.8607 H       
 126 H126          -3.0081     9.7422    -2.4000 H       
 127 H127          -5.7768     7.7647    -1.0912 H       
@<TRIPOS>BOND
   1    1    2 1
   2    1   24 1
   3    1   66 1
   4    2    3 1
   5    2   67 1
   6    3    4 1
   7    3   33 1
   8    3   68 1
   9    4    5 am
  10    4   32 2
  11    5    6 1
  12    5   69 1
  13    6    7 1
  14    6   43 1
  15    6   70 1
  16    7    8 am
  17    7   31 2
  18    8    9 1
  19    8   71 1
  20    9   10 1
  21    9   39 1
  22    9   72 1
  23   10   11 am
  24   10   30 2
  25   11   12 1
  26   11   73 1
  27   12   13 1
  28   12   59 1
  29   12   74 1
  30   13   14 am
  31   13   29 2
  32   14   15 1
  33   14   75 1
  34   15   16 1
  35   15   48 1
  36   15   76 1
  37   16   17 am
  38   16   28 2
  39   17   18 1
  40   17   77 1
  41   18   19 1
  42   18   52 1
  43   18   78 1
  44   19   20 1
  45   19   27 2
  46   20   21 1
  47   20   26 2
  48   21   22 1
  49   21   63 1
  50   21   79 1
  51   22   23 am
  52   22   80 1
  53   23   24 1
  54   23   25 2
  55   24   37 1
  56   24   81 1
  57   33   34 1
  58   33   82 1
  59   33   83 1
  60   34   35 1
  61   34   36 1
  62   34   84 1
  63   35   85 1
  64   35   86 1
  65   35   87 1
  66   36   88 1
  67   36   89 1
  68   36   90 1
  69   37   38 1
  70   37   91 1
  71   37   92 1
  72   38   93 1
  73   39   40 1
  74   39   42 1
  75   39   94 1
  76   40   41 1
  77   40   95 1
  78   40   96 1
  79   41   97 1
  80   41   98 1
  81   41   99 1
  82   42  100 1
  83   42  101 1
  84   42  102 1
  85   43   44 1
  86   43  103 1
  87   43  104 1
  88   44   45 1
  89   44  105 1
  90   44  106 1
  91   45   46 1
  92   45  107 1
  93   45  108 1
  94   46   47 1
  95   46  109 1
  96   46  110 1
  97   47  111 1
  98   47  112 1
  99   48   49 1
 100   48  113 1
 101   48  114 1
 102   49   50 2
 103   49   51 am
 104   51  115 1
 105   51  116 1
 106   52   56 1
 107   52  117 1
 108   52  118 1
 109   53   54 2
 110   53   57 1
 111   53  119 1
 112   54   55 1
 113   55   56 2
 114   55  120 1
 115   56   57 1
 116   57  121 1
 117   58   59 1
 118   58   60 2
 119   58   61 1
 120   59  122 1
 121   59  123 1
 122   61  124 1
 123   62   63 1
 124   62   64 2
 125   62   65 1
 126   63  125 1
 127   63  126 1
 128   65  127 1

#	End of record

