#	Name: ASD01410803
#	Creating user name:	WinNT
#	Creation time:	15. 06. 2019 19:18

#	Modifying user name:	WinNT
#	Modification time:	15. 06. 2019 19:18

#	Program:	/corina/corina34_cracker 3.40 0067  02.08.2006

@<TRIPOS>MOLECULE
ASD01410803
  50   52    0    0    0
SMALL
NO_CHARGES


@<TRIPOS>ATOM
   1 N1            -0.0077     1.4719    -1.1251 N.ar    
   2 C2            -0.0697     0.1878    -1.4305 C.ar    
   3 C3             1.0805    -0.5397    -1.7764 C.ar    
   4 C4             2.2949     0.0822    -1.8017 C.ar    
   5 C5             2.3518     1.4531    -1.4749 C.ar    
   6 C6             3.5696     2.1503    -1.4828 C.ar    
   7 C7             3.5957     3.4729    -1.1637 C.ar    
   8 C8             2.4208     4.1515    -0.8258 C.ar    
   9 C9             1.2101     3.4971    -0.8080 C.ar    
  10 C10            1.1542     2.1316    -1.1336 C.ar    
  11 C11           -0.0481     4.2409    -0.4408 C.3     
  12 S12           -1.6486    -2.1979    -1.7830 S.3     
  13 C13           -1.3783    -0.4981    -1.4070 C.2     
  14 N14           -2.5173     0.0570    -1.1044 N.2     
  15 C15           -3.5813    -0.7080    -1.1356 C.2     
  16 C16           -3.3717    -1.9857    -1.4787 C.2     
  17 C17           -4.9548    -0.1829    -0.8056 C.3     
  18 C18           -5.6711     0.2185    -2.0966 C.3     
  19 C19           -5.7595    -1.2718    -0.0932 C.3     
  20 O20            2.4749     5.4717    -0.5110 O.3     
  21 C21            3.7603     6.0950    -0.5469 C.3     
  22 C22            3.6225     7.5704    -0.1660 C.3     
  23 O23            2.7511     8.2221    -1.0923 O.3     
  24 C24            2.8124     9.6489    -1.0429 C.3     
  25 O25            3.0798     7.6735     1.1519 O.3     
  26 C26            3.3428     8.9234     1.7927 C.3     
  27 Cl27           3.7337    -0.7920    -2.2251 Cl      
  28 H28            1.0042    -1.5887    -2.0214 H       
  29 H29            4.4846     1.6380    -1.7413 H       
  30 H30            4.5355     4.0049    -1.1713 H       
  31 H31           -0.4967     4.6621    -1.3405 H       
  32 H32           -0.7522     3.5541     0.0289 H       
  33 H33            0.1946     5.0444     0.2546 H       
  34 H34           -4.1277    -2.7532    -1.5553 H       
  35 H35           -4.8645     0.6867    -0.1547 H       
  36 H36           -6.6645     0.5984    -1.8578 H       
  37 H37           -5.0978     0.9943    -2.6041 H       
  38 H38           -5.7614    -0.6511    -2.7475 H       
  39 H39           -5.2492    -1.5578     0.8265 H       
  40 H40           -6.7529    -0.8920     0.1456 H       
  41 H41           -5.8498    -2.1414    -0.7441 H       
  42 H42            4.4250     5.5979     0.1597 H       
  43 H43            4.1743     6.0164    -1.5521 H       
  44 H44            4.6030     8.0458    -0.1934 H       
  45 H45            2.4341    10.0614    -1.9782 H       
  46 H46            2.2039    10.0102    -0.2139 H       
  47 H47            3.8461     9.9634    -0.8989 H       
  48 H48            2.7813     9.7130     1.2933 H       
  49 H49            3.0389     8.8668     2.8379 H       
  50 H50            4.4088     9.1437     1.7356 H       
@<TRIPOS>BOND
   1    1    2 ar
   2    1   10 ar
   3    2    3 ar
   4    2   13 1
   5    3    4 ar
   6    3   28 1
   7    4    5 ar
   8    4   27 1
   9    5    6 ar
  10    5   10 ar
  11    6    7 ar
  12    6   29 1
  13    7    8 ar
  14    7   30 1
  15    8    9 ar
  16    8   20 1
  17    9   10 ar
  18    9   11 1
  19   11   31 1
  20   11   32 1
  21   11   33 1
  22   12   13 1
  23   12   16 1
  24   13   14 2
  25   14   15 1
  26   15   16 2
  27   15   17 1
  28   16   34 1
  29   17   18 1
  30   17   19 1
  31   17   35 1
  32   18   36 1
  33   18   37 1
  34   18   38 1
  35   19   39 1
  36   19   40 1
  37   19   41 1
  38   20   21 1
  39   21   22 1
  40   21   42 1
  41   21   43 1
  42   22   23 1
  43   22   25 1
  44   22   44 1
  45   23   24 1
  46   24   45 1
  47   24   46 1
  48   24   47 1
  49   25   26 1
  50   26   48 1
  51   26   49 1
  52   26   50 1

#	End of record

