#	Name: ASD09116093
#	Creating user name:	WinNT
#	Creation time:	15. 06. 2019 21:20

#	Modifying user name:	WinNT
#	Modification time:	15. 06. 2019 21:20

#	Program:	/corina/corina34_cracker 3.40 0067  02.08.2006

@<TRIPOS>MOLECULE
ASD09116093
  63   68    0    0    0
SMALL
NO_CHARGES


@<TRIPOS>ATOM
   1 C1             4.6585    -0.4261     0.9760 C.ar    
   2 N2             3.7987    -1.5062     0.7902 N.pl3   
   3 N3             2.5042    -1.4683     0.2470 N.2     
   4 C4             2.0500    -2.6984     0.2525 C.2     
   5 N5             2.9825    -3.5084     0.7673 N.2     
   6 C6             4.0477    -2.8082     1.0933 C.2     
   7 N7             5.2091    -3.3059     1.6520 N.pl3   
   8 N8             0.7949    -3.0987    -0.2053 N.pl3   
   9 C9             4.2659     0.8692     0.6085 C.ar    
  10 N10            5.8605    -0.6046     1.5087 N.ar    
  11 C11            6.6795     0.4160     1.6875 C.ar    
  12 N12            6.3608     1.6421     1.3561 N.ar    
  13 C13            5.1572     1.9277     0.8112 C.ar    
  14 C14            0.4660    -4.4566    -0.2453 C.ar    
  15 C15           -0.8529    -4.8665    -0.0935 C.ar    
  16 N16           -1.1715    -6.1467    -0.1229 N.ar    
  17 C17           -0.2582    -7.0767    -0.2943 C.ar    
  18 C18            1.0767    -6.7451    -0.4658 C.ar    
  19 C19            1.4565    -5.4184    -0.4438 C.ar    
  20 C20            4.6308     3.1600     0.3928 C.2     
  21 C21            3.4064     3.1228    -0.1083 C.2     
  22 S22            2.7808     1.4823    -0.1037 S.3     
  23 C23            5.4106     4.4445     0.5074 C.3     
  24 C24           -0.6072    -8.5422    -0.2979 C.3     
  25 C25           -0.7795    -9.0853    -1.6796 C.3     
  26 C26            0.4652    -9.4149    -2.4799 C.3     
  27 C27            1.1293    -8.1246    -2.9942 C.3     
  28 C28            2.4298    -7.9026    -2.1744 C.3     
  29 C29            2.0734    -7.8487    -0.6899 C.3     
  30 N30            1.4573    -8.2673    -4.4189 N.3     
  31 C31            0.2355    -8.4225    -5.2295 C.3     
  32 C32            2.2026    -7.0894    -4.9117 C.3     
  33 C33            1.7435    -6.9170    -6.3811 C.3     
  34 C34            0.2428    -7.2990    -6.2873 C.3     
  35 H35            5.2898    -4.2544     1.8385 H       
  36 H36            5.9437    -2.7069     1.8578 H       
  37 H37            0.1502    -2.4348    -0.4960 H       
  38 H38            7.6500     0.2322     2.1244 H       
  39 H39           -1.6274    -4.1277     0.0507 H       
  40 H40            2.4909    -5.1339    -0.5681 H       
  41 H41            2.8661     3.9842    -0.4721 H       
  42 H42            5.9878     4.6016    -0.4038 H       
  43 H43            4.7211     5.2767     0.6488 H       
  44 H44            6.0870     4.3841     1.3600 H       
  45 H45            0.1880    -9.0953     0.2019 H       
  46 H46           -1.5353    -8.6851     0.2556 H       
  47 H47           -1.3766    -9.9943    -1.6063 H       
  48 H48           -1.3584    -8.3597    -2.2511 H       
  49 H49            1.1688    -9.9548    -1.8462 H       
  50 H50            0.1927   -10.0430    -3.3280 H       
  51 H51            0.4548    -7.2802    -2.8525 H       
  52 H52            3.1203    -8.7265    -2.3546 H       
  53 H53            2.8938    -6.9626    -2.4730 H       
  54 H54            2.9725    -7.6524    -0.1058 H       
  55 H55            1.6387    -8.8004    -0.3844 H       
  56 H56            0.2380    -9.3952    -5.7215 H       
  57 H57           -0.6453    -8.3281    -4.5943 H       
  58 H58            1.9452    -6.2059    -4.3275 H       
  59 H59            3.2760    -7.2743    -4.8687 H       
  60 H60            1.8639    -5.8846    -6.7092 H       
  61 H61            2.2797    -7.5996    -7.0403 H       
  62 H62           -0.1211    -7.6696    -7.2456 H       
  63 H63           -0.3509    -6.4491    -5.9509 H       
@<TRIPOS>BOND
   1    1    2 1
   2    1    9 ar
   3    1   10 ar
   4    2    3 1
   5    2    6 1
   6    3    4 2
   7    4    5 1
   8    4    8 1
   9    5    6 2
  10    6    7 1
  11    7   35 1
  12    7   36 1
  13    8   14 1
  14    8   37 1
  15    9   13 ar
  16    9   22 1
  17   10   11 ar
  18   11   12 ar
  19   11   38 1
  20   12   13 ar
  21   13   20 1
  22   14   15 ar
  23   14   19 ar
  24   15   16 ar
  25   15   39 1
  26   16   17 ar
  27   17   18 ar
  28   17   24 1
  29   18   19 ar
  30   18   29 1
  31   19   40 1
  32   20   21 2
  33   20   23 1
  34   21   22 1
  35   21   41 1
  36   23   42 1
  37   23   43 1
  38   23   44 1
  39   24   25 1
  40   24   45 1
  41   24   46 1
  42   25   26 1
  43   25   47 1
  44   25   48 1
  45   26   27 1
  46   26   49 1
  47   26   50 1
  48   27   28 1
  49   27   30 1
  50   27   51 1
  51   28   29 1
  52   28   52 1
  53   28   53 1
  54   29   54 1
  55   29   55 1
  56   30   31 1
  57   30   32 1
  58   31   34 1
  59   31   56 1
  60   31   57 1
  61   32   33 1
  62   32   58 1
  63   32   59 1
  64   33   34 1
  65   33   60 1
  66   33   61 1
  67   34   62 1
  68   34   63 1

#	End of record

