#	Name: ASD05872012
#	Creating user name:	WinNT
#	Creation time:	15. 06. 2019 21:04

#	Modifying user name:	WinNT
#	Modification time:	15. 06. 2019 21:04

#	Program:	/corina/corina34_cracker 3.40 0067  02.08.2006

@<TRIPOS>MOLECULE
ASD05872012
  41   42    0    0    0
SMALL
NO_CHARGES


@<TRIPOS>ATOM
   1 C1            -0.0168     1.3909     0.0097 C.ar    
   2 C2             0.0021    -0.0041     0.0020 C.ar    
   3 C3            -1.1845    -0.7121     0.0095 C.ar    
   4 C4            -2.3952    -0.0265     0.0248 C.ar    
   5 C5            -2.4171     1.3754     0.0325 C.ar    
   6 C6            -1.2170     2.0760     0.0306 C.ar    
   7 C7            -3.8128    -0.4423     0.0361 C.2     
   8 C8            -4.5353     0.7114     0.0492 C.2     
   9 O9            -3.7097     1.7643     0.0470 O.3     
  10 C10           -6.0402     0.7908     0.0632 C.3     
  11 C11           -6.4273    -3.7966    -0.3025 C.3     
  12 C12           -4.0917    -4.6837    -0.3301 C.3     
  13 C13           -5.3206    -4.3336    -2.4772 C.3     
  14 C14           -4.3345    -1.8156     0.0333 C.2     
  15 O15           -4.5402    -2.3899     1.0849 O.2     
  16 O16           -4.5851    -2.4391    -1.1355 O.3     
  17 C17           -5.0993    -3.7950    -1.0623 C.3     
  18 O18            1.1896    -0.6677    -0.0133 O.3     
  19 S19            1.7437    -0.9771     1.3700 S.o2    
  20 O20            3.1397    -1.3444     1.1901 O.co2   
  21 O21            1.5955     0.2341     2.1618 O.co2   
  22 O22            0.9541    -2.0770     1.9018 O.co2   
  23 O23            1.1546     2.0818     0.0022 O.3     
  24 C24            1.0667     3.5081     0.0107 C.3     
  25 H25           -1.1722    -1.7920     0.0033 H       
  26 H26           -1.2222     3.1560     0.0368 H       
  27 H27           -6.3937     0.8041     1.0942 H       
  28 H28           -6.3606     1.7016    -0.4426 H       
  29 H29           -6.4546    -0.0758    -0.4519 H       
  30 H30           -6.2696    -3.4129     0.7055 H       
  31 H31           -7.1450    -3.1635    -0.8241 H       
  32 H32           -6.8132    -4.8145    -0.2476 H       
  33 H33           -4.4777    -5.7016    -0.2752 H       
  34 H34           -3.1456    -4.6826    -0.8714 H       
  35 H35           -3.9341    -4.3000     0.6778 H       
  36 H36           -6.0383    -3.7006    -2.9988 H       
  37 H37           -4.3745    -4.3325    -3.0185 H       
  38 H38           -5.7065    -5.3515    -2.4222 H       
  39 H39            0.5230     3.8439    -0.8723 H       
  40 H40            0.5400     3.8343     0.9075 H       
  41 H41            2.0700     3.9340     0.0034 H       
@<TRIPOS>BOND
   1    1    2 ar
   2    1   23 1
   3    1    6 ar
   4    2    3 ar
   5    2   18 1
   6    3    4 ar
   7    3   25 1
   8    4    5 ar
   9    4    7 1
  10    5    6 ar
  11    5    9 1
  12    6   26 1
  13    7    8 2
  14    7   14 1
  15    8    9 1
  16    8   10 1
  17   10   27 1
  18   10   28 1
  19   10   29 1
  20   11   17 1
  21   11   30 1
  22   11   31 1
  23   11   32 1
  24   12   17 1
  25   12   33 1
  26   12   34 1
  27   12   35 1
  28   13   17 1
  29   13   36 1
  30   13   37 1
  31   13   38 1
  32   14   15 2
  33   14   16 1
  34   16   17 1
  35   18   19 1
  36   19   20 ar
  37   19   21 ar
  38   19   22 ar
  39   23   24 1
  40   24   39 1
  41   24   40 1
  42   24   41 1

#	End of record

