#	Name: ASD01811207
#	Creating user name:	WinNT
#	Creation time:	15. 06. 2019 19:26

#	Modifying user name:	WinNT
#	Modification time:	15. 06. 2019 19:26

#	Program:	/corina/corina34_cracker 3.40 0067  02.08.2006

@<TRIPOS>MOLECULE
ASD01811207
  59   62    0    0    0
SMALL
NO_CHARGES


@<TRIPOS>ATOM
   1 C1             0.0279     1.4359    -0.6059 C.2     
   2 C2             0.0164    -0.0079    -0.2871 C.ar    
   3 C3             1.2195    -0.6943    -0.1052 C.ar    
   4 C4             1.2105    -2.0424     0.1921 C.ar    
   5 C5             0.0139    -2.7214     0.3121 C.ar    
   6 C6            -1.1960    -2.0473     0.1328 C.ar    
   7 C7            -1.1942    -0.6854    -0.1617 C.ar    
   8 O8             0.8969     2.1523    -0.1487 O.2     
   9 N9            -0.9219     1.9565    -1.4080 N.am    
  10 N10           -0.9113     3.2903    -1.7026 N.3     
  11 C11            0.0138    -4.1930     0.6369 C.3     
  12 C12            2.5301     0.0384    -0.2343 C.3     
  13 C13            3.3215     0.1217     1.0816 C.3     
  14 C14            4.5863    -0.1359     0.2458 C.3     
  15 C15            3.6738    -0.8357    -0.7753 C.3     
  16 C16           -2.4762    -2.7759     0.2612 C.2     
  17 O17           -2.6747    -3.4908     1.2239 O.2     
  18 N18           -3.4231    -2.6473    -0.6893 N.am    
  19 C19           -4.7467    -3.2609    -0.5153 C.3     
  20 C20           -5.0504    -4.1330    -1.7376 C.3     
  21 C21           -4.9100    -3.2910    -3.0077 C.3     
  22 C22           -3.4730    -2.7779    -3.1255 C.3     
  23 C23           -3.1533    -1.8856    -1.9165 C.3     
  24 C24           -5.2412    -4.1369    -4.2101 C.ar    
  25 C25           -6.2850    -3.7726    -5.0420 C.ar    
  26 C26           -6.5936    -4.5424    -6.1443 C.ar    
  27 C27           -5.8495    -5.6913    -6.4199 C.ar    
  28 C28           -4.7971    -6.0528    -5.5764 C.ar    
  29 C29           -4.4964    -5.2713    -4.4802 C.ar    
  30 C30           -6.1645    -6.4954    -7.5622 C.1     
  31 N31           -6.4144    -7.1334    -8.4684 N.1     
  32 H32            2.1434    -2.5685     0.3310 H       
  33 H33           -2.1272    -0.1585    -0.2970 H       
  34 H34           -1.6130     1.3840    -1.7761 H       
  35 H35           -0.0288     3.5640    -2.1081 H       
  36 H36           -1.6792     3.5324    -2.3106 H       
  37 H37            0.0593    -4.3266     1.7177 H       
  38 H38           -0.8981    -4.6498     0.2523 H       
  39 H39            0.8801    -4.6670     0.1754 H       
  40 H40            2.4311     0.9959    -0.7456 H       
  41 H41            3.2972     1.1084     1.5441 H       
  42 H42            3.0900    -0.6809     1.7819 H       
  43 H43            5.0507     0.7737    -0.1351 H       
  44 H44            5.2984    -0.8065     0.7266 H       
  45 H45            3.5386    -1.9000    -0.5827 H       
  46 H46            3.9340    -0.6218    -1.8120 H       
  47 H47           -4.7482    -3.8778     0.3833 H       
  48 H48           -5.5024    -2.4804    -0.4265 H       
  49 H49           -4.3481    -4.9659    -1.7737 H       
  50 H50           -6.0679    -4.5174    -1.6665 H       
  51 H51           -5.5950    -2.4445    -2.9597 H       
  52 H52           -2.7855    -3.6235    -3.1486 H       
  53 H53           -3.3678    -2.1978    -4.0422 H       
  54 H54           -3.7817    -0.9953    -1.9396 H       
  55 H55           -2.1031    -1.5949    -1.9427 H       
  56 H56           -6.8598    -2.8837    -4.8276 H       
  57 H57           -7.4091    -4.2573    -6.7925 H       
  58 H58           -4.2176    -6.9403    -5.7838 H       
  59 H59           -3.6801    -5.5474    -3.8292 H       
@<TRIPOS>BOND
   1    1    2 1
   2    1    8 2
   3    1    9 am
   4    2    3 ar
   5    2    7 ar
   6    3    4 ar
   7    3   12 1
   8    4    5 ar
   9    4   32 1
  10    5    6 ar
  11    5   11 1
  12    6    7 ar
  13    6   16 1
  14    7   33 1
  15    9   10 1
  16    9   34 1
  17   10   35 1
  18   10   36 1
  19   11   37 1
  20   11   38 1
  21   11   39 1
  22   12   13 1
  23   12   15 1
  24   12   40 1
  25   13   14 1
  26   13   41 1
  27   13   42 1
  28   14   15 1
  29   14   43 1
  30   14   44 1
  31   15   45 1
  32   15   46 1
  33   16   17 2
  34   16   18 am
  35   18   19 1
  36   18   23 1
  37   19   20 1
  38   19   47 1
  39   19   48 1
  40   20   21 1
  41   20   49 1
  42   20   50 1
  43   21   22 1
  44   21   24 1
  45   21   51 1
  46   22   23 1
  47   22   52 1
  48   22   53 1
  49   23   54 1
  50   23   55 1
  51   24   25 ar
  52   24   29 ar
  53   25   26 ar
  54   25   56 1
  55   26   27 ar
  56   26   57 1
  57   27   28 ar
  58   27   30 1
  59   28   29 ar
  60   28   58 1
  61   29   59 1
  62   30   31 3

#	End of record

