#	Name: ASD04230062
#	Creating user name:	WinNT
#	Creation time:	15. 06. 2019 20:48

#	Modifying user name:	WinNT
#	Modification time:	15. 06. 2019 20:48

#	Program:	/corina/corina34_cracker 3.40 0067  02.08.2006

@<TRIPOS>MOLECULE
ASD04230062
  50   53    0    0    0
SMALL
NO_CHARGES


@<TRIPOS>ATOM
   1 C1             1.5359     4.6862     1.7199 C.ar    
   2 C2             2.5438     5.3840     2.3697 C.ar    
   3 C3             3.8003     4.8590     2.4683 C.ar    
   4 C4             4.0824     3.6081     1.9005 C.ar    
   5 C5             3.0563     2.8818     1.2694 C.ar    
   6 C6             1.7831     3.4396     1.1728 C.ar    
   7 C7             5.3933     3.0678     1.9622 C.2     
   8 C8             5.6627     1.9284     1.2158 C.2     
   9 C9             4.5671     1.3877     0.3906 C.2     
  10 O10            3.2978     1.6422     0.7795 O.3     
  11 C11            6.9878     1.2871     1.2467 C.2     
  12 N12            7.2188     0.1818     0.5109 N.am    
  13 O13            7.8739     1.7548     1.9362 O.2     
  14 C14            8.5059    -0.3623     0.4514 C.ar    
  15 C15            8.6753    -1.7390     0.3692 C.ar    
  16 C16            9.9457    -2.2803     0.3107 C.ar    
  17 C17           11.0532    -1.4566     0.3337 C.ar    
  18 C18           10.8927    -0.0742     0.4156 C.ar    
  19 C19            9.6134     0.4724     0.4687 C.ar    
  20 C20           12.0821     0.8125     0.4403 C.ar    
  21 O21            4.7981     0.7334    -0.6090 O.2     
  22 O22            0.7868     2.7609     0.5437 O.3     
  23 C23           11.9207     2.1939     0.5222 C.ar    
  24 C24           13.0276     3.0184     0.5451 C.ar    
  25 C25           14.3015     2.4747     0.4868 C.ar    
  26 C26           14.4686     1.0943     0.4044 C.ar    
  27 C27           13.3626     0.2643     0.3875 C.ar    
  28 O28           15.3892     3.2901     0.5096 O.3     
  29 C29           15.1449     4.6955     0.5946 C.3     
  30 O30           15.7190     0.5628     0.3465 O.3     
  31 C31           15.8157    -0.8605     0.2632 C.3     
  32 H32            0.5487     5.1178     1.6445 H       
  33 H33            2.3326     6.3514     2.8010 H       
  34 H34            4.5762     5.4065     2.9827 H       
  35 H35            6.1575     3.5287     2.5705 H       
  36 H36            6.4924    -0.2364     0.0226 H       
  37 H37            7.8121    -2.3878     0.3513 H       
  38 H38           10.0723    -3.3510     0.2473 H       
  39 H39           12.0443    -1.8833     0.2886 H       
  40 H40            9.4840     1.5428     0.5319 H       
  41 H41            0.2742     2.1848     1.1271 H       
  42 H42           10.9293     2.6198     0.5673 H       
  43 H43           12.9009     4.0891     0.6082 H       
  44 H44           13.4906    -0.8063     0.3240 H       
  45 H45           14.5575     5.0149    -0.2662 H       
  46 H46           14.5958     4.9141     1.5105 H       
  47 H47           16.0951     5.2295     0.6044 H       
  48 H48           16.8654    -1.1517     0.2234 H       
  49 H49           15.3475    -1.3084     1.1397 H       
  50 H50           15.3081    -1.2071    -0.6370 H       
@<TRIPOS>BOND
   1    1    2 ar
   2    1    6 ar
   3    1   32 1
   4    2    3 ar
   5    2   33 1
   6    3    4 ar
   7    3   34 1
   8    4    5 ar
   9    4    7 1
  10    5    6 ar
  11    5   10 1
  12    6   22 1
  13    7    8 2
  14    7   35 1
  15    8    9 1
  16    8   11 1
  17    9   10 1
  18    9   21 2
  19   11   12 am
  20   11   13 2
  21   12   14 1
  22   12   36 1
  23   14   15 ar
  24   14   19 ar
  25   15   16 ar
  26   15   37 1
  27   16   17 ar
  28   16   38 1
  29   17   18 ar
  30   17   39 1
  31   18   19 ar
  32   18   20 1
  33   19   40 1
  34   20   23 ar
  35   20   27 ar
  36   22   41 1
  37   23   24 ar
  38   23   42 1
  39   24   25 ar
  40   24   43 1
  41   25   26 ar
  42   25   28 1
  43   26   27 ar
  44   26   30 1
  45   27   44 1
  46   28   29 1
  47   29   45 1
  48   29   46 1
  49   29   47 1
  50   30   31 1
  51   31   48 1
  52   31   49 1
  53   31   50 1

#	End of record

