#	Name: ASD01883714
#	Creating user name:	WinNT
#	Creation time:	15. 06. 2019 19:46

#	Modifying user name:	WinNT
#	Modification time:	15. 06. 2019 19:46

#	Program:	/corina/corina34_cracker 3.40 0067  02.08.2006

@<TRIPOS>MOLECULE
ASD01883714
  52   54    0    0    0
SMALL
NO_CHARGES


@<TRIPOS>ATOM
   1 N1             0.3850     1.8821    -0.4561 N.ar    
   2 C2             0.2416     0.5709    -0.4936 C.ar    
   3 C3             1.3366    -0.2638    -0.4090 C.ar    
   4 C4             2.6100     0.2988    -0.2820 C.ar    
   5 C5             2.7158     1.6918    -0.2463 C.ar    
   6 C6             1.5684     2.4528    -0.3371 C.ar    
   7 C7             3.8163    -0.5598    -0.1871 C.2     
   8 C8             3.8439    -1.9617    -0.3100 C.2     
   9 C9             5.1335    -2.3661    -0.1629 C.2     
  10 N10            5.8928    -1.2582     0.0454 N.pl3   
  11 N11            5.0471    -0.1420     0.0209 N.2     
  12 C12            1.6685     3.9561    -0.3000 C.3     
  13 C13            7.3426    -1.2352     0.2547 C.3     
  14 C14            8.0532    -1.2145    -1.1002 C.3     
  15 O15            7.7497     0.0061    -1.7786 O.3     
  16 N16            5.5938    -3.6794    -0.2158 N.pl3   
  17 C17            5.8913    -4.2662    -1.4482 C.ar    
  18 C18            6.4486    -5.5379    -1.4970 C.ar    
  19 C19            6.7416    -6.1166    -2.7166 C.ar    
  20 C20            6.4815    -5.4321    -3.8890 C.ar    
  21 C21            5.9258    -4.1637    -3.8452 C.ar    
  22 C22            5.6251    -3.5817    -2.6272 C.ar    
  23 C23            9.5645    -1.3162    -0.8850 C.3     
  24 C24            5.7659    -4.4456     1.0210 C.3     
  25 C25            6.8036    -6.0665    -5.2175 C.3     
  26 F26            7.3519    -7.3363    -5.0072 F       
  27 F27            5.6328    -6.1836    -5.9744 F       
  28 F28            7.7250    -5.2686    -5.9042 F       
  29 F29            5.6733    -3.4971    -4.9928 F       
  30 C30            4.5171    -5.2924     1.2743 C.3     
  31 H31           -0.7462     0.1456    -0.5916 H       
  32 H32            1.2119    -1.3361    -0.4400 H       
  33 H33            3.6814     2.1657    -0.1488 H       
  34 H34            2.9926    -2.6018    -0.4885 H       
  35 H35            1.5989     4.2994     0.7322 H       
  36 H36            2.6237     4.2672    -0.7228 H       
  37 H37            0.8551     4.3888    -0.8824 H       
  38 H38            7.6139    -0.3441     0.8209 H       
  39 H39            7.6438    -2.1238     0.8094 H       
  40 H40            7.7141    -2.0582    -1.7012 H       
  41 H41            8.0240     0.8005    -1.3004 H       
  42 H42            6.6530    -6.0737    -0.5818 H       
  43 H43            7.1748    -7.1051    -2.7541 H       
  44 H44            5.1919    -2.5930    -2.5926 H       
  45 H45            9.7960    -2.2472    -0.3675 H       
  46 H46           10.0708    -1.3015    -1.8502 H       
  47 H47            9.9036    -0.4725    -0.2840 H       
  48 H48            6.6342    -5.0977     0.9265 H       
  49 H49            5.9155    -3.7601     1.8552 H       
  50 H50            4.6452    -5.8625     2.1945 H       
  51 H51            3.6489    -4.6403     1.3688 H       
  52 H52            4.3676    -5.9779     0.4401 H       
@<TRIPOS>BOND
   1    1    2 ar
   2    1    6 ar
   3    2    3 ar
   4    2   31 1
   5    3    4 ar
   6    3   32 1
   7    4    5 ar
   8    4    7 1
   9    5    6 ar
  10    5   33 1
  11    6   12 1
  12    7    8 1
  13    7   11 2
  14    8    9 2
  15    8   34 1
  16    9   10 1
  17    9   16 1
  18   10   11 1
  19   10   13 1
  20   12   35 1
  21   12   36 1
  22   12   37 1
  23   13   14 1
  24   13   38 1
  25   13   39 1
  26   14   15 1
  27   14   23 1
  28   14   40 1
  29   15   41 1
  30   16   17 1
  31   16   24 1
  32   17   18 ar
  33   17   22 ar
  34   18   19 ar
  35   18   42 1
  36   19   20 ar
  37   19   43 1
  38   20   21 ar
  39   20   25 1
  40   21   22 ar
  41   21   29 1
  42   22   44 1
  43   23   45 1
  44   23   46 1
  45   23   47 1
  46   24   30 1
  47   24   48 1
  48   24   49 1
  49   25   26 1
  50   25   27 1
  51   25   28 1
  52   30   50 1
  53   30   51 1
  54   30   52 1

#	End of record

