#	Name: ASD04230081
#	Creating user name:	WinNT
#	Creation time:	15. 06. 2019 20:48

#	Modifying user name:	WinNT
#	Modification time:	15. 06. 2019 20:48

#	Program:	/corina/corina34_cracker 3.40 0067  02.08.2006

@<TRIPOS>MOLECULE
ASD04230081
  49   52    0    0    0
SMALL
NO_CHARGES


@<TRIPOS>ATOM
   1 C1             1.5358     4.6863     1.7197 C.ar    
   2 C2             2.5436     5.3841     2.3696 C.ar    
   3 C3             3.8002     4.8590     2.4684 C.ar    
   4 C4             4.0822     3.6081     1.9007 C.ar    
   5 C5             3.0562     2.8818     1.2694 C.ar    
   6 C6             1.7830     3.4397     1.1727 C.ar    
   7 C7             5.3931     3.0678     1.9625 C.2     
   8 C8             5.6626     1.9284     1.2160 C.2     
   9 C9             4.5671     1.3877     0.3908 C.2     
  10 O10            3.2977     1.6422     0.7797 O.3     
  11 C11            6.9877     1.2871     1.2470 C.2     
  12 N12            7.2188     0.1818     0.5112 N.am    
  13 O13            7.8738     1.7548     1.9366 O.2     
  14 C14            8.5058    -0.3623     0.4518 C.ar    
  15 C15            8.6753    -1.7390     0.3696 C.ar    
  16 C16            9.9456    -2.2804     0.3103 C.ar    
  17 C17           11.0532    -1.4567     0.3323 C.ar    
  18 C18           10.8927    -0.0742     0.4151 C.ar    
  19 C19            9.6134     0.4724     0.4692 C.ar    
  20 C20           12.0818     0.8123     0.4398 C.ar    
  21 O21            4.7981     0.7328    -0.6084 O.2     
  22 C22           12.1599     1.9021    -0.4236 C.ar    
  23 C23           13.2686     2.7241    -0.3969 C.ar    
  24 C24           14.3038     2.4692     0.4848 C.ar    
  25 C25           14.2368     1.3899     1.3458 C.ar    
  26 C26           13.1269     0.5607     1.3342 C.ar    
  27 O27           13.0598    -0.5003     2.1799 O.3     
  28 C28           14.1705    -0.7028     3.0559 C.3     
  29 F29           14.3300     0.4207     3.8742 F       
  30 F30           13.9375    -1.8298     3.8514 F       
  31 F31           15.3314    -0.8976     2.2998 F       
  32 O32            0.7868     2.7610     0.5435 O.3     
  33 C33           -0.4923     3.3951     0.4828 C.3     
  34 H34            0.5487     5.1179     1.6442 H       
  35 H35            2.3325     6.3515     2.8009 H       
  36 H36            4.5760     5.4066     2.9828 H       
  37 H37            6.1573     3.5287     2.5708 H       
  38 H38            6.4924    -0.2364     0.0228 H       
  39 H39            7.8121    -2.3878     0.3524 H       
  40 H40           10.0722    -3.3510     0.2468 H       
  41 H41           12.0442    -1.8833     0.2858 H       
  42 H42            9.4840     1.5427     0.5334 H       
  43 H43           11.3539     2.1038    -1.1137 H       
  44 H44           13.3282     3.5691    -1.0669 H       
  45 H45           15.1684     3.1162     0.5001 H       
  46 H46           15.0481     1.1957     2.0316 H       
  47 H47           -0.8557     3.5777     1.4941 H       
  48 H48           -0.4032     4.3429    -0.0479 H       
  49 H49           -1.1939     2.7483    -0.0440 H       
@<TRIPOS>BOND
   1    1    2 ar
   2    1    6 ar
   3    1   34 1
   4    2    3 ar
   5    2   35 1
   6    3    4 ar
   7    3   36 1
   8    4    5 ar
   9    4    7 1
  10    5    6 ar
  11    5   10 1
  12    6   32 1
  13    7    8 2
  14    7   37 1
  15    8    9 1
  16    8   11 1
  17    9   10 1
  18    9   21 2
  19   11   12 am
  20   11   13 2
  21   12   14 1
  22   12   38 1
  23   14   15 ar
  24   14   19 ar
  25   15   16 ar
  26   15   39 1
  27   16   17 ar
  28   16   40 1
  29   17   18 ar
  30   17   41 1
  31   18   19 ar
  32   18   20 1
  33   19   42 1
  34   20   22 ar
  35   20   26 ar
  36   22   23 ar
  37   22   43 1
  38   23   24 ar
  39   23   44 1
  40   24   25 ar
  41   24   45 1
  42   25   26 ar
  43   25   46 1
  44   26   27 1
  45   27   28 1
  46   28   29 1
  47   28   30 1
  48   28   31 1
  49   32   33 1
  50   33   47 1
  51   33   48 1
  52   33   49 1

#	End of record

