#	Name: ASD01915784
#	Creating user name:	WinNT
#	Creation time:	15. 06. 2019 20:06

#	Modifying user name:	WinNT
#	Modification time:	15. 06. 2019 20:06

#	Program:	/corina/corina34_cracker 3.40 0067  02.08.2006

@<TRIPOS>MOLECULE
ASD01915784
  42   45    0    0    0
SMALL
NO_CHARGES


@<TRIPOS>ATOM
   1 C1            -0.0043     1.4633     0.2185 C.2     
   2 N2             0.0617     0.1103    -0.0288 N.pl3   
   3 C3            -1.1507    -0.6738    -0.2933 C.3     
   4 C4            -2.3298    -0.0464     0.4484 C.3     
   5 N5            -2.4043     1.3988     0.2637 N.am    
   6 C6            -1.2917     2.1722     0.2687 C.2     
   7 C7             1.2784     1.9004     0.3955 C.2     
   8 C8             2.0746     0.7560     0.2534 C.2     
   9 N9             1.2815    -0.2611     0.0092 N.2     
  10 C10            3.5768     0.7026     0.3611 C.3     
  11 O11            4.0816     2.0113     0.6340 O.3     
  12 C12            5.4286     2.1387     0.7618 C.ar    
  13 O13           -1.3544     3.3861     0.3127 O.2     
  14 C14            5.9869     3.3807     1.0270 C.ar    
  15 C15            6.2471     1.0261     0.6330 C.ar    
  16 C16            7.6160     1.1582     0.7633 C.ar    
  17 C17            8.1705     2.3982     1.0220 C.ar    
  18 C18            7.3564     3.5077     1.1565 C.ar    
  19 C19           -3.6481     1.9976     0.0778 C.ar    
  20 N20           -3.7152     3.2593    -0.3192 N.ar    
  21 C21           -4.8053     1.2633     0.3054 C.ar    
  22 C22           -6.0383     1.8670     0.1180 C.ar    
  23 C23           -6.0731     3.1896    -0.2922 C.ar    
  24 C24           -4.8778     3.8655    -0.5076 C.ar    
  25 N25           -4.9027     5.1929    -0.9193 N.pl3   
  26 H26           -1.3550    -0.6778    -1.3640 H       
  27 H27           -1.0054    -1.6968     0.0537 H       
  28 H28           -3.2539    -0.4960     0.0851 H       
  29 H29           -2.2308    -0.2608     1.5125 H       
  30 H30            1.6070     2.9087     0.5999 H       
  31 H31            3.8593     0.0283     1.1695 H       
  32 H32            3.9957     0.3400    -0.5776 H       
  33 H33            5.3515     4.2477     1.1318 H       
  34 H34            5.8145     0.0573     0.4313 H       
  35 H35            8.2536     0.2923     0.6635 H       
  36 H36            9.2409     2.4994     1.1235 H       
  37 H37            7.7919     4.4751     1.3581 H       
  38 H38           -4.7445     0.2333     0.6245 H       
  39 H39           -6.9527     1.3179     0.2879 H       
  40 H40           -7.0183     3.6885    -0.4474 H       
  41 H41           -5.7513     5.6428    -1.0549 H       
  42 H42           -4.0715     5.6693    -1.0711 H       
@<TRIPOS>BOND
   1    1    2 1
   2    1    7 2
   3    1    6 1
   4    2    3 1
   5    2    9 1
   6    3    4 1
   7    3   26 1
   8    3   27 1
   9    4    5 1
  10    4   28 1
  11    4   29 1
  12    5    6 am
  13    5   19 1
  14    6   13 2
  15    7    8 1
  16    7   30 1
  17    8    9 2
  18    8   10 1
  19   10   11 1
  20   10   31 1
  21   10   32 1
  22   11   12 1
  23   12   14 ar
  24   12   15 ar
  25   14   18 ar
  26   14   33 1
  27   15   16 ar
  28   15   34 1
  29   16   17 ar
  30   16   35 1
  31   17   18 ar
  32   17   36 1
  33   18   37 1
  34   19   21 ar
  35   19   20 ar
  36   20   24 ar
  37   21   22 ar
  38   21   38 1
  39   22   23 ar
  40   22   39 1
  41   23   24 ar
  42   23   40 1
  43   24   25 1
  44   25   41 1
  45   25   42 1

#	End of record

