#	Name: ASD05130081
#	Creating user name:	WinNT
#	Creation time:	15. 06. 2019 20:56

#	Modifying user name:	WinNT
#	Modification time:	15. 06. 2019 20:56

#	Program:	/corina/corina34_cracker 3.40 0067  02.08.2006

@<TRIPOS>MOLECULE
ASD05130081
  54   57    0    0    0
SMALL
NO_CHARGES


@<TRIPOS>ATOM
   1 N1            -0.1607     1.5500     0.1055 N.am    
   2 C2             0.0480     0.4209     0.8112 C.2     
   3 O3             1.1138     0.2399     1.3676 O.2     
   4 N4            -0.9248    -0.5077     0.9000 N.am    
   5 C5            -0.6733    -1.7252     1.5422 C.ar    
   6 C6            -1.6866    -2.3627     2.2457 C.ar    
   7 C7            -1.4345    -3.5661     2.8793 C.ar    
   8 C8            -0.1726    -4.1337     2.8122 C.ar    
   9 C9             0.8367    -3.4998     2.1121 C.ar    
  10 C10            0.5885    -2.3008     1.4723 C.ar    
  11 F11           -2.4191    -4.1878     3.5643 F       
  12 C12            0.8157     2.5543     0.0861 C.ar    
  13 C13            0.4430     3.8843    -0.0850 C.ar    
  14 C14            1.4049     4.8787    -0.1046 C.ar    
  15 C15            2.7391     4.5568     0.0459 C.ar    
  16 C16            3.1208     3.2268     0.2182 C.ar    
  17 C17            2.1519     2.2246     0.2429 C.ar    
  18 C18            3.7832     5.6433     0.0233 C.3     
  19 F19           -0.8610     4.2051    -0.2328 F       
  20 N20            6.3805     2.2010     1.8444 N.am    
  21 C21            5.0790     2.5174     1.6970 C.2     
  22 C22            4.5523     2.8799     0.3794 C.2     
  23 C23            5.3906     2.8958    -0.7018 C.2     
  24 C24            6.7533     2.5600    -0.5215 C.ar    
  25 C25            7.6467     2.5636    -1.5998 C.ar    
  26 N26            8.9102     2.2491    -1.4150 N.ar    
  27 C27            9.3905     1.9198    -0.2205 C.ar    
  28 C28            8.5745     1.8910     0.9014 C.ar    
  29 C29            7.2300     2.2150     0.7622 C.ar    
  30 O30            4.3375     2.5011     2.6634 O.2     
  31 C31            6.8965     1.8455     3.1686 C.3     
  32 C32            6.7676     0.3353     3.3777 C.3     
  33 N33           10.7339     1.5982    -0.0928 N.pl3   
  34 H34           -0.9852     1.6655    -0.3922 H       
  35 H35           -1.7993    -0.3320     0.5188 H       
  36 H36           -2.6700    -1.9195     2.2983 H       
  37 H37            0.0231    -5.0730     3.3080 H       
  38 H38            1.8195    -3.9446     2.0615 H       
  39 H39            1.3768    -1.8089     0.9220 H       
  40 H40            1.1114     5.9094    -0.2384 H       
  41 H41            2.4428     1.1936     0.3803 H       
  42 H42            3.9458     6.0120     1.0361 H       
  43 H43            4.7166     5.2420    -0.3715 H       
  44 H44            3.4424     6.4616    -0.6109 H       
  45 H45            5.0171     3.1606    -1.6800 H       
  46 H46            7.2966     2.8254    -2.5874 H       
  47 H47            8.9772     1.6213     1.8666 H       
  48 H48            7.9453     2.1338     3.2394 H       
  49 H49            6.3234     2.3685     3.9343 H       
  50 H50            7.3406    -0.1877     2.6120 H       
  51 H51            7.1514     0.0708     4.3629 H       
  52 H52            5.7188     0.0469     3.3069 H       
  53 H53           11.3128     1.6150    -0.8710 H       
  54 H54           11.0944     1.3565     0.7747 H       
@<TRIPOS>BOND
   1    1    2 am
   2    1   12 1
   3    1   34 1
   4    2    3 2
   5    2    4 am
   6    4    5 1
   7    4   35 1
   8    5    6 ar
   9    5   10 ar
  10    6    7 ar
  11    6   36 1
  12    7    8 ar
  13    7   11 1
  14    8    9 ar
  15    8   37 1
  16    9   10 ar
  17    9   38 1
  18   10   39 1
  19   12   13 ar
  20   12   17 ar
  21   13   14 ar
  22   13   19 1
  23   14   15 ar
  24   14   40 1
  25   15   16 ar
  26   15   18 1
  27   16   17 ar
  28   16   22 1
  29   17   41 1
  30   18   42 1
  31   18   43 1
  32   18   44 1
  33   20   21 am
  34   20   29 1
  35   20   31 1
  36   21   22 1
  37   21   30 2
  38   22   23 2
  39   23   24 1
  40   23   45 1
  41   24   25 ar
  42   24   29 ar
  43   25   26 ar
  44   25   46 1
  45   26   27 ar
  46   27   28 ar
  47   27   33 1
  48   28   29 ar
  49   28   47 1
  50   31   32 1
  51   31   48 1
  52   31   49 1
  53   32   50 1
  54   32   51 1
  55   32   52 1
  56   33   53 1
  57   33   54 1

#	End of record

