#	Name: ASD00450022
#	Creating user name:	WinNT
#	Creation time:	15. 06. 2019 18:36

#	Modifying user name:	WinNT
#	Modification time:	15. 06. 2019 18:36

#	Program:	/corina/corina34_cracker 3.40 0067  02.08.2006

@<TRIPOS>MOLECULE
ASD00450022
  56   59    0    0    0
SMALL
NO_CHARGES


@<TRIPOS>ATOM
   1 C1             0.0547     1.2806    -0.0922 C.2     
   2 C2            -0.1791    -0.1512    -0.3607 C.ar    
   3 O3             1.1760     1.7418    -0.1865 O.2     
   4 C4            -0.0890    -1.0838     0.6765 C.ar    
   5 C5            -0.3112    -2.4292     0.4143 C.ar    
   6 C6            -0.6214    -2.8446    -0.8737 C.ar    
   7 C7            -0.7106    -1.9238    -1.9015 C.ar    
   8 C8            -0.4977    -0.5811    -1.6539 C.ar    
   9 N9            -0.2217    -3.3684     1.4501 N.am    
  10 N10           -0.9754     2.0786     0.2521 N.am    
  11 C11            0.1427    -4.6374     1.1795 C.2     
  12 C12            0.3283    -5.6041     2.2823 C.ar    
  13 O13            0.3187    -4.9870     0.0286 O.2     
  14 C14            0.1270    -5.2060     3.6047 C.ar    
  15 C15            0.3021    -6.1133     4.6293 C.ar    
  16 C16            0.6766    -7.4150     4.3482 C.ar    
  17 C17            0.8783    -7.8162     3.0392 C.ar    
  18 C18            0.7002    -6.9209     2.0051 C.ar    
  19 C19            1.2867    -9.2361     2.7424 C.3     
  20 C20            1.4074   -10.0165     4.0529 C.3     
  21 C21            0.2312    -9.8948     1.8519 C.3     
  22 C22           -0.7391     3.4138     0.6087 C.ar    
  23 C23            0.4174     3.7481     1.2616 C.ar    
  24 C24            0.6185     5.0992     1.6029 C.ar    
  25 C25           -0.4193     6.0782     1.2423 C.ar    
  26 N26           -1.5212     5.6554     0.6019 N.ar    
  27 C27           -1.6837     4.3949     0.2898 C.ar    
  28 C28            1.6255     5.8107     2.2455 C.2     
  29 N29            1.2534     7.0992     2.2813 N.pl3   
  30 N30            0.0058     7.2538     1.6678 N.2     
  31 C31            2.5849    -9.2384     2.0485 C.1     
  32 N32            3.5867    -9.2402     1.5131 N.1     
  33 O33            2.7752     5.2956     2.7457 O.3     
  34 C34            3.6781     6.2103     3.3705 C.3     
  35 F35            0.2134    -0.6780     1.9291 F       
  36 F36           -0.5915     0.3151    -2.6605 F       
  37 H37           -0.7935    -3.8918    -1.0739 H       
  38 H38           -0.9517    -2.2549    -2.9008 H       
  39 H39           -0.4221    -3.1052     2.3620 H       
  40 H40           -1.8803     1.7292     0.2532 H       
  41 H41           -0.1647    -4.1899     3.8256 H       
  42 H42            0.1466    -5.8066     5.6531 H       
  43 H43            0.8126    -8.1213     5.1539 H       
  44 H44            0.8532    -7.2365     0.9836 H       
  45 H45            0.4461   -10.0148     4.5667 H       
  46 H46            1.7028   -11.0436     3.8382 H       
  47 H47            2.1593    -9.5472     4.6873 H       
  48 H48            0.1452    -9.3388     0.9183 H       
  49 H49            0.5266   -10.9218     1.6373 H       
  50 H50           -0.7301    -9.8931     2.3657 H       
  51 H51            1.1535     2.9972     1.5078 H       
  52 H52           -2.5836     4.1002    -0.2297 H       
  53 H53            1.7729     7.8177     2.6747 H       
  54 H54            4.5551     5.6694     3.7261 H       
  55 H55            3.9858     6.9670     2.6489 H       
  56 H56            3.1820     6.6920     4.2131 H       
@<TRIPOS>BOND
   1    1    2 1
   2    1    3 2
   3    1   10 am
   4    2    4 ar
   5    2    8 ar
   6    4    5 ar
   7    4   35 1
   8    5    6 ar
   9    5    9 1
  10    6    7 ar
  11    6   37 1
  12    7    8 ar
  13    7   38 1
  14    8   36 1
  15    9   11 am
  16    9   39 1
  17   10   22 1
  18   10   40 1
  19   11   12 1
  20   11   13 2
  21   12   14 ar
  22   12   18 ar
  23   14   15 ar
  24   14   41 1
  25   15   16 ar
  26   15   42 1
  27   16   17 ar
  28   16   43 1
  29   17   18 ar
  30   17   19 1
  31   18   44 1
  32   19   20 1
  33   19   21 1
  34   19   31 1
  35   20   45 1
  36   20   46 1
  37   20   47 1
  38   21   48 1
  39   21   49 1
  40   21   50 1
  41   22   23 ar
  42   22   27 ar
  43   23   24 ar
  44   23   51 1
  45   24   25 ar
  46   24   28 2
  47   25   26 ar
  48   25   30 2
  49   26   27 ar
  50   27   52 1
  51   28   29 1
  52   28   33 1
  53   29   30 1
  54   29   53 1
  55   31   32 3
  56   33   34 1
  57   34   54 1
  58   34   55 1
  59   34   56 1

#	End of record

