#	Name: ASD01940345
#	Creating user name:	WinNT
#	Creation time:	15. 06. 2019 20:12

#	Modifying user name:	WinNT
#	Modification time:	15. 06. 2019 20:12

#	Program:	/corina/corina34_cracker 3.40 0067  02.08.2006

@<TRIPOS>MOLECULE
ASD01940345
  43   46    0    0    0
SMALL
NO_CHARGES


@<TRIPOS>ATOM
   1 C1            -0.3055     1.7146    -0.3074 C.3     
   2 C2            -0.3892     0.1877    -0.3589 C.3     
   3 C3             0.9721     0.8757    -0.2380 C.3     
   4 S4            -0.6285     2.6234    -1.8437 S.o2    
   5 O5             0.3469     2.3039    -2.8265 O.2     
   6 O6            -2.0151     2.6021    -2.1536 O.2     
   7 N7            -0.3197     4.2047    -1.4610 N.am    
   8 C8             0.9598     4.5856    -1.0352 C.ar    
   9 C9             1.1070     5.5761    -0.0649 C.ar    
  10 C10            2.3769     5.9491     0.3536 C.ar    
  11 C11            3.4935     5.3366    -0.1936 C.ar    
  12 C12            3.3447     4.3540    -1.1569 C.ar    
  13 C13            2.0816     3.9743    -1.5736 C.ar    
  14 N14           -0.0241     6.1937     0.4860 N.pl3   
  15 C15            0.1016     7.4175     1.1507 C.ar    
  16 C16            0.3230     8.5841     0.4240 C.ar    
  17 C17            0.4467     9.7926     1.0793 C.ar    
  18 C18            0.3497     9.8435     2.4688 C.ar    
  19 C19            0.1282     8.6747     3.1933 C.ar    
  20 C20           -0.0003     7.4688     2.5349 C.ar    
  21 N21            0.5824    12.6548     4.7561 N.pl3   
  22 N22            0.7658    13.2950     3.5244 N.2     
  23 C23            0.7074    12.3969     2.5769 C.2     
  24 C24            0.4830    11.1423     3.1761 C.2     
  25 C25            0.4107    11.3370     4.5244 C.2     
  26 F26            0.4172     8.5332    -0.9228 F       
  27 F27            4.7294     5.6997     0.2137 F       
  28 F28            2.5245     6.9087     1.2932 F       
  29 H29           -0.6352     2.2061     0.6080 H       
  30 H30           -0.7738    -0.3253     0.5225 H       
  31 H31           -0.6382    -0.2707    -1.3160 H       
  32 H32            1.6186     0.8699    -1.1156 H       
  33 H33            1.4830     0.8153     0.7229 H       
  34 H34           -1.0246     4.8674    -1.5317 H       
  35 H35            4.2171     3.8796    -1.5815 H       
  36 H36            1.9693     3.2040    -2.3223 H       
  37 H37           -0.8941     5.7723     0.4062 H       
  38 H38            0.6188    10.6978     0.5160 H       
  39 H39            0.0528     8.7128     4.2700 H       
  40 H40           -0.1766     6.5635     3.0968 H       
  41 H41            0.5830    13.0840     5.6259 H       
  42 H42            0.8126    12.5842     1.5185 H       
  43 H43            0.2458    10.5743     5.2710 H       
@<TRIPOS>BOND
   1    1    2 1
   2    1    3 1
   3    1    4 1
   4    1   29 1
   5    2    3 1
   6    2   30 1
   7    2   31 1
   8    3   32 1
   9    3   33 1
  10    4    5 2
  11    4    6 2
  12    4    7 am
  13    7    8 1
  14    7   34 1
  15    8    9 ar
  16    8   13 ar
  17    9   10 ar
  18    9   14 1
  19   10   11 ar
  20   10   28 1
  21   11   12 ar
  22   11   27 1
  23   12   13 ar
  24   12   35 1
  25   13   36 1
  26   14   15 1
  27   14   37 1
  28   15   16 ar
  29   15   20 ar
  30   16   17 ar
  31   16   26 1
  32   17   18 ar
  33   17   38 1
  34   18   19 ar
  35   18   24 1
  36   19   20 ar
  37   19   39 1
  38   20   40 1
  39   21   22 1
  40   21   25 1
  41   21   41 1
  42   22   23 2
  43   23   24 1
  44   23   42 1
  45   24   25 2
  46   25   43 1

#	End of record

