#	Name: ASD03091329
#	Creating user name:	WinNT
#	Creation time:	15. 06. 2019 20:30

#	Modifying user name:	WinNT
#	Modification time:	15. 06. 2019 20:30

#	Program:	/corina/corina34_cracker 3.40 0067  02.08.2006

@<TRIPOS>MOLECULE
ASD03091329
  25   26    0    0    0
SMALL
NO_CHARGES


@<TRIPOS>ATOM
   1 C1            -0.0167     1.3825     0.0096 C.ar    
   2 C2             0.0021    -0.0041     0.0020 C.ar    
   3 C3             1.2301    -0.6472    -0.0132 C.ar    
   4 C4             2.3867     0.1096    -0.0201 C.ar    
   5 N5             2.3308     1.4270    -0.0125 N.ar    
   6 C6             1.1806     2.0722     0.0019 C.ar    
   7 C7            -1.3265     2.1278     0.0199 C.3     
   8 C8            -1.6735     2.6186    -1.4031 C.3     
   9 C9            -2.3530     3.9766    -1.1113 C.3     
  10 C10           -1.7865     4.3948     0.2277 C.2     
  11 N11           -1.2135     3.3421     0.8363 N.am    
  12 O12           -1.8413     5.5166     0.6853 O.2     
  13 C13           -0.5597     3.3998     2.1461 C.3     
  14 H14           -0.9181    -0.5695     0.0081 H       
  15 H15            1.2824    -1.7259    -0.0191 H       
  16 H16            3.3473    -0.3837    -0.0316 H       
  17 H17            1.1745     3.1522     0.0074 H       
  18 H18           -2.1213     1.4873     0.4022 H       
  19 H19           -0.7714     2.7541    -1.9998 H       
  20 H20           -2.3650     1.9339    -1.8942 H       
  21 H21           -2.0944     4.7055    -1.8794 H       
  22 H22           -3.4344     3.8560    -1.0471 H       
  23 H23            0.4960     3.6373     2.0151 H       
  24 H24           -1.0327     4.1705     2.7547 H       
  25 H25           -0.6559     2.4344     2.6430 H       
@<TRIPOS>BOND
   1    1    2 ar
   2    1    6 ar
   3    1    7 1
   4    2    3 ar
   5    2   14 1
   6    3    4 ar
   7    3   15 1
   8    4    5 ar
   9    4   16 1
  10    5    6 ar
  11    6   17 1
  12    7    8 1
  13    7   11 1
  14    7   18 1
  15    8    9 1
  16    8   19 1
  17    8   20 1
  18    9   10 1
  19    9   21 1
  20    9   22 1
  21   10   11 am
  22   10   12 2
  23   11   13 1
  24   13   23 1
  25   13   24 1
  26   13   25 1

#	End of record

