#	Name: ASD02408388
#	Creating user name:	WinNT
#	Creation time:	15. 06. 2019 20:21

#	Modifying user name:	WinNT
#	Modification time:	15. 06. 2019 20:21

#	Program:	/corina/corina34_cracker 3.40 0067  02.08.2006

@<TRIPOS>MOLECULE
ASD02408388
  31   32    0    0    0
SMALL
NO_CHARGES


@<TRIPOS>ATOM
   1 C1             0.0898     0.9327    -0.2843 C.2     
   2 C2             0.1614     0.3530     1.0047 C.2     
   3 C3             1.3978     1.1944    -0.6859 C.2     
   4 N4             2.2091     0.7897     0.3164 N.pl3   
   5 N5             1.4162     0.2743     1.3474 N.2     
   6 C6             3.6080     0.8725     0.3221 C.ar    
   7 C7             4.3723    -0.2774     0.4682 C.ar    
   8 C8             5.7508    -0.1927     0.4729 C.ar    
   9 C9             6.3699     1.0358     0.3322 C.ar    
  10 C10            5.6115     2.1828     0.1869 C.ar    
  11 C11            4.2326     2.1039     0.1757 C.ar    
  12 N12            1.7909     1.7601    -1.8814 N.pl3   
  13 C13           -1.1304     1.2013    -1.0543 C.2     
  14 N14           -2.3355     0.8883    -0.5383 N.am    
  15 O15           -1.0540     1.7065    -2.1587 O.2     
  16 C16            3.4067     3.3544     0.0168 C.3     
  17 C17            3.6984    -1.6166     0.6222 C.3     
  18 H18           -0.6792     0.0316     1.6018 H       
  19 H19            6.3459    -1.0867     0.5870 H       
  20 H20            7.4480     1.0995     0.3362 H       
  21 H21            6.0978     3.1409     0.0775 H       
  22 H22            1.1243     2.0359    -2.5299 H       
  23 H23            2.7339     1.8820    -2.0734 H       
  24 H24           -2.3964     0.4855     0.3420 H       
  25 H25           -3.1419     1.0658    -1.0473 H       
  26 H26            3.2376     3.5459    -1.0429 H       
  27 H27            2.4487     3.2234     0.5197 H       
  28 H28            3.9366     4.1983     0.4584 H       
  29 H29            3.4558    -2.0165    -0.3624 H       
  30 H30            4.3690    -2.3036     1.1383 H       
  31 H31            2.7830    -1.4981     1.2018 H       
@<TRIPOS>BOND
   1    1    2 1
   2    1    3 2
   3    1   13 1
   4    2    5 2
   5    2   18 1
   6    3    4 1
   7    3   12 1
   8    4    5 1
   9    4    6 1
  10    6    7 ar
  11    6   11 ar
  12    7    8 ar
  13    7   17 1
  14    8    9 ar
  15    8   19 1
  16    9   10 ar
  17    9   20 1
  18   10   11 ar
  19   10   21 1
  20   11   16 1
  21   12   22 1
  22   12   23 1
  23   13   14 am
  24   13   15 2
  25   14   24 1
  26   14   25 1
  27   16   26 1
  28   16   27 1
  29   16   28 1
  30   17   29 1
  31   17   30 1
  32   17   31 1

#	End of record

