#	Name: ASD00171067
#	Creating user name:	WinNT
#	Creation time:	15. 06. 2019 18:32

#	Modifying user name:	WinNT
#	Modification time:	15. 06. 2019 18:32

#	Program:	/corina/corina34_cracker 3.40 0067  02.08.2006

@<TRIPOS>MOLECULE
ASD00171067
  31   33    0    0    0
SMALL
NO_CHARGES


@<TRIPOS>ATOM
   1 C1            -0.0167     1.3819     0.0096 C.ar    
   2 C2             0.0021    -0.0041     0.0020 C.ar    
   3 C3            -1.2994    -0.7699     0.0194 C.3     
   4 C4            -2.0162    -0.5764    -1.3184 C.3     
   5 C5            -2.8409     0.7095    -1.2871 C.3     
   6 C6            -1.9570     1.9073    -1.0949 C.2     
   7 O7            -1.2125     2.0342     0.0185 O.3     
   8 O8            -1.9139     2.7636    -1.9462 O.2     
   9 C9             1.1722     2.0942     0.0021 C.ar    
  10 C10            2.3776     1.4192    -0.0160 C.ar    
  11 C11            2.3968     0.0321    -0.0271 C.ar    
  12 C12            1.2056    -0.6796    -0.0184 C.ar    
  13 O13            3.5838    -0.6307    -0.0467 O.3     
  14 C14            4.7709     0.1648    -0.0548 C.3     
  15 C15            5.9974    -0.7496    -0.0768 C.3     
  16 C16            7.3735    -0.0936    -0.2063 C.3     
  17 O17            6.9107    -0.6651     1.0190 O.3     
  18 H18           -1.0961    -1.8297     0.1736 H       
  19 H19           -1.9297    -0.3982     0.8273 H       
  20 H20           -1.2785    -0.5139    -2.1184 H       
  21 H21           -2.6755    -1.4248    -1.5017 H       
  22 H22           -3.3825     0.8110    -2.2275 H       
  23 H23           -3.5562     0.6566    -0.4664 H       
  24 H24            1.1564     3.1740     0.0100 H       
  25 H25            3.3055     1.9718    -0.0218 H       
  26 H26            1.2201    -1.7595    -0.0276 H       
  27 H27            4.7760     0.8009    -0.9399 H       
  28 H28            4.7975     0.7869     0.8399 H       
  29 H29            5.8529    -1.7235    -0.5447 H       
  30 H30            8.1430    -0.6323    -0.7593 H       
  31 H31            7.4134     0.9934    -0.2765 H       
@<TRIPOS>BOND
   1    1    2 ar
   2    1    9 ar
   3    1    7 1
   4    2    3 1
   5    2   12 ar
   6    3    4 1
   7    3   18 1
   8    3   19 1
   9    4    5 1
  10    4   20 1
  11    4   21 1
  12    5    6 1
  13    5   22 1
  14    5   23 1
  15    6    7 1
  16    6    8 2
  17    9   10 ar
  18    9   24 1
  19   10   11 ar
  20   10   25 1
  21   11   12 ar
  22   11   13 1
  23   12   26 1
  24   13   14 1
  25   14   15 1
  26   14   27 1
  27   14   28 1
  28   15   16 1
  29   15   17 1
  30   15   29 1
  31   16   17 1
  32   16   30 1
  33   16   31 1

#	End of record

