#	Name: ASD01730028
#	Creating user name:	WinNT
#	Creation time:	15. 06. 2019 19:23

#	Modifying user name:	WinNT
#	Modification time:	15. 06. 2019 19:23

#	Program:	/corina/corina34_cracker 3.40 0067  02.08.2006

@<TRIPOS>MOLECULE
ASD01730028
  41   42    0    0    0
SMALL
NO_CHARGES


@<TRIPOS>ATOM
   1 C1             0.0553     1.9230     0.1973 C.2     
   2 C2             0.8212     0.6769     0.5601 C.3     
   3 N3             0.6752     3.0724     0.1198 N.2     
   4 N4            -1.2799     1.8517    -0.0552 N.pl3   
   5 N5             2.6789     2.0414     0.5606 N.2     
   6 C6             2.0045     3.1401     0.3522 C.2     
   7 S7             2.8051     4.7095     0.3696 S.3     
   8 C8             4.0786     4.3753     1.6125 C.3     
   9 C9             4.7449     3.0600     1.2979 C.ar    
  10 C10            4.0194     1.9833     0.7931 C.ar    
  11 C11            6.1035     2.9359     1.5193 C.ar    
  12 C12            6.7544     1.7441     1.2386 C.ar    
  13 C13            6.0400     0.6678     0.7315 C.ar    
  14 C14            4.6861     0.7815     0.5094 C.ar    
  15 O15            8.0914     1.6303     1.4594 O.3     
  16 C16            8.6958     0.3735     1.1474 C.3     
  17 F17            8.5140     0.0931    -0.2110 F       
  18 F18           10.0642     0.4306     1.4328 F       
  19 F19            8.1009    -0.6334     1.9152 F       
  20 C20           -2.0473     3.0772    -0.2907 C.3     
  21 C21           -2.0419     3.4030    -1.7855 C.3     
  22 C22           -1.9500     0.5494    -0.0916 C.3     
  23 C23           -2.4499     0.1937     1.3099 C.3     
  24 H24            1.2858     0.8076     1.5374 H       
  25 H25            0.1387    -0.1724     0.5930 H       
  26 H26            1.5929     0.4940    -0.1876 H       
  27 H27            4.8215     5.1728     1.5964 H       
  28 H28            3.6195     4.3240     2.5998 H       
  29 H29            6.6616     3.7725     1.9131 H       
  30 H30            6.5467    -0.2600     0.5106 H       
  31 H31            4.1341    -0.0587     0.1147 H       
  32 H32           -3.0740     2.9333     0.0461 H       
  33 H33           -1.5956     3.9007     0.2624 H       
  34 H34           -1.0153     3.5469    -2.1223 H       
  35 H35           -2.4937     2.5795    -2.3386 H       
  36 H36           -2.6129     4.3148    -1.9607 H       
  37 H37           -2.7953     0.5948    -0.7783 H       
  38 H38           -1.2470    -0.2115    -0.4306 H       
  39 H39           -1.6046     0.1483     1.9966 H       
  40 H40           -3.1529     0.9547     1.6489 H       
  41 H41           -2.9485    -0.7752     1.2829 H       
@<TRIPOS>BOND
   1    1    2 1
   2    1    3 2
   3    1    4 1
   4    2   24 1
   5    2   25 1
   6    2   26 1
   7    3    6 1
   8    4   20 1
   9    4   22 1
  10    5    6 2
  11    5   10 1
  12    6    7 1
  13    7    8 1
  14    8    9 1
  15    8   27 1
  16    8   28 1
  17    9   10 ar
  18    9   11 ar
  19   10   14 ar
  20   11   12 ar
  21   11   29 1
  22   12   13 ar
  23   12   15 1
  24   13   14 ar
  25   13   30 1
  26   14   31 1
  27   15   16 1
  28   16   17 1
  29   16   18 1
  30   16   19 1
  31   20   21 1
  32   20   32 1
  33   20   33 1
  34   21   34 1
  35   21   35 1
  36   21   36 1
  37   22   23 1
  38   22   37 1
  39   22   38 1
  40   23   39 1
  41   23   40 1
  42   23   41 1

#	End of record

