#	Name: ASD01918568
#	Creating user name:	WinNT
#	Creation time:	15. 06. 2019 20:11

#	Modifying user name:	WinNT
#	Modification time:	15. 06. 2019 20:11

#	Program:	/corina/corina34_cracker 3.40 0067  02.08.2006

@<TRIPOS>MOLECULE
ASD01918568
  41   44    0    0    0
SMALL
NO_CHARGES


@<TRIPOS>ATOM
   1 F1             0.1994     0.0154     0.0633 F       
   2 C2            -0.0146     1.3978     0.0453 C.3     
   3 C3             1.3125     2.1118     0.0583 C.ar    
   4 C4             1.5880     3.0803     1.0107 C.ar    
   5 N5             2.7644     3.6862     0.9909 N.ar    
   6 C6             3.6671     3.3786     0.0812 C.ar    
   7 N7             3.4401     2.4632    -0.8394 N.ar    
   8 C8             2.2890     1.8117    -0.8784 C.ar    
   9 C9            -0.7744     1.7724    -1.2010 C.ar    
  10 C10           -1.9359     2.5256    -1.0926 C.ar    
  11 C11           -2.6558     2.8852    -2.2231 C.ar    
  12 C12           -3.8876     3.6848    -2.0981 C.2     
  13 O13           -4.5138     3.9965    -3.0928 O.2     
  14 N14           -4.3200     4.0707    -0.8812 N.am    
  15 C15           -5.4239     4.9146    -0.7690 C.ar    
  16 C16           -5.7970     5.3971     0.4800 C.ar    
  17 C17           -6.8947     6.2341     0.5785 C.ar    
  18 C18           -7.5849     6.5612    -0.5826 C.ar    
  19 F19           -8.6616     7.3755    -0.5307 F       
  20 C20           -7.1569     6.0441    -1.7920 C.ar    
  21 N21           -6.1031     5.2528    -1.8536 N.ar    
  22 C22           -2.1943     2.4758    -3.4998 C.ar    
  23 N23           -2.8589     2.8025    -4.6087 N.ar    
  24 C24           -2.4369     2.4272    -5.7933 C.ar    
  25 C25           -1.2784     1.6712    -5.9515 C.ar    
  26 C26           -0.5504     1.3029    -4.8555 C.ar    
  27 C27           -1.0075     1.7088    -3.5871 C.ar    
  28 C28           -0.3072     1.3710    -2.4176 C.ar    
  29 H29           -0.5917     1.6876     0.9235 H       
  30 H30            0.8526     3.3372     1.7586 H       
  31 H31            4.6180     3.8905     0.0903 H       
  32 H32            2.1112     1.0592    -1.6324 H       
  33 H33           -2.2829     2.8348    -0.1177 H       
  34 H34           -3.8630     3.7612    -0.0836 H       
  35 H35           -5.2378     5.1221     1.3621 H       
  36 H36           -7.2080     6.6239     1.5357 H       
  37 H37           -7.6895     6.2944    -2.6975 H       
  38 H38           -3.0030     2.7116    -6.6679 H       
  39 H39           -0.9559     1.3762    -6.9391 H       
  40 H40            0.3505     0.7163    -4.9593 H       
  41 H41            0.6004     0.7891    -2.4815 H       
@<TRIPOS>BOND
   1    1    2 1
   2    2    3 1
   3    2    9 1
   4    2   29 1
   5    3    8 ar
   6    3    4 ar
   7    4    5 ar
   8    4   30 1
   9    5    6 ar
  10    6    7 ar
  11    6   31 1
  12    7    8 ar
  13    8   32 1
  14    9   28 ar
  15    9   10 ar
  16   10   11 ar
  17   10   33 1
  18   11   12 1
  19   11   22 ar
  20   12   13 2
  21   12   14 am
  22   14   15 1
  23   14   34 1
  24   15   21 ar
  25   15   16 ar
  26   16   17 ar
  27   16   35 1
  28   17   18 ar
  29   17   36 1
  30   18   19 1
  31   18   20 ar
  32   20   21 ar
  33   20   37 1
  34   22   27 ar
  35   22   23 ar
  36   23   24 ar
  37   24   25 ar
  38   24   38 1
  39   25   26 ar
  40   25   39 1
  41   26   27 ar
  42   26   40 1
  43   27   28 ar
  44   28   41 1

#	End of record

