#	Name: ASD01150232
#	Creating user name:	WinNT
#	Creation time:	15. 06. 2019 19:03

#	Modifying user name:	WinNT
#	Modification time:	15. 06. 2019 19:03

#	Program:	/corina/corina34_cracker 3.40 0067  02.08.2006

@<TRIPOS>MOLECULE
ASD01150232
  35   37    0    0    0
SMALL
NO_CHARGES


@<TRIPOS>ATOM
   1 C1             0.0063     1.1249     0.0557 C.ar    
   2 C2            -0.0711    -0.1992    -0.3695 C.ar    
   3 C3            -1.2750    -0.8184    -0.5220 C.ar    
   4 C4            -2.4607    -0.1178    -0.2479 C.ar    
   5 C5            -2.3786     1.2283     0.1847 C.ar    
   6 C6            -1.1244     1.8347     0.3360 C.ar    
   7 N7            -3.6543    -0.7098    -0.3926 N.ar    
   8 C8            -4.7750    -0.0838    -0.1457 C.ar    
   9 C9            -4.7930     1.2544     0.2883 C.ar    
  10 C10           -3.5743     1.9364     0.4616 C.ar    
  11 Br11           1.6984     1.9455     0.2539 Br      
  12 C12           -3.5426     3.3413     0.9157 C.ar    
  13 C13           -6.0662     1.9302     0.5574 C.2     
  14 C14           -6.6201     1.9638     1.9585 C.3     
  15 O15           -6.6737     2.4623    -0.3479 O.2     
  16 C16           -6.0804    -0.8136    -0.3311 C.3     
  17 C17           -2.9765     3.6663     2.1510 C.ar    
  18 C18           -2.9494     4.9793     2.5695 C.ar    
  19 C19           -3.4825     5.9767     1.7672 C.ar    
  20 C20           -4.0460     5.6599     0.5405 C.ar    
  21 C21           -4.0735     4.3511     0.1091 C.ar    
  22 F22           -3.4531     7.2619     2.1824 F       
  23 H23            0.8373    -0.7434    -0.5818 H       
  24 H24           -1.3174    -1.8455    -0.8532 H       
  25 H25           -1.0537     2.8608     0.6655 H       
  26 H26           -6.1936     2.8097     2.4976 H       
  27 H27           -7.7044     2.0679     1.9182 H       
  28 H28           -6.3629     1.0380     2.4732 H       
  29 H29           -6.4041    -1.2275     0.6239 H       
  30 H30           -6.8353    -0.1197    -0.7009 H       
  31 H31           -5.9461    -1.6215    -1.0504 H       
  32 H32           -2.5614     2.8903     2.7769 H       
  33 H33           -2.5124     5.2317     3.5243 H       
  34 H34           -4.4604     6.4407    -0.0800 H       
  35 H35           -4.5126     4.1055    -0.8465 H       
@<TRIPOS>BOND
   1    1    2 ar
   2    1   11 1
   3    1    6 ar
   4    2    3 ar
   5    2   23 1
   6    3    4 ar
   7    3   24 1
   8    4    5 ar
   9    4    7 ar
  10    5    6 ar
  11    5   10 ar
  12    6   25 1
  13    7    8 ar
  14    8    9 ar
  15    8   16 1
  16    9   10 ar
  17    9   13 1
  18   10   12 1
  19   12   17 ar
  20   12   21 ar
  21   13   14 1
  22   13   15 2
  23   14   26 1
  24   14   27 1
  25   14   28 1
  26   16   29 1
  27   16   30 1
  28   16   31 1
  29   17   18 ar
  30   17   32 1
  31   18   19 ar
  32   18   33 1
  33   19   20 ar
  34   19   22 1
  35   20   21 ar
  36   20   34 1
  37   21   35 1

#	End of record

