#	Name: ASD01918051
#	Creating user name:	WinNT
#	Creation time:	15. 06. 2019 20:10

#	Modifying user name:	WinNT
#	Modification time:	15. 06. 2019 20:10

#	Program:	/corina/corina34_cracker 3.40 0067  02.08.2006

@<TRIPOS>MOLECULE
ASD01918051
  45   49    0    0    0
SMALL
NO_CHARGES


@<TRIPOS>ATOM
   1 C1            -0.0748     1.2912     0.1400 C.ar    
   2 C2            -0.0747    -0.0961     0.1548 C.ar    
   3 C3             1.1223    -0.7856     0.1614 C.ar    
   4 C4             2.3197    -0.0942     0.1533 C.ar    
   5 C5             2.3223     1.2883     0.1389 C.ar    
   6 C6             1.1280     1.9825     0.1318 C.ar    
   7 O7            -1.2511     1.9717     0.1278 O.3     
   8 C8            -1.1750     3.3985     0.1129 C.3     
   9 C9            -2.5670     3.9758     0.1009 C.2     
  10 N10           -3.2729     4.2780     1.1561 N.2     
  11 C11           -4.4550     4.7642     0.7548 C.2     
  12 C12           -4.4613     4.7574    -0.5920 C.2     
  13 O13           -3.2818     4.2687    -0.9970 O.3     
  14 C14           -5.6003     5.2390     1.6128 C.3     
  15 C15           -6.5353     6.1026     0.7569 C.3     
  16 N16           -6.7658     5.4325    -0.5317 N.am    
  17 C17           -5.6153     5.2420    -1.4345 C.3     
  18 C18           -7.9964     5.0060    -0.8785 C.2     
  19 O19           -8.9113     5.0755    -0.0805 O.2     
  20 C20           -8.2332     4.4551    -2.2253 C.2     
  21 N21           -7.3758     4.4104    -3.2219 N.2     
  22 N22           -7.8838     3.8685    -4.2684 N.pl3   
  23 C23           -9.1813     3.4870    -4.0540 C.ar    
  24 C24           -9.4710     3.8409    -2.7207 C.ar    
  25 C25          -10.7321     3.5726    -2.1943 C.ar    
  26 C26          -11.6590     2.9575    -3.0153 C.ar    
  27 C27          -11.3061     2.6329    -4.3174 C.ar    
  28 N28          -10.1108     2.9029    -4.7967 N.ar    
  29 H29           -1.0098    -0.6365     0.1615 H       
  30 H30            1.1229    -1.8655     0.1733 H       
  31 H31            3.2545    -0.6351     0.1585 H       
  32 H32            3.2589     1.8261     0.1329 H       
  33 H33            1.1306     3.0624     0.1199 H       
  34 H34           -0.6462     3.7435     1.0014 H       
  35 H35           -0.6388     3.7245    -0.7784 H       
  36 H36           -6.1483     4.3794     1.9987 H       
  37 H37           -5.2141     5.8308     2.4426 H       
  38 H38           -7.4856     6.2336     1.2745 H       
  39 H39           -6.0761     7.0759     0.5844 H       
  40 H40           -5.3577     6.1902    -1.9063 H       
  41 H41           -5.8553     4.5006    -2.1965 H       
  42 H42           -7.4089     3.7451    -5.1052 H       
  43 H43          -10.9783     3.8366    -1.1764 H       
  44 H44          -12.6485     2.7313    -2.6464 H       
  45 H45          -12.0329     2.1525    -4.9556 H       
@<TRIPOS>BOND
   1    1    2 ar
   2    1    6 ar
   3    1    7 1
   4    2    3 ar
   5    2   29 1
   6    3    4 ar
   7    3   30 1
   8    4    5 ar
   9    4   31 1
  10    5    6 ar
  11    5   32 1
  12    6   33 1
  13    7    8 1
  14    8    9 1
  15    8   34 1
  16    8   35 1
  17    9   10 2
  18    9   13 1
  19   10   11 1
  20   11   14 1
  21   11   12 2
  22   12   13 1
  23   12   17 1
  24   14   15 1
  25   14   36 1
  26   14   37 1
  27   15   16 1
  28   15   38 1
  29   15   39 1
  30   16   17 1
  31   16   18 am
  32   17   40 1
  33   17   41 1
  34   18   19 2
  35   18   20 1
  36   20   21 2
  37   20   24 1
  38   21   22 1
  39   22   23 1
  40   22   42 1
  41   23   28 ar
  42   23   24 ar
  43   24   25 ar
  44   25   26 ar
  45   25   43 1
  46   26   27 ar
  47   26   44 1
  48   27   28 ar
  49   27   45 1

#	End of record

