#	Name: ASD01411164
#	Creating user name:	WinNT
#	Creation time:	15. 06. 2019 19:19

#	Modifying user name:	WinNT
#	Modification time:	15. 06. 2019 19:19

#	Program:	/corina/corina34_cracker 3.40 0067  02.08.2006

@<TRIPOS>MOLECULE
ASD01411164
  46   48    0    0    0
SMALL
NO_CHARGES


@<TRIPOS>ATOM
   1 C1            -0.0164     1.3790     0.0104 C.ar    
   2 C2             0.3266     0.5995    -1.0790 C.ar    
   3 C3             1.5314    -0.0772    -1.0970 C.ar    
   4 C4             2.4000     0.0250    -0.0200 C.ar    
   5 C5             2.0537     0.8105     1.0772 C.ar    
   6 C6             0.8440     1.4857     1.0872 C.ar    
   7 O7             2.9008     0.9141     2.1359 O.3     
   8 C8             2.4797     1.7370     3.2256 C.3     
   9 C9             3.5384     1.7308     4.2981 C.ar    
  10 N10            3.6214    -0.6601    -0.0355 N.am    
  11 C11            4.7418    -0.0310    -0.4420 C.2     
  12 C12            6.0482    -0.7170    -0.3537 C.ar    
  13 O13            4.6781     1.1008    -0.8814 O.2     
  14 C14            5.4812     1.7192     6.2657 C.ar    
  15 C15            4.4729     0.7719     6.2830 C.ar    
  16 C16            3.5025     0.7778     5.2989 C.ar    
  17 C17            4.5483     2.6747     4.2775 C.ar    
  18 C18            5.5198     2.6692     5.2606 C.ar    
  19 C19            7.2105    -0.0683    -0.7739 C.ar    
  20 C20            8.4265    -0.7143    -0.6887 C.ar    
  21 C21            8.4955    -2.0023    -0.1882 C.ar    
  22 C22            7.3471    -2.6513     0.2295 C.ar    
  23 C23            6.1256    -2.0144     0.1556 C.ar    
  24 Cl24           6.7000     1.7128     7.5018 Cl      
  25 C25            1.9014    -0.9261    -2.2858 C.3     
  26 C26            1.5125    -2.3578    -2.0213 C.2     
  27 O27            1.7481    -3.2996    -2.9483 O.3     
  28 O28            0.9886    -2.6580    -0.9747 O.2     
  29 H29           -0.9571     1.9096     0.0181 H       
  30 H30           -0.3489     0.5190    -1.9178 H       
  31 H31            0.5731     2.0956     1.9363 H       
  32 H32            2.3261     2.7568     2.8726 H       
  33 H33            1.5464     1.3495     3.6341 H       
  34 H34            3.6609    -1.5875     0.2463 H       
  35 H35            4.4422     0.0301     7.0673 H       
  36 H36            2.7158     0.0380     5.3119 H       
  37 H37            4.5783     3.4162     3.4929 H       
  38 H38            6.3066     3.4089     5.2466 H       
  39 H39            7.1580     0.9370    -1.1650 H       
  40 H40            9.3265    -0.2136    -1.0138 H       
  41 H41            9.4499    -2.5036    -0.1237 H       
  42 H42            7.4077    -3.6569     0.6186 H       
  43 H43            5.2306    -2.5201     0.4868 H       
  44 H44            1.3751    -0.5639    -3.1689 H       
  45 H45            2.9767    -0.8669    -2.4540 H       
  46 H46            1.4810    -4.2037    -2.7333 H       
@<TRIPOS>BOND
   1    1    2 ar
   2    1    6 ar
   3    1   29 1
   4    2    3 ar
   5    2   30 1
   6    3    4 ar
   7    3   25 1
   8    4    5 ar
   9    4   10 1
  10    5    6 ar
  11    5    7 1
  12    6   31 1
  13    7    8 1
  14    8    9 1
  15    8   32 1
  16    8   33 1
  17    9   17 ar
  18    9   16 ar
  19   10   11 am
  20   10   34 1
  21   11   12 1
  22   11   13 2
  23   12   19 ar
  24   12   23 ar
  25   14   15 ar
  26   14   18 ar
  27   14   24 1
  28   15   16 ar
  29   15   35 1
  30   16   36 1
  31   17   18 ar
  32   17   37 1
  33   18   38 1
  34   19   20 ar
  35   19   39 1
  36   20   21 ar
  37   20   40 1
  38   21   22 ar
  39   21   41 1
  40   22   23 ar
  41   22   42 1
  42   23   43 1
  43   25   26 1
  44   25   44 1
  45   25   45 1
  46   26   27 1
  47   26   28 2
  48   27   46 1

#	End of record

