#	Name: ASD00310143
#	Creating user name:	WinNT
#	Creation time:	15. 06. 2019 18:33

#	Modifying user name:	WinNT
#	Modification time:	15. 06. 2019 18:33

#	Program:	/corina/corina34_cracker 3.40 0067  02.08.2006

@<TRIPOS>MOLECULE
ASD00310143
  32   33    0    0    0
SMALL
NO_CHARGES


@<TRIPOS>ATOM
   1 N1            -0.0179     1.4659     0.0101 N.3     
   2 C2             0.0021    -0.0041     0.0020 C.3     
   3 C3             0.7497    -0.4921    -1.2417 C.3     
   4 O4             2.0659     0.0673    -1.2506 O.3     
   5 C5             2.0838     1.4973    -1.2437 C.3     
   6 C6             1.3496     2.0055    -0.0001 C.3     
   7 C7            -0.7765     1.9758     1.1601 C.3     
   8 C8            -0.5694     3.4871     1.2781 C.3     
   9 O9            -1.1326     4.1357     0.1361 O.3     
  10 C10           -1.0332     5.4902     0.0842 C.ar    
  11 C11           -1.5583     6.1843    -0.9960 C.ar    
  12 C12           -1.4561     7.5610    -1.0468 C.ar    
  13 C13           -0.8303     8.2475    -0.0217 C.ar    
  14 C14           -0.3059     7.5572     1.0565 C.ar    
  15 C15           -0.4114     6.1810     1.1141 C.ar    
  16 Br16          -0.6908    10.1319    -0.0945 Br      
  17 H17            0.5087    -0.3661     0.8967 H       
  18 H18           -1.0202    -0.3818    -0.0162 H       
  19 H19            0.8167    -1.5799    -1.2226 H       
  20 H20            0.2136    -0.1754    -2.1363 H       
  21 H21            3.1155     1.8483    -1.2262 H       
  22 H22            1.5864     1.8718    -2.1384 H       
  23 H23            1.3110     3.0946    -0.0198 H       
  24 H24            1.8778     1.6756     0.8946 H       
  25 H25           -1.8364     1.7643     1.0189 H       
  26 H26           -0.4270     1.4890     2.0706 H       
  27 H27           -1.0590     3.8515     2.1812 H       
  28 H28            0.4974     3.7047     1.3302 H       
  29 H29           -2.0464     5.6488    -1.7969 H       
  30 H30           -1.8649     8.1018    -1.8876 H       
  31 H31            0.1823     8.0949     1.8558 H       
  32 H32           -0.0058     5.6428     1.9581 H       
@<TRIPOS>BOND
   1    1    2 1
   2    1    6 1
   3    1    7 1
   4    2    3 1
   5    2   17 1
   6    2   18 1
   7    3    4 1
   8    3   19 1
   9    3   20 1
  10    4    5 1
  11    5    6 1
  12    5   21 1
  13    5   22 1
  14    6   23 1
  15    6   24 1
  16    7    8 1
  17    7   25 1
  18    7   26 1
  19    8    9 1
  20    8   27 1
  21    8   28 1
  22    9   10 1
  23   10   11 ar
  24   10   15 ar
  25   11   12 ar
  26   11   29 1
  27   12   13 ar
  28   12   30 1
  29   13   14 ar
  30   13   16 1
  31   14   15 ar
  32   14   31 1
  33   15   32 1

#	End of record

