#	Name: ASD03090373
#	Creating user name:	WinNT
#	Creation time:	15. 06. 2019 20:28

#	Modifying user name:	WinNT
#	Modification time:	15. 06. 2019 20:28

#	Program:	/corina/corina34_cracker 3.40 0067  02.08.2006

@<TRIPOS>MOLECULE
ASD03090373
  36   38    0    0    0
SMALL
NO_CHARGES


@<TRIPOS>ATOM
   1 C1            -0.0179     1.4706     0.0101 C.2     
   2 C2             0.0021    -0.0041     0.0020 C.ar    
   3 C3             1.2216    -0.6880    -0.0133 C.ar    
   4 C4             1.2372    -2.0588    -0.0203 C.ar    
   5 C5             0.0396    -2.7703    -0.0122 C.ar    
   6 C6            -1.1768    -2.0917     0.0030 C.ar    
   7 C7            -1.1984    -0.7210     0.0155 C.ar    
   8 O8             1.0268     2.0929     0.0035 O.2     
   9 N9            -1.1941     2.1285     0.0193 N.am    
  10 C10           -1.2140     3.5934     0.0273 C.3     
  11 C11           -5.2338     4.9553    -0.0600 C.ar    
  12 C12           -4.6183     4.7413     1.1885 C.ar    
  13 C13           -3.2964     4.2933     1.2347 C.ar    
  14 C14           -2.6415     4.0763     0.0367 C.ar    
  15 C15           -3.3094     4.3074    -1.1558 C.ar    
  16 N16           -4.5556     4.7300    -1.1772 N.ar    
  17 N17           -6.5118     5.3929     0.1927 N.pl3   
  18 C18           -5.6203     5.0776     2.2013 C.2     
  19 C19           -6.7250     5.4628     1.5433 C.2     
  20 S20            0.0635    -4.5322    -0.0219 S.3     
  21 C21           -1.6982    -4.9642    -0.0067 C.3     
  22 F22           -2.2968    -4.4409     1.1444 F       
  23 F23           -2.3195    -4.4287    -1.1400 F       
  24 H24            2.1504    -0.1369    -0.0199 H       
  25 H25            2.1788    -2.5876    -0.0325 H       
  26 H26           -2.1037    -2.6459     0.0089 H       
  27 H27           -2.1417    -0.1954     0.0315 H       
  28 H28           -2.0275     1.6321     0.0205 H       
  29 H29           -0.7009     3.9588     0.9169 H       
  30 H30           -0.7094     3.9685    -0.8630 H       
  31 H31           -2.8003     4.1215     2.1785 H       
  32 H32           -2.7946     4.1368    -2.0898 H       
  33 H33           -7.1665     5.6195    -0.4863 H       
  34 H34           -5.4933     5.0299     3.2728 H       
  35 H35           -7.6465     5.7780     2.0101 H       
  36 H36           -1.8064    -6.0488    -0.0114 H       
@<TRIPOS>BOND
   1    1    2 1
   2    1    8 2
   3    1    9 am
   4    2    3 ar
   5    2    7 ar
   6    3    4 ar
   7    3   24 1
   8    4    5 ar
   9    4   25 1
  10    5    6 ar
  11    5   20 1
  12    6    7 ar
  13    6   26 1
  14    7   27 1
  15    9   10 1
  16    9   28 1
  17   10   14 1
  18   10   29 1
  19   10   30 1
  20   11   12 ar
  21   11   16 ar
  22   11   17 1
  23   12   13 ar
  24   12   18 1
  25   13   14 ar
  26   13   31 1
  27   14   15 ar
  28   15   16 ar
  29   15   32 1
  30   17   19 1
  31   17   33 1
  32   18   19 2
  33   18   34 1
  34   19   35 1
  35   20   21 1
  36   21   22 1
  37   21   23 1
  38   21   36 1

#	End of record

