#	Name: ASD03330658
#	Creating user name:	WinNT
#	Creation time:	15. 06. 2019 20:37

#	Modifying user name:	WinNT
#	Modification time:	15. 06. 2019 20:37

#	Program:	/corina/corina34_cracker 3.40 0067  02.08.2006

@<TRIPOS>MOLECULE
ASD03330658
  60   62    0    0    0
SMALL
NO_CHARGES


@<TRIPOS>ATOM
   1 C1            -0.4244     1.7635    -0.6399 C.2     
   2 N2            -0.4974     0.4478    -0.9800 N.pl3   
   3 C3             0.8953     2.0929    -0.5930 C.2     
   4 N4             1.6087     0.9848    -0.9202 N.2     
   5 C5             0.7775    -0.0026    -1.1586 C.2     
   6 C6             1.1600    -1.3756    -1.5552 C.2     
   7 C7             1.4499     3.4139    -0.2499 C.2     
   8 O8             0.7035     4.3338     0.0261 O.2     
   9 C9             3.3357     4.9168     0.0994 C.3     
  10 N10            2.7842     3.6031    -0.2418 N.am    
  11 C11            3.4566     5.0399     1.6196 C.3     
  12 C12            4.3269     3.9016     2.1560 C.3     
  13 C13            4.0989     6.3829     1.9731 C.3     
  14 C14            2.0650     4.9585     2.2502 C.3     
  15 C15            4.6982     5.0676    -0.5267 C.2     
  16 N16            5.2406     6.2927    -0.6731 N.am    
  17 O17            5.3065     4.0866    -0.8988 O.2     
  18 C18            6.5179     6.4493    -1.3733 C.3     
  19 C19           -1.7339    -0.3282    -1.1105 C.3     
  20 C20           -2.7439     0.4714    -1.9395 C.3     
  21 C21           -3.5504     1.3884    -1.0258 C.3     
  22 N22           -2.7346     1.8705     0.0904 N.3     
  23 C23           -1.5984     2.6732    -0.3858 C.3     
  24 C24           -3.5496     2.6284     1.0492 C.3     
  25 C25            2.3636    -1.7613    -2.0756 C.2     
  26 C26            0.3514    -2.5273    -1.4597 C.2     
  27 N27            1.0397    -3.5434    -1.9068 N.2     
  28 N28            2.3042    -3.0882    -2.2988 N.pl3   
  29 C29            3.3787    -3.9137    -2.8557 C.3     
  30 H30            2.6745     5.6973    -0.2769 H       
  31 H31            3.3795     2.8695    -0.4619 H       
  32 H32            5.3183     3.9596     1.7068 H       
  33 H33            4.4130     3.9893     3.2390 H       
  34 H34            3.8693     2.9448     1.9042 H       
  35 H35            3.4814     7.1938     1.5867 H       
  36 H36            4.1805     6.4727     3.0563 H       
  37 H37            5.0923     6.4389     1.5279 H       
  38 H38            1.6074     4.0018     1.9984 H       
  39 H39            2.1511     5.0463     3.3332 H       
  40 H40            1.4450     5.7695     1.8681 H       
  41 H41            4.7853     7.0707    -0.3149 H       
  42 H42            6.7950     7.5033    -1.3923 H       
  43 H43            7.2891     5.8802    -0.8540 H       
  44 H44            6.4201     6.0809    -2.3945 H       
  45 H45           -1.5199    -1.2733    -1.6096 H       
  46 H46           -2.1478    -0.5232    -0.1212 H       
  47 H47           -2.2123     1.0717    -2.6778 H       
  48 H48           -3.4184    -0.2158    -2.4502 H       
  49 H49           -3.9087     2.2417    -1.6015 H       
  50 H50           -4.4057     0.8390    -0.6324 H       
  51 H51           -1.3308     3.4109     0.3707 H       
  52 H52           -1.8729     3.1809    -1.3105 H       
  53 H53           -4.3373     1.9866     1.4437 H       
  54 H54           -2.9190     2.9748     1.8680 H       
  55 H55           -3.9971     3.4863     0.5473 H       
  56 H56            3.2089    -1.1185    -2.2725 H       
  57 H57           -0.6599    -2.5629    -1.0823 H       
  58 H58            3.2882    -3.9437    -3.9415 H       
  59 H59            4.3437    -3.4862    -2.5832 H       
  60 H60            3.3038    -4.9252    -2.4567 H       
@<TRIPOS>BOND
   1    1    2 1
   2    1    3 2
   3    1   23 1
   4    2   19 1
   5    2    5 1
   6    3    4 1
   7    3    7 1
   8    4    5 2
   9    5    6 1
  10    6   26 1
  11    6   25 2
  12    7    8 2
  13    7   10 am
  14    9   10 1
  15    9   11 1
  16    9   15 1
  17    9   30 1
  18   10   31 1
  19   11   12 1
  20   11   13 1
  21   11   14 1
  22   12   32 1
  23   12   33 1
  24   12   34 1
  25   13   35 1
  26   13   36 1
  27   13   37 1
  28   14   38 1
  29   14   39 1
  30   14   40 1
  31   15   16 am
  32   15   17 2
  33   16   18 1
  34   16   41 1
  35   18   42 1
  36   18   43 1
  37   18   44 1
  38   19   20 1
  39   19   45 1
  40   19   46 1
  41   20   21 1
  42   20   47 1
  43   20   48 1
  44   21   22 1
  45   21   49 1
  46   21   50 1
  47   22   23 1
  48   22   24 1
  49   23   51 1
  50   23   52 1
  51   24   53 1
  52   24   54 1
  53   24   55 1
  54   25   28 1
  55   25   56 1
  56   26   27 2
  57   26   57 1
  58   27   28 1
  59   28   29 1
  60   29   58 1
  61   29   59 1
  62   29   60 1

#	End of record

