#	Name: ASD08070690
#	Creating user name:	WinNT
#	Creation time:	15. 06. 2019 21:15

#	Modifying user name:	WinNT
#	Modification time:	15. 06. 2019 21:15

#	Program:	/corina/corina34_cracker 3.40 0067  02.08.2006

@<TRIPOS>MOLECULE
ASD08070690
  38   39    0    0    0
SMALL
NO_CHARGES


@<TRIPOS>ATOM
   1 C1            -0.0162     1.3410     0.0094 C.2     
   2 N2             0.0021    -0.0041     0.0020 N.am    
   3 C3             1.2637    -0.4708    -0.0125 C.2     
   4 C4             2.1916     0.6799    -0.0152 C.ar    
   5 C5             3.5709     0.8108    -0.0273 C.ar    
   6 C6             4.1413     2.0742    -0.0256 C.ar    
   7 C7             3.3438     3.2031    -0.0119 C.ar    
   8 C8             1.9626     3.0875     0.0003 C.ar    
   9 C9             1.3783     1.8310    -0.0013 C.ar    
  10 O10           -1.0118     2.0364     0.0181 O.2     
  11 O11            1.5863    -1.6416    -0.0213 O.2     
  12 C12           -1.2072    -1.7260    -1.2445 C.3     
  13 C13           -1.1944    -0.8494     0.0093 C.3     
  14 C14           -1.1825    -1.7394     1.2538 C.3     
  15 C15           -1.2954    -0.8672     2.5057 C.3     
  16 C16           -2.6570    -0.1696     2.5201 C.3     
  17 C17           -1.1583    -1.7439     3.7521 C.3     
  18 O18           -0.1035    -2.6327    -1.2031 O.3     
  19 C19           -0.0227    -3.5020    -2.3344 C.3     
  20 H20            4.1990    -0.0677    -0.0376 H       
  21 H21            5.2164     2.1772    -0.0346 H       
  22 H22            3.8001     4.1820    -0.0103 H       
  23 H23            1.3444     3.9730     0.0113 H       
  24 H24           -2.1393    -2.2897    -1.2842 H       
  25 H25           -1.1262    -1.0952    -2.1297 H       
  26 H26           -2.0841    -0.2197     0.0215 H       
  27 H27           -2.0250    -2.4299     1.2148 H       
  28 H28           -0.2509    -2.3044     1.2874 H       
  29 H29           -0.5035    -0.1182     2.4994 H       
  30 H30           -2.7375     0.4518     3.4120 H       
  31 H31           -2.7547     0.4550     1.6322 H       
  32 H32           -3.4489    -0.9185     2.5264 H       
  33 H33           -0.1883    -2.2409     3.7419 H       
  34 H34           -1.2388    -1.1225     4.6440 H       
  35 H35           -1.9502    -2.4928     3.7584 H       
  36 H36            0.8408    -4.1585    -2.2272 H       
  37 H37           -0.9302    -4.1026    -2.3967 H       
  38 H38            0.0829    -2.9080    -3.2422 H       
@<TRIPOS>BOND
   1    1    2 am
   2    1    9 1
   3    1   10 2
   4    2    3 am
   5    2   13 1
   6    3    4 1
   7    3   11 2
   8    4    5 ar
   9    4    9 ar
  10    5    6 ar
  11    5   20 1
  12    6    7 ar
  13    6   21 1
  14    7    8 ar
  15    7   22 1
  16    8    9 ar
  17    8   23 1
  18   12   18 1
  19   12   13 1
  20   12   24 1
  21   12   25 1
  22   13   14 1
  23   13   26 1
  24   14   15 1
  25   14   27 1
  26   14   28 1
  27   15   16 1
  28   15   17 1
  29   15   29 1
  30   16   30 1
  31   16   31 1
  32   16   32 1
  33   17   33 1
  34   17   34 1
  35   17   35 1
  36   18   19 1
  37   19   36 1
  38   19   37 1
  39   19   38 1

#	End of record

