#	Name: ASD02588019
#	Creating user name:	WinNT
#	Creation time:	15. 06. 2019 20:25

#	Modifying user name:	WinNT
#	Modification time:	15. 06. 2019 20:25

#	Program:	/corina/corina34_cracker 3.40 0067  02.08.2006

@<TRIPOS>MOLECULE
ASD02588019
  37   39    0    0    0
SMALL
NO_CHARGES


@<TRIPOS>ATOM
   1 C1            -0.0165     1.3644     0.0095 C.2     
   2 N2             0.0021    -0.0041     0.0020 N.pl3   
   3 N3            -1.1125    -0.6540     0.0085 N.2     
   4 C4            -2.2731    -0.0397     0.0222 C.2     
   5 N5            -2.3679     1.2969     0.0303 N.2     
   6 C6            -1.2675     2.0327     0.0303 C.2     
   7 C7             1.3047     1.8285    -0.0006 C.2     
   8 C8             2.1405     0.6862    -0.0147 C.2     
   9 C9             1.3041    -0.4319    -0.0127 C.2     
  10 N10           -1.3356     3.4122     0.0390 N.pl3   
  11 C11            1.7288     3.1962     0.0020 C.1     
  12 C12            3.5724     0.6787    -0.0280 C.1     
  13 C13           -3.5135    -0.8477     0.0285 C.2     
  14 O14           -4.5962    -0.2979     0.0412 O.2     
  15 C15           -3.4365    -2.2776     0.0196 C.1     
  16 N16            2.0652     4.2812     0.0040 N.1     
  17 N17            4.7084     0.6727    -0.0385 N.1     
  18 N18           -3.3755    -3.4119     0.0126 N.1     
  19 C19            1.7443    -1.8278    -0.0248 C.2     
  20 O20            2.9317    -2.0909    -0.0384 O.2     
  21 O21            0.8328    -2.8227    -0.0209 O.3     
  22 C22            1.3333    -4.1611    -0.0333 C.3     
  23 C23            0.1785    -5.1293    -0.0268 C.ar    
  24 C24           -0.3634    -5.5668    -1.2209 C.ar    
  25 C25           -1.4227    -6.4549    -1.2149 C.ar    
  26 C26           -1.9398    -6.9058    -0.0148 C.ar    
  27 C27           -1.3973    -6.4690     1.1793 C.ar    
  28 C28           -0.3352    -5.5843     1.1732 C.ar    
  29 H29           -2.1986     3.8551     0.0451 H       
  30 H30           -0.5205     3.9381     0.0389 H       
  31 H31            1.9327    -4.3165    -0.9304 H       
  32 H32            1.9509    -4.3263     0.8495 H       
  33 H33            0.0406    -5.2145    -2.1585 H       
  34 H34           -1.8466    -6.7962    -2.1477 H       
  35 H35           -2.7679    -7.5991    -0.0101 H       
  36 H36           -1.8016    -6.8210     2.1169 H       
  37 H37            0.0911    -5.2459     2.1060 H       
@<TRIPOS>BOND
   1    1    2 1
   2    1    7 2
   3    1    6 1
   4    2    3 1
   5    2    9 1
   6    3    4 2
   7    4    5 1
   8    4   13 1
   9    5    6 2
  10    6   10 1
  11    7    8 1
  12    7   11 1
  13    8    9 2
  14    8   12 1
  15    9   19 1
  16   10   29 1
  17   10   30 1
  18   11   16 3
  19   12   17 3
  20   13   14 2
  21   13   15 1
  22   15   18 3
  23   19   20 2
  24   19   21 1
  25   21   22 1
  26   22   23 1
  27   22   31 1
  28   22   32 1
  29   23   24 ar
  30   23   28 ar
  31   24   25 ar
  32   24   33 1
  33   25   26 ar
  34   25   34 1
  35   26   27 ar
  36   26   35 1
  37   27   28 ar
  38   27   36 1
  39   28   37 1

#	End of record

