#	Name: ASD01881201
#	Creating user name:	WinNT
#	Creation time:	15. 06. 2019 19:42

#	Modifying user name:	WinNT
#	Modification time:	15. 06. 2019 19:42

#	Program:	/corina/corina34_cracker 3.40 0067  02.08.2006

@<TRIPOS>MOLECULE
ASD01881201
  50   53    0    0    0
SMALL
NO_CHARGES


@<TRIPOS>ATOM
   1 N1             0.0644     1.3803    -0.6395 N.ar    
   2 C2             0.1103     0.0792    -0.8735 C.ar    
   3 N3             1.2233    -0.6174    -0.7092 N.ar    
   4 C4             2.3390    -0.0311    -0.3020 C.ar    
   5 C5             2.3338     1.3274    -0.0468 C.ar    
   6 C6             1.1455     2.0331    -0.2289 C.ar    
   7 C7             3.5836     2.0292     0.4184 C.3     
   8 O8             4.6498     1.0836     0.5236 O.3     
   9 C9             5.8542     1.5560     0.9334 C.ar    
  10 C10            6.9355     0.6884     1.0574 C.ar    
  11 C11            8.1535     1.1665     1.4714 C.ar    
  12 C12            8.3171     2.5234     1.7707 C.ar    
  13 C13            7.2274     3.3916     1.6446 C.ar    
  14 C14            6.0077     2.9059     1.2231 C.ar    
  15 C15            9.4939     0.5149     1.7045 C.3     
  16 N16           10.3974     1.5835     2.1459 N.am    
  17 C17            9.7140     2.7402     2.1826 C.2     
  18 O18           10.1829     3.8135     2.5091 O.2     
  19 Cl19           7.4120     5.0782     2.0122 Cl      
  20 O20            1.0944     3.3662     0.0093 O.3     
  21 C21           -0.1124     3.9845    -0.0805 C.ar    
  22 C22           -1.0439     3.8417     0.9379 C.ar    
  23 C23           -2.2697     4.4717     0.8445 C.ar    
  24 C24           -2.5688     5.2441    -0.2627 C.ar    
  25 C25           -1.6424     5.3880    -1.2789 C.ar    
  26 C26           -0.4131     4.7644    -1.1879 C.ar    
  27 C27           12.6679     1.6180     1.2377 C.3     
  28 C28           11.8117     1.4170     2.4897 C.3     
  29 O29           -1.0106    -0.5562    -1.2914 O.3     
  30 C30           -0.9089    -1.9615    -1.5302 C.3     
  31 H31            3.2425    -0.6080    -0.1704 H       
  32 H32            3.8542     2.8035    -0.2996 H       
  33 H33            3.4038     2.4839     1.3925 H       
  34 H34            6.8160    -0.3602     0.8283 H       
  35 H35            5.1664     3.5761     1.1253 H       
  36 H36            9.4100    -0.2484     2.4781 H       
  37 H37            9.8613     0.0721     0.7788 H       
  38 H38           -0.8108     3.2383     1.8028 H       
  39 H39           -2.9952     4.3606     1.6368 H       
  40 H40           -3.5279     5.7355    -0.3340 H       
  41 H41           -1.8785     5.9915    -2.1429 H       
  42 H42            0.3104     4.8774    -1.9818 H       
  43 H43           13.7202     1.4942     1.4935 H       
  44 H44           12.3881     0.8819     0.4841 H       
  45 H45           12.5054     2.6212     0.8436 H       
  46 H46           12.0915     2.1531     3.2433 H       
  47 H47           11.9742     0.4138     2.8838 H       
  48 H48           -0.1624    -2.1456    -2.3029 H       
  49 H49           -0.6119    -2.4657    -0.6107 H       
  50 H50           -1.8747    -2.3449    -1.8593 H       
@<TRIPOS>BOND
   1    1    2 ar
   2    1    6 ar
   3    2    3 ar
   4    2   29 1
   5    3    4 ar
   6    4    5 ar
   7    4   31 1
   8    5    6 ar
   9    5    7 1
  10    6   20 1
  11    7    8 1
  12    7   32 1
  13    7   33 1
  14    8    9 1
  15    9   10 ar
  16    9   14 ar
  17   10   11 ar
  18   10   34 1
  19   11   12 ar
  20   11   15 1
  21   12   13 ar
  22   12   17 1
  23   13   14 ar
  24   13   19 1
  25   14   35 1
  26   15   16 1
  27   15   36 1
  28   15   37 1
  29   16   17 am
  30   16   28 1
  31   17   18 2
  32   20   21 1
  33   21   22 ar
  34   21   26 ar
  35   22   23 ar
  36   22   38 1
  37   23   24 ar
  38   23   39 1
  39   24   25 ar
  40   24   40 1
  41   25   26 ar
  42   25   41 1
  43   26   42 1
  44   27   28 1
  45   27   43 1
  46   27   44 1
  47   27   45 1
  48   28   46 1
  49   28   47 1
  50   29   30 1
  51   30   48 1
  52   30   49 1
  53   30   50 1

#	End of record

