#	Name: ASD07300446
#	Creating user name:	WinNT
#	Creation time:	15. 06. 2019 21:09

#	Modifying user name:	WinNT
#	Modification time:	15. 06. 2019 21:09

#	Program:	/corina/corina34_cracker 3.40 0067  02.08.2006

@<TRIPOS>MOLECULE
ASD07300446
  65   67    0    0    0
SMALL
NO_CHARGES


@<TRIPOS>ATOM
   1 C1            -1.0101    -0.4463     0.7697 C.2     
   2 N2             0.0017    -0.0054    -0.0038 N.am    
   3 O3            -0.8660    -1.4441     1.4481 O.2     
   4 O4            -2.1788     0.2221     0.7951 O.3     
   5 C5             1.2560    -0.6266     0.0619 C.ar    
   6 C6             2.0358    -0.7398    -1.0813 C.ar    
   7 C7             3.2717    -1.3521    -1.0159 C.ar    
   8 C8             3.7343    -1.8543     0.1918 C.ar    
   9 C9             2.9554    -1.7419     1.3344 C.ar    
  10 C10            1.7220    -1.1243     1.2715 C.ar    
  11 O11            4.9513    -2.4572     0.2556 O.3     
  12 C12            6.0482    -1.6996     0.0255 C.2     
  13 N13            6.0407    -0.4055    -0.1626 N.2     
  14 C14            7.3107     0.0336    -0.3651 C.ar    
  15 C15            8.1517    -1.0894    -0.2927 C.ar    
  16 N16            7.3265    -2.1716    -0.0388 N.pl3   
  17 C17            7.8642     1.2926    -0.6088 C.ar    
  18 C18            9.2252     1.4207    -0.7753 C.ar    
  19 C19           10.0509     0.3088    -0.7034 C.ar    
  20 C20            9.5198    -0.9418    -0.4633 C.ar    
  21 C21            7.7474    -3.5650     0.1268 C.3     
  22 O22            7.7443    -4.2178    -1.1444 O.3     
  23 C23            8.1419    -5.5895    -1.0944 C.3     
  24 C24            8.1017    -6.1838    -2.5037 C.3     
  25 Si25           8.6200    -7.9721    -2.4385 Si      
  26 C26            7.4552    -8.9163    -1.3328 C.3     
  27 C27            8.5710    -8.6958    -4.1545 C.3     
  28 C28           10.3520    -8.0924    -1.7629 C.3     
  29 C29           -3.2241    -0.3102     1.6508 C.3     
  30 C30           -2.7334    -0.3355     3.0998 C.3     
  31 C31           -4.4672     0.5758     1.5487 C.3     
  32 C32           -3.5731    -1.7318     1.2056 C.3     
  33 H33           -0.1383     0.7420    -0.6060 H       
  34 H34            1.6756    -0.3492    -2.0216 H       
  35 H35            3.8781    -1.4405    -1.9051 H       
  36 H36            3.3157    -2.1337     2.2741 H       
  37 H37            1.1179    -1.0323     2.1620 H       
  38 H38            7.2270     2.1627    -0.6668 H       
  39 H39            9.6527     2.3944    -0.9638 H       
  40 H40           11.1166     0.4225    -0.8365 H       
  41 H41           10.1682    -1.8038    -0.4084 H       
  42 H42            8.7526    -3.5934     0.5473 H       
  43 H43            7.0577    -4.0755     0.7990 H       
  44 H44            9.1552    -5.6599    -0.6992 H       
  45 H45            7.4604    -6.1419    -0.4475 H       
  46 H46            7.0883    -6.1134    -2.8989 H       
  47 H47            8.7832    -5.6314    -3.1506 H       
  48 H48            6.4418    -8.8459    -1.7281 H       
  49 H49            7.7584    -9.9626    -1.2947 H       
  50 H50            7.4838    -8.4929    -0.3288 H       
  51 H51            9.2525    -8.1434    -4.8014 H       
  52 H52            8.8742    -9.7421    -4.1163 H       
  53 H53            7.5576    -8.6254    -4.5497 H       
  54 H54           10.3806    -7.6690    -0.7589 H       
  55 H55           10.6552    -9.1387    -1.7248 H       
  56 H56           11.0335    -7.5400    -2.4098 H       
  57 H57           -2.4848     0.6772     3.4170 H       
  58 H58           -3.5182    -0.7351     3.7422 H       
  59 H59           -1.8478    -0.9668     3.1725 H       
  60 H60           -4.8168     0.5939     0.5165 H       
  61 H61           -5.2519     0.1763     2.1911 H       
  62 H62           -4.2186     1.5886     1.8659 H       
  63 H63           -2.6874    -2.3630     1.2784 H       
  64 H64           -4.3578    -2.1314     1.8480 H       
  65 H65           -3.9226    -1.7138     0.1734 H       
@<TRIPOS>BOND
   1    1    2 am
   2    1    3 2
   3    1    4 1
   4    2    5 1
   5    2   33 1
   6    4   29 1
   7    5    6 ar
   8    5   10 ar
   9    6    7 ar
  10    6   34 1
  11    7    8 ar
  12    7   35 1
  13    8    9 ar
  14    8   11 1
  15    9   10 ar
  16    9   36 1
  17   10   37 1
  18   11   12 1
  19   12   13 2
  20   12   16 1
  21   13   14 1
  22   14   15 ar
  23   14   17 ar
  24   15   16 1
  25   15   20 ar
  26   16   21 1
  27   17   18 ar
  28   17   38 1
  29   18   19 ar
  30   18   39 1
  31   19   20 ar
  32   19   40 1
  33   20   41 1
  34   21   22 1
  35   21   42 1
  36   21   43 1
  37   22   23 1
  38   23   24 1
  39   23   44 1
  40   23   45 1
  41   24   25 1
  42   24   46 1
  43   24   47 1
  44   25   26 1
  45   25   27 1
  46   25   28 1
  47   26   48 1
  48   26   49 1
  49   26   50 1
  50   27   51 1
  51   27   52 1
  52   27   53 1
  53   28   54 1
  54   28   55 1
  55   28   56 1
  56   29   30 1
  57   29   32 1
  58   29   31 1
  59   30   57 1
  60   30   58 1
  61   30   59 1
  62   31   60 1
  63   31   61 1
  64   31   62 1
  65   32   63 1
  66   32   64 1
  67   32   65 1

#	End of record

