#	Name: ASD07300827
#	Creating user name:	WinNT
#	Creation time:	15. 06. 2019 21:10

#	Modifying user name:	WinNT
#	Modification time:	15. 06. 2019 21:10

#	Program:	/corina/corina34_cracker 3.40 0067  02.08.2006

@<TRIPOS>MOLECULE
ASD07300827
  43   47    0    0    0
SMALL
NO_CHARGES


@<TRIPOS>ATOM
   1 C1            -0.0172     1.4140     0.0098 C.2     
   2 C2             0.0021    -0.0041     0.0020 C.2     
   3 N3             1.1808     2.0893     0.0020 N.pl3   
   4 N4             1.1598    -0.6390    -0.0124 N.2     
   5 C5             2.3145     0.0264    -0.0199 C.2     
   6 C6             2.3484     1.3776    -0.0130 C.2     
   7 N7            -0.9935     2.3044     0.0292 N.2     
   8 C8            -0.4747     3.5309     0.0284 C.2     
   9 C9             0.8879     3.4248     0.0124 C.2     
  10 N10            3.5918     5.8013     0.4739 N.pl3   
  11 N11            2.8281     6.4492    -0.5044 N.2     
  12 C12            1.7930     5.7031    -0.7863 C.2     
  13 C13            1.8602     4.5416     0.0098 C.2     
  14 C14            2.9857     4.6342     0.7782 C.2     
  15 C15            4.8374     6.3009     1.0613 C.3     
  16 C16            5.8410     6.6047    -0.0529 C.3     
  17 F17            5.3077     7.5739    -0.9093 F       
  18 F18            7.0304     7.0817     0.5081 F       
  19 F19            6.1024     5.4361    -0.7764 F       
  20 C20           -2.4705    -2.8374     0.0118 C.ar    
  21 C21           -1.2650    -2.1662     0.0030 C.ar    
  22 C22           -1.2674    -0.7675     0.0105 C.ar    
  23 C23           -2.5017    -0.1094     0.0268 C.ar    
  24 C24           -3.6597    -0.8596     0.0347 C.ar    
  25 N25           -3.6128    -2.1779     0.0271 N.ar    
  26 C26           -1.2577     4.8184     0.0472 C.3     
  27 C27           -2.2221     5.0757    -1.1124 C.3     
  28 C28           -2.7679     4.7236     0.2729 C.3     
  29 H29            3.2427    -0.5257    -0.0314 H       
  30 H30            3.2966     1.8946    -0.0196 H       
  31 H31            1.0203     5.9360    -1.5039 H       
  32 H32            3.3286     3.9057     1.4980 H       
  33 H33            4.6338     7.2113     1.6250 H       
  34 H34            5.2529     5.5457     1.7286 H       
  35 H35           -2.4790    -3.9174     0.0016 H       
  36 H36           -0.3335    -2.7127    -0.0091 H       
  37 H37           -2.5475     0.9696     0.0334 H       
  38 H38           -4.6175    -0.3607     0.0472 H       
  39 H39           -0.7383     5.6784     0.4700 H       
  40 H40           -2.3376     6.1049    -1.4521 H       
  41 H41           -2.2903     4.3137    -1.8888 H       
  42 H42           -3.1952     3.7299     0.4079 H       
  43 H43           -3.2424     5.5212     0.8446 H       
@<TRIPOS>BOND
   1    1    2 1
   2    1    3 1
   3    1    7 2
   4    2    4 2
   5    2   22 1
   6    3    6 1
   7    3    9 1
   8    4    5 1
   9    5    6 2
  10    5   29 1
  11    6   30 1
  12    7    8 1
  13    8    9 2
  14    8   26 1
  15    9   13 1
  16   10   11 1
  17   10   14 1
  18   10   15 1
  19   11   12 2
  20   12   13 1
  21   12   31 1
  22   13   14 2
  23   14   32 1
  24   15   16 1
  25   15   33 1
  26   15   34 1
  27   16   17 1
  28   16   18 1
  29   16   19 1
  30   20   21 ar
  31   20   25 ar
  32   20   35 1
  33   21   22 ar
  34   21   36 1
  35   22   23 ar
  36   23   24 ar
  37   23   37 1
  38   24   25 ar
  39   24   38 1
  40   26   27 1
  41   26   28 1
  42   26   39 1
  43   27   28 1
  44   27   40 1
  45   27   41 1
  46   28   42 1
  47   28   43 1

#	End of record

