#	Name: ASD01180114
#	Creating user name:	WinNT
#	Creation time:	15. 06. 2019 19:06

#	Modifying user name:	WinNT
#	Modification time:	15. 06. 2019 19:06

#	Program:	/corina/corina34_cracker 3.40 0067  02.08.2006

@<TRIPOS>MOLECULE
ASD01180114
  53   53    0    0    0
SMALL
NO_CHARGES


@<TRIPOS>ATOM
   1 C1            -0.0184     1.5028     0.0103 C.2     
   2 C2             0.0021    -0.0041     0.0020 C.3     
   3 C3             1.4513    -0.4944    -0.0145 C.3     
   4 O4             1.0197     2.1211     0.0037 O.2     
   5 O5            -1.1898     2.1580     0.0194 O.3     
   6 N6             1.4712    -1.9592    -0.0225 N.am    
   7 C7             2.6473    -2.6171    -0.0373 C.2     
   8 C8             2.6674    -4.0954    -0.0454 C.ar    
   9 C9             3.8837    -4.7799    -0.0607 C.ar    
  10 C10            3.8954    -6.1594    -0.0677 C.ar    
  11 C11            2.7049    -6.8644    -0.0601 C.ar    
  12 C12            1.4958    -6.1920    -0.0450 C.ar    
  13 C13            1.4701    -4.8127    -0.0320 C.ar    
  14 O14            3.6916    -1.9951    -0.0439 O.2     
  15 C15            2.7254    -8.3712    -0.0689 C.3     
  16 C16            2.4957    -8.8926     1.3511 C.3     
  17 C17            2.6401   -10.4157     1.3646 C.3     
  18 C18            4.0825   -10.7943     1.0228 C.3     
  19 C19            2.2886   -10.9490     2.7550 C.3     
  20 O20            1.6915    -8.8566    -0.9276 O.3     
  21 C21           -1.1335     3.6089     0.0270 C.3     
  22 C22           -0.3989     4.0974    -1.2231 C.3     
  23 C23           -2.5551     4.1744     0.0369 C.3     
  24 C24           -0.3871     4.0838     1.2754 C.3     
  25 H25           -0.4983    -0.3791     0.8948 H       
  26 H26           -0.5153    -0.3696    -0.8850 H       
  27 H27            1.9516    -0.1193    -0.9073 H       
  28 H28            1.9686    -0.1289     0.8726 H       
  29 H29            0.6378    -2.4556    -0.0172 H       
  30 H30            4.8137    -4.2307    -0.0674 H       
  31 H31            4.8359    -6.6902    -0.0796 H       
  32 H32            0.5700    -6.7482    -0.0391 H       
  33 H33            0.5257    -4.2891    -0.0157 H       
  34 H34            3.6924    -8.7193    -0.4318 H       
  35 H35            3.2317    -8.4519     2.0234 H       
  36 H36            1.4932    -8.6197     1.6806 H       
  37 H37            1.9657   -10.8512     0.6273 H       
  38 H38            4.7569   -10.3589     1.7601 H       
  39 H39            4.1854   -11.8794     1.0324 H       
  40 H40            4.3329   -10.4145     0.0323 H       
  41 H41            1.2610   -10.6792     2.9985 H       
  42 H42            2.3915   -12.0341     2.7646 H       
  43 H43            2.9631   -10.5135     3.4923 H       
  44 H44            0.8016    -8.5848    -0.6643 H       
  45 H45           -0.9307     3.7591    -2.1124 H       
  46 H46           -0.3567     5.1865    -1.2173 H       
  47 H47            0.6139     3.6945    -1.2301 H       
  48 H48           -3.0784     3.8265     0.9275 H       
  49 H49           -2.5128     5.2636     0.0426 H       
  50 H50           -3.0869     3.8361    -0.8525 H       
  51 H51            0.6257     3.6809     1.2684 H       
  52 H52           -0.3448     5.1730     1.2811 H       
  53 H53           -0.9104     3.7358     2.1659 H       
@<TRIPOS>BOND
   1    1    2 1
   2    1    4 2
   3    1    5 1
   4    2    3 1
   5    2   25 1
   6    2   26 1
   7    3    6 1
   8    3   27 1
   9    3   28 1
  10    5   21 1
  11    6    7 am
  12    6   29 1
  13    7    8 1
  14    7   14 2
  15    8    9 ar
  16    8   13 ar
  17    9   10 ar
  18    9   30 1
  19   10   11 ar
  20   10   31 1
  21   11   12 ar
  22   11   15 1
  23   12   13 ar
  24   12   32 1
  25   13   33 1
  26   15   16 1
  27   15   20 1
  28   15   34 1
  29   16   17 1
  30   16   35 1
  31   16   36 1
  32   17   18 1
  33   17   19 1
  34   17   37 1
  35   18   38 1
  36   18   39 1
  37   18   40 1
  38   19   41 1
  39   19   42 1
  40   19   43 1
  41   20   44 1
  42   21   22 1
  43   21   24 1
  44   21   23 1
  45   22   45 1
  46   22   46 1
  47   22   47 1
  48   23   48 1
  49   23   49 1
  50   23   50 1
  51   24   51 1
  52   24   52 1
  53   24   53 1

#	End of record

