#	Name: ASD01230064
#	Creating user name:	WinNT
#	Creation time:	15. 06. 2019 19:11

#	Modifying user name:	WinNT
#	Modification time:	15. 06. 2019 19:11

#	Program:	/corina/corina34_cracker 3.40 0067  02.08.2006

@<TRIPOS>MOLECULE
ASD01230064
  43   46    0    0    0
SMALL
NO_CHARGES


@<TRIPOS>ATOM
   1 C1            -0.0167     1.3804     0.0096 C.ar    
   2 C2             0.0021    -0.0041     0.0020 C.ar    
   3 C3             1.2077    -0.6847    -0.0132 C.ar    
   4 C4             2.3972     0.0143    -0.0208 C.ar    
   5 C5             2.3837     1.4082    -0.0132 C.ar    
   6 C6             1.1673     2.0887     0.0021 C.ar    
   7 Cl7           -1.4911    -0.8895     0.0122 Cl      
   8 C8             3.6592     2.1646    -0.0209 C.ar    
   9 N9             4.8248     1.5233    -0.0351 N.ar    
  10 C10            5.9645     2.1963    -0.0424 C.ar    
  11 N11            5.9912     3.5214    -0.0356 N.ar    
  12 C12            4.8714     4.2251    -0.0215 C.ar    
  13 C13            3.6555     3.5627    -0.0192 C.ar    
  14 C14            7.2473     1.4468    -0.0582 C.2     
  15 N15            8.4855     1.9825    -0.0672 N.2     
  16 N16            7.3842     0.1464    -0.0603 N.2     
  17 O17            8.5591    -0.1539    -0.0742 O.3     
  18 C18            9.3142     0.9556    -0.0796 C.2     
  19 C19           10.7913     1.0158    -0.0968 C.ar    
  20 C20           11.4425     2.2505    -0.1011 C.ar    
  21 C21           12.8209     2.2997    -0.1166 C.ar    
  22 C22           13.5580     1.1286    -0.1283 C.ar    
  23 C23           12.9188    -0.0982    -0.1242 C.ar    
  24 C24           11.5406    -0.1614    -0.1029 C.ar    
  25 S25           13.8668    -1.5834    -0.1398 S.o2    
  26 N26           14.1495    -2.0011     1.4375 N.am    
  27 O27           13.0228    -2.5925    -0.6770 O.2     
  28 O28           15.1295    -1.2476    -0.6985 O.2     
  29 C29            4.9184     5.7314    -0.0139 C.3     
  30 F30            6.2451     6.1572    -0.1388 F       
  31 F31            4.1668     6.2268    -1.0848 F       
  32 F32            4.3867     6.2084     1.1891 F       
  33 H33           -0.9597     1.9067     0.0170 H       
  34 H34            1.2171    -1.7647    -0.0187 H       
  35 H35            3.3371    -0.5175    -0.0324 H       
  36 H36            1.1516     3.1686     0.0077 H       
  37 H37            2.7263     4.1130    -0.0082 H       
  38 H38           10.8683     3.1652    -0.0926 H       
  39 H39           13.3260     3.2543    -0.1199 H       
  40 H40           14.6370     1.1726    -0.1412 H       
  41 H41           11.0428    -1.1198    -0.0993 H       
  42 H42           13.8037    -1.4478     2.1552 H       
  43 H43           14.6611    -2.7990     1.6437 H       
@<TRIPOS>BOND
   1    1    2 ar
   2    1    6 ar
   3    1   33 1
   4    2    3 ar
   5    2    7 1
   6    3    4 ar
   7    3   34 1
   8    4    5 ar
   9    4   35 1
  10    5    6 ar
  11    5    8 1
  12    6   36 1
  13    8    9 ar
  14    8   13 ar
  15    9   10 ar
  16   10   11 ar
  17   10   14 1
  18   11   12 ar
  19   12   29 1
  20   12   13 ar
  21   13   37 1
  22   14   15 1
  23   14   16 2
  24   15   18 2
  25   16   17 1
  26   17   18 1
  27   18   19 1
  28   19   20 ar
  29   19   24 ar
  30   20   21 ar
  31   20   38 1
  32   21   22 ar
  33   21   39 1
  34   22   23 ar
  35   22   40 1
  36   23   24 ar
  37   23   25 1
  38   24   41 1
  39   25   26 am
  40   25   27 2
  41   25   28 2
  42   26   42 1
  43   26   43 1
  44   29   30 1
  45   29   31 1
  46   29   32 1

#	End of record

