#	Name: ASD01150433
#	Creating user name:	WinNT
#	Creation time:	15. 06. 2019 19:04

#	Modifying user name:	WinNT
#	Modification time:	15. 06. 2019 19:04

#	Program:	/corina/corina34_cracker 3.40 0067  02.08.2006

@<TRIPOS>MOLECULE
ASD01150433
  45   47    0    0    0
SMALL
NO_CHARGES


@<TRIPOS>ATOM
   1 C1             2.0457     1.4039    -0.8417 C.ar    
   2 C2             2.0583     0.0232    -0.8467 C.ar    
   3 C3             1.2083    -0.6808    -0.0131 C.ar    
   4 C4             0.3433    -0.0051     0.8278 C.ar    
   5 C5             0.3253     1.3760     0.8375 C.ar    
   6 C6             1.1779     2.0860     0.0020 C.ar    
   7 N7             1.1625     3.4851     0.0097 N.am    
   8 C8             2.3215     4.1600     0.1046 C.2     
   9 N9             2.3436     5.5059     0.1145 N.am    
  10 C10            1.1907     6.2013     0.0282 C.2     
  11 C11           -0.0805     5.4689    -0.0759 C.2     
  12 N12           -0.0589     4.1622    -0.0875 N.2     
  13 O13            1.2024     7.4182     0.0368 O.2     
  14 C14            3.6206     6.2161     0.2194 C.3     
  15 O15            3.3673     3.5443     0.1834 O.2     
  16 C16            4.1702     6.4681    -1.1610 C.ar    
  17 C17            3.8429     7.6309    -1.8333 C.ar    
  18 C18            4.3466     7.8626    -3.0994 C.ar    
  19 C19            5.1785     6.9306    -3.6939 C.ar    
  20 C20            5.5057     5.7670    -3.0205 C.ar    
  21 C21            5.0059     5.5391    -1.7522 C.ar    
  22 O22           -1.2582     6.1403    -0.1643 O.3     
  23 C23           -2.4474     5.3540    -0.2623 C.3     
  24 Cl24           5.8111     7.2206    -5.2843 Cl      
  25 C25            2.9989    -0.7176    -1.7619 C.3     
  26 O26            4.2378    -0.9466    -1.0876 O.3     
  27 C27            5.2058    -1.6464    -1.8720 C.3     
  28 H28            2.7128     1.9530    -1.4896 H       
  29 H29            1.2199    -1.7607    -0.0193 H       
  30 H30           -0.3191    -0.5577     1.4775 H       
  31 H31           -0.3510     1.9032     1.4940 H       
  32 H32            3.4665     7.1676     0.7284 H       
  33 H33            4.3275     5.6108     0.7869 H       
  34 H34            3.1933     8.3582    -1.3693 H       
  35 H35            4.0906     8.7709    -3.6246 H       
  36 H36            6.1550     5.0391    -3.4841 H       
  37 H37            5.2612     4.6309    -1.2265 H       
  38 H38           -3.3139     6.0121    -0.3264 H       
  39 H39           -2.3981     4.7303    -1.1549 H       
  40 H40           -2.5373     4.7197     0.6196 H       
  41 H41            2.5558    -1.6731    -2.0423 H       
  42 H42            3.1775    -0.1230    -2.6579 H       
  43 H43            6.1173    -1.7806    -1.2894 H       
  44 H44            4.8085    -2.6212    -2.1546 H       
  45 H45            5.4302    -1.0711    -2.7702 H       
@<TRIPOS>BOND
   1    1    2 ar
   2    1    6 ar
   3    1   28 1
   4    2    3 ar
   5    2   25 1
   6    3    4 ar
   7    3   29 1
   8    4    5 ar
   9    4   30 1
  10    5    6 ar
  11    5   31 1
  12    6    7 1
  13    7    8 am
  14    7   12 1
  15    8    9 am
  16    8   15 2
  17    9   10 am
  18    9   14 1
  19   10   11 1
  20   10   13 2
  21   11   12 2
  22   11   22 1
  23   14   16 1
  24   14   32 1
  25   14   33 1
  26   16   17 ar
  27   16   21 ar
  28   17   18 ar
  29   17   34 1
  30   18   19 ar
  31   18   35 1
  32   19   20 ar
  33   19   24 1
  34   20   21 ar
  35   20   36 1
  36   21   37 1
  37   22   23 1
  38   23   38 1
  39   23   39 1
  40   23   40 1
  41   25   26 1
  42   25   41 1
  43   25   42 1
  44   26   27 1
  45   27   43 1
  46   27   44 1
  47   27   45 1

#	End of record

