#	Name: ASD01700008
#	Creating user name:	WinNT
#	Creation time:	15. 06. 2019 19:22

#	Modifying user name:	WinNT
#	Modification time:	15. 06. 2019 19:22

#	Program:	/corina/corina34_cracker 3.40 0067  02.08.2006

@<TRIPOS>MOLECULE
ASD01700008
  39   40    0    0    0
SMALL
NO_CHARGES


@<TRIPOS>ATOM
   1 C1            -0.0169     1.3937     0.0097 C.ar    
   2 C2             0.0021    -0.0041     0.0020 C.ar    
   3 C3            -1.2032    -0.7065     0.0044 C.ar    
   4 C4            -2.4134    -0.0269     0.0142 C.ar    
   5 C5            -2.4223     1.3517     0.0333 C.ar    
   6 C6            -1.2250     2.0566     0.0306 C.ar    
   7 C7            -3.6737    -0.8514    -0.0125 C.3     
   8 C8            -4.8664    -0.0386     0.4883 C.3     
   9 N9            -4.8432     1.2664    -0.1926 N.am    
  10 C10           -3.7029     2.1480     0.0782 C.3     
  11 Cl11           1.4709     2.2881     0.0003 Cl      
  12 C12            1.2865    -0.7306    -0.0090 C.2     
  13 O13            1.8210    -1.0353     1.0385 O.2     
  14 O14            1.8664    -1.0559    -1.1808 O.3     
  15 Cl15          -1.1893    -2.4424    -0.0055 Cl      
  16 O16           -5.7826     2.8360    -1.6409 O.3     
  17 C17           -6.8802     3.1677    -2.5317 C.3     
  18 C18           -8.1943     3.1566    -1.7480 C.3     
  19 C19           -6.6524     4.5591    -3.1257 C.3     
  20 C20           -6.9506     2.1367    -3.6600 C.3     
  21 C21           -5.8307     1.6361    -1.0321 C.2     
  22 O22           -6.7642     0.8865    -1.2395 O.2     
  23 H23           -1.2412     3.1365     0.0369 H       
  24 H24           -3.8665    -1.1785    -1.0342 H       
  25 H25           -3.5433    -1.7262     0.6246 H       
  26 H26           -5.7936    -0.5610     0.2528 H       
  27 H27           -4.7875     0.1063     1.5658 H       
  28 H28           -3.8172     2.5957     1.0654 H       
  29 H29           -3.6668     2.9356    -0.6744 H       
  30 H30            2.7071    -1.5316    -1.1374 H       
  31 H31           -8.1441     3.8910    -0.9442 H       
  32 H32           -9.0182     3.4055    -2.4168 H       
  33 H33           -8.3566     2.1653    -1.3249 H       
  34 H34           -5.7163     4.5670    -3.6840 H       
  35 H35           -7.4764     4.8081    -3.7944 H       
  36 H36           -6.6023     5.2936    -2.3218 H       
  37 H37           -7.1129     1.1454    -3.2369 H       
  38 H38           -7.7746     2.3857    -4.3288 H       
  39 H39           -6.0145     2.1447    -4.2183 H       
@<TRIPOS>BOND
   1    1    2 ar
   2    1   11 1
   3    1    6 ar
   4    2    3 ar
   5    2   12 1
   6    3    4 ar
   7    3   15 1
   8    4    5 ar
   9    4    7 1
  10    5    6 ar
  11    5   10 1
  12    6   23 1
  13    7    8 1
  14    7   24 1
  15    7   25 1
  16    8    9 1
  17    8   26 1
  18    8   27 1
  19    9   10 1
  20    9   21 am
  21   10   28 1
  22   10   29 1
  23   12   13 2
  24   12   14 1
  25   14   30 1
  26   16   17 1
  27   16   21 1
  28   17   18 1
  29   17   19 1
  30   17   20 1
  31   18   31 1
  32   18   32 1
  33   18   33 1
  34   19   34 1
  35   19   35 1
  36   19   36 1
  37   20   37 1
  38   20   38 1
  39   20   39 1
  40   21   22 2

#	End of record

