#	Name: ASD02500715
#	Creating user name:	WinNT
#	Creation time:	15. 06. 2019 20:23

#	Modifying user name:	WinNT
#	Modification time:	15. 06. 2019 20:23

#	Program:	/corina/corina34_cracker 3.40 0067  02.08.2006

@<TRIPOS>MOLECULE
ASD02500715
  68   72    0    0    0
SMALL
NO_CHARGES


@<TRIPOS>ATOM
   1 N1            -3.4480     5.5855    -0.0543 N.ar    
   2 C2            -4.5701     6.2275    -0.2706 C.ar    
   3 C3            -5.6904     6.0382     0.5359 C.ar    
   4 C4            -5.6361     5.1641     1.5839 C.ar    
   5 C5            -4.4294     4.4760     1.8130 C.ar    
   6 C6            -4.2981     3.5625     2.8709 C.ar    
   7 C7            -3.1140     2.9171     3.0596 C.ar    
   8 C8            -2.0299     3.1516     2.2166 C.ar    
   9 C9            -2.1222     4.0305     1.1815 C.ar    
  10 C10           -3.3280     4.7161     0.9542 C.ar    
  11 S11           -0.7352     4.3085     0.1310 S.o2    
  12 O12           -0.5617     5.7171     0.0599 O.2     
  13 O13            0.2843     3.4210     0.5692 O.2     
  14 N14           -1.1648     3.8130    -1.3896 N.am    
  15 C15           -1.3891     2.4620    -1.6445 C.ar    
  16 C16           -1.0701     1.9260    -2.8939 C.ar    
  17 C17           -1.2919     0.5878    -3.1472 C.ar    
  18 C18           -1.8362    -0.2288    -2.1508 C.ar    
  19 C19           -2.1534     0.3131    -0.9027 C.ar    
  20 C20           -1.9247     1.6484    -0.6529 C.ar    
  21 O21           -0.5412     2.7229    -3.8611 O.3     
  22 C22           -0.2390     2.1078    -5.1150 C.3     
  23 C23           -2.0755    -1.6599    -2.4173 C.2     
  24 O24           -2.5224    -2.0117    -3.4921 O.2     
  25 N25           -1.7989    -2.5773    -1.4696 N.am    
  26 C26           -1.9337    -3.9412    -1.7858 C.3     
  27 C27           -2.9463    -4.6224    -0.8304 C.3     
  28 N28           -2.3322    -4.7513     0.4753 N.3     
  29 C29           -2.6251    -3.6540     1.4205 C.3     
  30 C30           -2.5500    -2.2652     0.7882 C.3     
  31 C31           -1.3589    -2.1151    -0.1374 C.3     
  32 C32           -2.6376    -6.0575     1.0741 C.3     
  33 C33           -1.9859    -7.1471     0.2622 C.ar    
  34 C34           -0.7045    -7.5652     0.5690 C.ar    
  35 C35           -0.1066    -8.5646    -0.1758 C.ar    
  36 C36           -0.7904    -9.1462    -1.2271 C.ar    
  37 C37           -2.0721    -8.7287    -1.5333 C.ar    
  38 C38           -2.6716    -7.7323    -0.7858 C.ar    
  39 H39           -4.6277     6.9219    -1.0958 H       
  40 H40           -6.6009     6.5825     0.3328 H       
  41 H41           -6.4948     5.0054     2.2194 H       
  42 H42           -5.1313     3.3730     3.5314 H       
  43 H43           -3.0139     2.2145     3.8736 H       
  44 H44           -1.1010     2.6277     2.3875 H       
  45 H45           -1.2603     4.4635    -2.1028 H       
  46 H46           -1.0460     0.1719    -4.1131 H       
  47 H47           -2.5741    -0.3159    -0.1322 H       
  48 H48           -2.1663     2.0649     0.3138 H       
  49 H49           -1.1503     1.6914    -5.5444 H       
  50 H50            0.1755     2.8525    -5.7945 H       
  51 H51            0.4882     1.3102    -4.9626 H       
  52 H52           -2.2859    -4.0393    -2.8126 H       
  53 H53           -0.9642    -4.4302    -1.6904 H       
  54 H54           -3.8454    -4.0110    -0.7533 H       
  55 H55           -3.2035    -5.6101    -1.2131 H       
  56 H56           -3.6270    -3.7996     1.8242 H       
  57 H57           -1.9108    -3.7019     2.2425 H       
  58 H58           -3.4637    -2.0857     0.2216 H       
  59 H59           -2.4765    -1.5203     1.5806 H       
  60 H60           -0.5313    -2.7303     0.2156 H       
  61 H61           -1.0522    -1.0704    -0.1883 H       
  62 H62           -2.2562    -6.0874     2.0947 H       
  63 H63           -3.7170    -6.2088     1.0850 H       
  64 H64           -0.1703    -7.1108     1.3903 H       
  65 H65            0.8948    -8.8907     0.0634 H       
  66 H66           -0.3230    -9.9265    -1.8094 H       
  67 H67           -2.6061    -9.1829    -2.3548 H       
  68 H68           -3.6744    -7.4087    -1.0227 H       
@<TRIPOS>BOND
   1    1    2 ar
   2    1   10 ar
   3    2    3 ar
   4    2   39 1
   5    3    4 ar
   6    3   40 1
   7    4    5 ar
   8    4   41 1
   9    5    6 ar
  10    5   10 ar
  11    6    7 ar
  12    6   42 1
  13    7    8 ar
  14    7   43 1
  15    8    9 ar
  16    8   44 1
  17    9   10 ar
  18    9   11 1
  19   11   12 2
  20   11   13 2
  21   11   14 am
  22   14   15 1
  23   14   45 1
  24   15   16 ar
  25   15   20 ar
  26   16   17 ar
  27   16   21 1
  28   17   18 ar
  29   17   46 1
  30   18   19 ar
  31   18   23 1
  32   19   20 ar
  33   19   47 1
  34   20   48 1
  35   21   22 1
  36   22   49 1
  37   22   50 1
  38   22   51 1
  39   23   24 2
  40   23   25 am
  41   25   26 1
  42   25   31 1
  43   26   27 1
  44   26   52 1
  45   26   53 1
  46   27   28 1
  47   27   54 1
  48   27   55 1
  49   28   29 1
  50   28   32 1
  51   29   30 1
  52   29   56 1
  53   29   57 1
  54   30   31 1
  55   30   58 1
  56   30   59 1
  57   31   60 1
  58   31   61 1
  59   32   33 1
  60   32   62 1
  61   32   63 1
  62   33   34 ar
  63   33   38 ar
  64   34   35 ar
  65   34   64 1
  66   35   36 ar
  67   35   65 1
  68   36   37 ar
  69   36   66 1
  70   37   38 ar
  71   37   67 1
  72   38   68 1

#	End of record

