#	Name: ASD01903075
#	Creating user name:	WinNT
#	Creation time:	15. 06. 2019 19:54

#	Modifying user name:	WinNT
#	Modification time:	15. 06. 2019 19:54

#	Program:	/corina/corina34_cracker 3.40 0067  02.08.2006

@<TRIPOS>MOLECULE
ASD01903075
  29   31    0    0    0
SMALL
NO_CHARGES


@<TRIPOS>ATOM
   1 C1            -0.0160     1.2944     0.0210 C.2     
   2 N2             0.0004    -0.0032     0.0040 N.2     
   3 C3            -1.1729    -0.6194     0.0265 C.2     
   4 C4            -2.2469     0.1860     0.0645 C.2     
   5 S5            -1.6842     1.8558     0.0782 S.3     
   6 C6            -1.2918    -2.1001     0.0103 C.2     
   7 N7             1.1051     2.1111     0.0028 N.pl3   
   8 C8            -2.2694    -2.8633     0.6769 C.2     
   9 N9            -2.0437    -4.1253     0.4221 N.2     
  10 N10           -0.9218    -4.2169    -0.4107 N.pl3   
  11 C11           -0.4775    -2.9664    -0.6577 C.2     
  12 C12            0.9587     3.4915    -0.0934 C.ar    
  13 N13           -0.2454     4.0126    -0.2730 N.ar    
  14 C14           -0.4277     5.3168    -0.3689 C.ar    
  15 C15            0.6409     6.1894    -0.2845 C.ar    
  16 C16            1.9193     5.6822    -0.0964 C.ar    
  17 C17            2.0778     4.3116     0.0057 C.ar    
  18 Cl18          -2.0294     5.9434    -0.6047 Cl      
  19 C19           -3.6856    -0.2614     0.0959 C.3     
  20 H20            1.9910     1.7200     0.0572 H       
  21 H21           -3.0670    -2.4737     1.2921 H       
  22 H22           -0.5334    -5.0369    -0.7538 H       
  23 H23            0.3730    -2.7005    -1.2679 H       
  24 H24            0.4829     7.2548    -0.3644 H       
  25 H25            2.7707     6.3430    -0.0272 H       
  26 H26            3.0584     3.8836     0.1523 H       
  27 H27           -4.0060    -0.3824     1.1307 H       
  28 H28           -4.3096     0.4870    -0.3925 H       
  29 H29           -3.7818    -1.2126    -0.4278 H       
@<TRIPOS>BOND
   1    1    2 2
   2    1    7 1
   3    1    5 1
   4    2    3 1
   5    3    4 2
   6    3    6 1
   7    4    5 1
   8    4   19 1
   9    6    8 1
  10    6   11 2
  11    7   12 1
  12    7   20 1
  13    8    9 2
  14    8   21 1
  15    9   10 1
  16   10   11 1
  17   10   22 1
  18   11   23 1
  19   12   13 ar
  20   12   17 ar
  21   13   14 ar
  22   14   15 ar
  23   14   18 1
  24   15   16 ar
  25   15   24 1
  26   16   17 ar
  27   16   25 1
  28   17   26 1
  29   19   27 1
  30   19   28 1
  31   19   29 1

#	End of record

