#	Name: ASD02038777
#	Creating user name:	WinNT
#	Creation time:	15. 06. 2019 20:17

#	Modifying user name:	WinNT
#	Modification time:	15. 06. 2019 20:17

#	Program:	/corina/corina34_cracker 3.40 0067  02.08.2006

@<TRIPOS>MOLECULE
ASD02038777
  44   46    0    0    0
SMALL
NO_CHARGES


@<TRIPOS>ATOM
   1 C1             0.0346     1.3252    -0.8046 C.2     
   2 C2             0.0152    -0.1264    -0.5536 C.2     
   3 N3             1.1664    -0.8272    -0.5620 N.am    
   4 C4             1.1642    -2.2440    -0.1895 C.3     
   5 O5             1.1542    -3.0472    -1.3714 O.3     
   6 C6             2.4200    -0.1720    -0.9435 C.3     
   7 O7            -1.0397    -0.6924    -0.3389 O.2     
   8 N8             1.1389     2.1101    -0.8898 N.2     
   9 C9             0.7672     3.3363    -1.1197 C.2     
  10 N10           -0.5888     3.3815    -1.1902 N.pl3   
  11 C11           -1.0537     2.1244    -0.9996 C.2     
  12 C12            2.3553    -3.3042    -1.9528 C.ar    
  13 C13            2.4166    -4.0539    -3.1184 C.ar    
  14 C14            2.2353     0.5468    -2.2835 C.3     
  15 C15            3.5249     1.2931    -2.6353 C.3     
  16 O16            3.8447     2.2095    -1.5864 O.3     
  17 C17            4.0749     1.5892    -0.3198 C.3     
  18 C18            2.8074     0.8548     0.1251 C.3     
  19 C19           -1.4017     4.5754    -1.4349 C.3     
  20 C20            3.6386    -4.3138    -3.7085 C.ar    
  21 C21            4.8003    -3.8276    -3.1386 C.ar    
  22 C22            4.7425    -3.0797    -1.9755 C.ar    
  23 C23            3.5215    -2.8123    -1.3848 C.ar    
  24 Cl24           6.2033    -2.4709    -1.2619 Cl      
  25 H25            2.0571    -2.4677     0.3942 H       
  26 H26            0.2772    -2.4619     0.4054 H       
  27 H27            3.2083    -0.9191    -1.0361 H       
  28 H28            1.4297     4.1813    -1.2355 H       
  29 H29           -2.0883     1.8149    -0.9953 H       
  30 H30            1.5095    -4.4346    -3.5642 H       
  31 H31            2.0135    -0.1839    -3.0613 H       
  32 H32            1.4128     1.2578    -2.2051 H       
  33 H33            4.3384     0.5774    -2.7533 H       
  34 H34            3.3849     1.8414    -3.5669 H       
  35 H35            4.8956     0.8773    -0.4075 H       
  36 H36            4.3312     2.3507     0.4167 H       
  37 H37            1.9965     1.5719     0.2521 H       
  38 H38            2.9948     0.3443     1.0698 H       
  39 H39           -1.5570     4.6958    -2.5070 H       
  40 H40           -2.3658     4.4666    -0.9380 H       
  41 H41           -0.8872     5.4522    -1.0416 H       
  42 H42            3.6863    -4.8978    -4.6157 H       
  43 H43            5.7544    -4.0319    -3.6014 H       
  44 H44            3.4763    -2.2284    -0.4774 H       
@<TRIPOS>BOND
   1    1    2 1
   2    1    8 1
   3    1   11 2
   4    2    3 am
   5    2    7 2
   6    3    4 1
   7    3    6 1
   8    4    5 1
   9    4   25 1
  10    4   26 1
  11    5   12 1
  12    6   14 1
  13    6   18 1
  14    6   27 1
  15    8    9 2
  16    9   10 1
  17    9   28 1
  18   10   11 1
  19   10   19 1
  20   11   29 1
  21   12   13 ar
  22   12   23 ar
  23   13   20 ar
  24   13   30 1
  25   14   15 1
  26   14   31 1
  27   14   32 1
  28   15   16 1
  29   15   33 1
  30   15   34 1
  31   16   17 1
  32   17   18 1
  33   17   35 1
  34   17   36 1
  35   18   37 1
  36   18   38 1
  37   19   39 1
  38   19   40 1
  39   19   41 1
  40   20   21 ar
  41   20   42 1
  42   21   22 ar
  43   21   43 1
  44   22   23 ar
  45   22   24 1
  46   23   44 1

#	End of record

