#	Name: ASD01420018
#	Creating user name:	WinNT
#	Creation time:	15. 06. 2019 19:20

#	Modifying user name:	WinNT
#	Modification time:	15. 06. 2019 19:20

#	Program:	/corina/corina34_cracker 3.40 0067  02.08.2006

@<TRIPOS>MOLECULE
ASD01420018
  18   19    0    0    0
SMALL
NO_CHARGES


@<TRIPOS>ATOM
   1 C1            -0.0180     1.4763     0.0102 C.3     
   2 N2             0.0021    -0.0041     0.0020 N.3     
   3 C3             1.2740    -0.3385    -0.6780 C.3     
   4 C4             2.1991     0.8269    -0.4100 C.ar    
   5 C5             3.5714     0.9536    -0.5069 C.ar    
   6 C6             4.1791     2.1568    -0.1959 C.ar    
   7 C7             3.4118     3.2335     0.2125 C.ar    
   8 C8             2.0391     3.1064     0.3094 C.ar    
   9 C9             1.4319     1.9045    -0.0014 C.ar    
  10 Cl10           5.9035     2.3156    -0.3172 Cl      
  11 H11           -0.5283     1.8508    -0.8772 H       
  12 H12           -0.5112     1.8412     0.9111 H       
  13 H13           -0.0129    -0.3711     0.9418 H       
  14 H14            1.6931    -1.2551    -0.2630 H       
  15 H15            1.1098    -0.4502    -1.7498 H       
  16 H16            4.1700     0.1129    -0.8253 H       
  17 H17            3.8857     4.1730     0.4558 H       
  18 H18            1.4405     3.9469     0.6281 H       
@<TRIPOS>BOND
   1    1    2 1
   2    1    9 1
   3    1   11 1
   4    1   12 1
   5    2    3 1
   6    2   13 1
   7    3    4 1
   8    3   14 1
   9    3   15 1
  10    4    5 ar
  11    4    9 ar
  12    5    6 ar
  13    5   16 1
  14    6    7 ar
  15    6   10 1
  16    7    8 ar
  17    7   17 1
  18    8    9 ar
  19    8   18 1

#	End of record

