#	Name: ASD06550001
#	Creating user name:	WinNT
#	Creation time:	15. 06. 2019 21:06

#	Modifying user name:	WinNT
#	Modification time:	15. 06. 2019 21:06

#	Program:	/corina/corina34_cracker 3.40 0067  02.08.2006

@<TRIPOS>MOLECULE
ASD06550001
 131  133    0    0    0
SMALL
NO_CHARGES


@<TRIPOS>ATOM
   1 C1            -1.8279    -1.1968     0.5178 C.3     
   2 C2            -0.8216    -2.8431    -1.0398 C.2     
   3 C3            -5.7584     3.9115     6.4933 C.3     
   4 C4            -4.7389     2.2627     4.9170 C.3     
   5 C5            -3.8667     2.1007     3.6704 C.3     
   6 C6            -2.8473     0.4520     2.0941 C.3     
   7 C7            -5.9055     5.3983     6.8231 C.3     
   8 C8            -6.9249     7.0470     8.3994 C.3     
   9 C9            -8.8166     8.8578    11.2223 C.3     
  10 C10           -7.9443     8.6958     9.9757 C.3     
  11 C11           -7.7972     7.2090     9.6460 C.3     
  12 N12           18.4517     0.6019    -4.3450 N.ar    
  13 C13           18.5947     0.1499    -5.5777 C.ar    
  14 N14           18.1330    -1.0224    -5.9583 N.ar    
  15 C15           17.4934    -1.8100    -5.0996 C.ar    
  16 C16           17.3154    -1.3745    -3.7759 C.ar    
  17 C17           17.8262    -0.1152    -3.4173 C.ar    
  18 N18           17.6809     0.3670    -2.1284 N.pl3   
  19 N19           16.6427    -2.3512    -3.1212 N.2     
  20 C20           16.4023    -3.3346    -3.9391 C.2     
  21 N21           16.9075    -3.0485    -5.1724 N.pl3   
  22 C22           16.8372    -3.9059    -6.3582 C.3     
  23 C23           18.0905    -4.8047    -6.4469 C.3     
  24 O24           19.0441    -4.2463    -7.3529 O.3     
  25 C25           17.5516    -6.1479    -6.9881 C.3     
  26 O26           18.1560    -6.4599    -8.2448 O.3     
  27 P27           18.9991    -7.8072    -8.5019 P.3     
  28 O28           18.0249    -9.0826    -8.3743 O.3     
  29 O29           19.6390    -7.7663    -9.9787 O.3     
  30 O30           20.0816    -7.9109    -7.4979 O.2     
  31 C31           16.0366    -5.9017    -7.1623 C.3     
  32 O32           15.7299    -4.8265    -6.2480 O.3     
  33 C33           15.2466    -7.1582    -6.7910 C.3     
  34 O34           13.8606    -6.9490    -7.0690 O.3     
  35 P35           12.7337    -8.0667    -6.7992 P.3     
  36 O36           12.6270    -8.3505    -5.2180 O.3     
  37 O37           13.1008    -9.3169    -7.5011 O.2     
  38 O38           11.3141    -7.5407    -7.3470 O.3     
  39 P39            9.9038    -8.2510    -7.6614 P.3     
  40 O40            9.0893    -8.4582    -6.2882 O.3     
  41 O41           10.1445    -9.5664    -8.2956 O.2     
  42 O42            9.0462    -7.3231    -8.6592 O.3     
  43 C43            7.2491    -6.6137   -10.1109 C.3     
  44 C44            7.7901    -7.7250    -9.2092 C.3     
  45 C45            7.0609    -5.3367    -9.2895 C.3     
  46 C46            8.2412    -6.3489   -11.2452 C.3     
  47 C47            5.9041    -7.0440   -10.6998 C.3     
  48 O48            6.0951    -8.1835   -11.5408 O.3     
  49 C49            4.9566    -7.3975    -9.5826 C.2     
  50 O50            4.6461    -8.5546    -9.3940 O.2     
  51 N51            4.4542    -6.4277    -8.7929 N.am    
  52 C52            3.6195    -6.7796    -7.6415 C.3     
  53 C53            3.1826    -5.5035    -6.9193 C.3     
  54 C54            2.3240    -5.8655    -5.7349 C.2     
  55 O55            2.0851    -7.0296    -5.4923 O.2     
  56 N56            1.8217    -4.8957    -4.9452 N.am    
  57 C57            0.9870    -5.2477    -3.7938 C.3     
  58 C58            0.5501    -3.9716    -3.0716 C.3     
  59 S59           -0.4812    -4.4064    -1.6491 S.3     
  60 O60           -0.3712    -1.8637    -1.5965 O.2     
  61 C61           -1.6807    -2.6835     0.1880 C.3     
  62 C62           -2.7001    -1.0348     1.7643 C.3     
  63 C63           -3.7195     0.6140     3.3407 C.3     
  64 C64           -4.8861     3.7495     5.2468 C.3     
  65 C65           -6.7778     5.5603     8.0696 C.3     
  66 H66           -0.8438    -0.7669     0.7046 H       
  67 H67           -2.2954    -0.6829    -0.3221 H       
  68 H68           -5.2908     3.3976     7.3332 H       
  69 H69           -6.7424     3.4816     6.3065 H       
  70 H70           -5.7230     1.8329     4.7302 H       
  71 H71           -4.2714     1.7488     5.7569 H       
  72 H72           -4.3342     2.6147     2.8306 H       
  73 H73           -2.8826     2.5306     3.8572 H       
  74 H74           -1.8632     0.8819     2.2809 H       
  75 H75           -3.3148     0.9659     1.2542 H       
  76 H76           -4.9214     5.8282     7.0099 H       
  77 H77           -6.3731     5.9122     5.9832 H       
  78 H78           -7.3925     7.5609     7.5595 H       
  79 H79           -5.9408     7.4769     8.5862 H       
  80 H80           -8.9214     9.9170    11.4572 H       
  81 H81           -9.8006     8.4279    11.0355 H       
  82 H82           -8.3490     8.3439    12.0622 H       
  83 H83           -8.4119     9.2097     9.1359 H       
  84 H84           -6.9603     9.1257    10.1625 H       
  85 H85           -8.7812     6.7791     9.4592 H       
  86 H86           -7.3296     6.6951    10.4858 H       
  87 H87           19.1098     0.7653    -6.3004 H       
  88 H88           17.2220    -0.1657    -1.4601 H       
  89 H89           18.0378     1.2377    -1.8931 H       
  90 H90           15.8800    -4.2434    -3.6790 H       
  91 H91           16.7385    -3.2996    -7.2586 H       
  92 H92           18.5336    -4.9406    -5.4603 H       
  93 H93           19.3705    -3.3742    -7.0921 H       
  94 H94           17.7284    -6.9478    -6.2691 H       
  95 H95           17.2906    -9.0811    -9.0035 H       
  96 H96           20.1619    -8.5483   -10.2025 H       
  97 H97           15.8158    -5.6047    -8.1876 H       
  98 H98           15.6111    -8.0026    -7.3760 H       
  99 H99           15.3765    -7.3686    -5.7294 H       
 100 H100          12.3892    -7.5732    -4.6941 H       
 101 H101           8.8960    -7.6359    -5.8176 H       
 102 H102           7.9241    -8.6348    -9.7945 H       
 103 H103           7.0833    -7.9137    -8.4012 H       
 104 H104           8.0343    -4.9600    -8.9753 H       
 105 H105           6.5592    -4.5840    -9.8977 H       
 106 H106           6.4552    -5.5562    -8.4102 H       
 107 H107           9.1547    -5.9179   -10.8356 H       
 108 H108           8.4759    -7.2866   -11.7489 H       
 109 H109           7.7997    -5.6535   -11.9591 H       
 110 H110           5.4857    -6.2259   -11.2860 H       
 111 H111           6.4657    -8.9514   -11.0846 H       
 112 H112           4.6453    -5.4967    -8.9869 H       
 113 H113           2.7389    -7.3231    -7.9838 H       
 114 H114           4.1905    -7.4071    -6.9571 H       
 115 H115           4.0633    -4.9601    -6.5770 H       
 116 H116           2.6117    -4.8760    -7.6037 H       
 117 H117           2.0128    -3.9647    -5.1392 H       
 118 H118           0.1063    -5.7911    -4.1361 H       
 119 H119           1.5579    -5.8751    -3.1094 H       
 120 H120           1.4307    -3.4281    -2.7294 H       
 121 H121          -0.0209    -3.3441    -3.7560 H       
 122 H122          -1.2132    -3.1975     1.0279 H       
 123 H123          -2.6648    -3.1134     0.0012 H       
 124 H124          -3.6842    -1.4647     1.5776 H       
 125 H125          -2.2326    -1.5487     2.6042 H       
 126 H126          -3.2520     0.1001     4.1805 H       
 127 H127          -4.7036     0.1841     3.1539 H       
 128 H128          -5.3537     4.2634     4.4069 H       
 129 H129          -3.9020     4.1794     5.4335 H       
 130 H130          -7.7618     5.1304     7.8829 H       
 131 H131          -6.3102     5.0463     8.9095 H       
@<TRIPOS>BOND
   1    1   61 1
   2    1   66 1
   3    1   67 1
   4    1   62 1
   5    2   59 1
   6    2   61 1
   7    2   60 2
   8    3   64 1
   9    3   68 1
  10    3   69 1
  11    3    7 1
  12    4    5 1
  13    4   70 1
  14    4   71 1
  15    4   64 1
  16    5   72 1
  17    5   73 1
  18    5   63 1
  19    6   74 1
  20    6   75 1
  21    6   62 1
  22    6   63 1
  23    7   76 1
  24    7   77 1
  25    7   65 1
  26    8   65 1
  27    8   78 1
  28    8   79 1
  29    8   11 1
  30    9   10 1
  31    9   80 1
  32    9   81 1
  33    9   82 1
  34   10   83 1
  35   10   84 1
  36   10   11 1
  37   11   85 1
  38   11   86 1
  39   12   13 ar
  40   12   17 ar
  41   13   87 1
  42   13   14 ar
  43   14   15 ar
  44   15   16 ar
  45   15   21 1
  46   16   17 ar
  47   16   19 1
  48   17   18 1
  49   18   88 1
  50   18   89 1
  51   19   20 2
  52   20   21 1
  53   20   90 1
  54   21   22 1
  55   22   32 1
  56   22   91 1
  57   22   23 1
  58   23   25 1
  59   23   92 1
  60   23   24 1
  61   24   93 1
  62   25   31 1
  63   25   94 1
  64   25   26 1
  65   26   27 1
  66   27   28 1
  67   27   29 1
  68   27   30 2
  69   28   95 1
  70   29   96 1
  71   31   33 1
  72   31   32 1
  73   31   97 1
  74   33   34 1
  75   33   98 1
  76   33   99 1
  77   34   35 1
  78   35   38 1
  79   35   37 2
  80   35   36 1
  81   36  100 1
  82   38   39 1
  83   39   42 1
  84   39   41 2
  85   39   40 1
  86   40  101 1
  87   42   44 1
  88   43   45 1
  89   43   44 1
  90   43   46 1
  91   43   47 1
  92   44  102 1
  93   44  103 1
  94   45  104 1
  95   45  105 1
  96   45  106 1
  97   46  107 1
  98   46  108 1
  99   46  109 1
 100   47   48 1
 101   47   49 1
 102   47  110 1
 103   48  111 1
 104   49   51 am
 105   49   50 2
 106   51   52 1
 107   51  112 1
 108   52   53 1
 109   52  113 1
 110   52  114 1
 111   53   54 1
 112   53  115 1
 113   53  116 1
 114   54   56 am
 115   54   55 2
 116   56   57 1
 117   56  117 1
 118   57  118 1
 119   57  119 1
 120   57   58 1
 121   58   59 1
 122   58  120 1
 123   58  121 1
 124   61  122 1
 125   61  123 1
 126   62  124 1
 127   62  125 1
 128   63  126 1
 129   63  127 1
 130   64  128 1
 131   64  129 1
 132   65  130 1
 133   65  131 1

#	End of record

