#	Name: ASD02500891
#	Creating user name:	WinNT
#	Creation time:	15. 06. 2019 20:23

#	Modifying user name:	WinNT
#	Modification time:	15. 06. 2019 20:23

#	Program:	/corina/corina34_cracker 3.40 0067  02.08.2006

@<TRIPOS>MOLECULE
ASD02500891
  38   40    0    0    0
SMALL
NO_CHARGES


@<TRIPOS>ATOM
   1 C1            -0.0171     1.3794     0.0106 C.ar    
   2 C2            -0.6756     1.1249    -1.1784 C.ar    
   3 C3            -1.8630     0.4194    -1.1746 C.ar    
   4 C4            -2.3954    -0.0344     0.0247 C.ar    
   5 C5            -1.7318     0.2226     1.2170 C.ar    
   6 C6            -0.5419     0.9237     1.2061 C.ar    
   7 N7            -3.6000    -0.7501     0.0319 N.am    
   8 C8            -3.5925    -2.0837    -0.0760 C.2     
   9 S9            -5.2833    -2.6128    -0.0269 S.3     
  10 C10           -5.9397    -0.9724     0.1410 C.2     
  11 C11           -4.7528    -0.1128     0.1510 C.2     
  12 C12           -7.2479    -0.5981     0.2422 C.2     
  13 O13           -4.8232     1.0982     0.2542 O.2     
  14 S14           -2.2139    -3.0868    -0.2317 S.2     
  15 C15           -8.2637    -1.5743     0.2192 C.2     
  16 C16           -9.5619    -1.2029     0.3196 C.2     
  17 C17          -10.6218    -2.2214     0.2956 C.ar    
  18 C18          -11.9648    -1.8418     0.3991 C.ar    
  19 C19          -12.9526    -2.8031     0.3758 C.ar    
  20 C20          -12.6191    -4.1407     0.2504 C.ar    
  21 C21          -11.2931    -4.5246     0.1479 C.ar    
  22 C22          -10.2935    -3.5753     0.1633 C.ar    
  23 C23            1.2782     2.1494     0.0029 C.3     
  24 H24           -0.2613     1.4786    -2.1109 H       
  25 H25           -2.3771     0.2213    -2.1035 H       
  26 H26           -2.1435    -0.1291     2.1515 H       
  27 H27           -0.0252     1.1240     2.1332 H       
  28 H28           -7.5048     0.4463     0.3399 H       
  29 H29           -8.0068    -2.6187     0.1214 H       
  30 H30           -9.8188    -0.1584     0.4173 H       
  31 H31          -12.2266    -0.7986     0.4973 H       
  32 H32          -13.9895    -2.5119     0.4559 H       
  33 H33          -13.3977    -4.8890     0.2328 H       
  34 H34          -11.0412    -5.5704     0.0511 H       
  35 H35           -9.2595    -3.8764     0.0829 H       
  36 H36            1.0684     3.2144     0.1021 H       
  37 H37            1.9002     1.8225     0.8362 H       
  38 H38            1.8030     1.9683    -0.9351 H       
@<TRIPOS>BOND
   1    1    2 ar
   2    1   23 1
   3    1    6 ar
   4    2    3 ar
   5    2   24 1
   6    3    4 ar
   7    3   25 1
   8    4    5 ar
   9    4    7 1
  10    5    6 ar
  11    5   26 1
  12    6   27 1
  13    7    8 am
  14    7   11 am
  15    8    9 1
  16    8   14 2
  17    9   10 1
  18   10   11 1
  19   10   12 2
  20   11   13 2
  21   12   15 1
  22   12   28 1
  23   15   16 2
  24   15   29 1
  25   16   17 1
  26   16   30 1
  27   17   18 ar
  28   17   22 ar
  29   18   19 ar
  30   18   31 1
  31   19   20 ar
  32   19   32 1
  33   20   21 ar
  34   20   33 1
  35   21   22 ar
  36   21   34 1
  37   22   35 1
  38   23   36 1
  39   23   37 1
  40   23   38 1

#	End of record

