#	Name: ASD05313188
#	Creating user name:	WinNT
#	Creation time:	15. 06. 2019 20:58

#	Modifying user name:	WinNT
#	Modification time:	15. 06. 2019 20:58

#	Program:	/corina/corina34_cracker 3.40 0067  02.08.2006

@<TRIPOS>MOLECULE
ASD05313188
  36   39    0    0    0
SMALL
NO_CHARGES


@<TRIPOS>ATOM
   1 C1            -0.0734     0.8207     1.0165 C.2     
   2 C2             0.1125    -0.6160     0.5916 C.3     
   3 N3             0.9380     1.7389     1.0426 N.pl3   
   4 N4             1.4567    -0.7157    -0.0081 N.am    
   5 C5             2.5713    -0.0363     0.6693 C.3     
   6 C6             2.3239     1.4771     0.6586 C.3     
   7 N7            -0.8924     2.6483     1.6942 N.2     
   8 N8            -1.1527     1.4169     1.4162 N.2     
   9 C9             0.3808     2.8948     1.4825 C.2     
  10 N10            1.0345     4.1109     1.6756 N.pl3   
  11 N11            2.3938     4.3626     1.4487 N.2     
  12 C12            2.6331     5.6152     1.7414 C.2     
  13 C13            1.4369     6.2056     2.1645 C.2     
  14 C14            0.4657     5.2652     2.1118 C.2     
  15 C15            1.6578    -1.4107    -1.1452 C.2     
  16 O16            2.7502    -1.4006    -1.6786 O.2     
  17 C17            0.5509    -2.1847    -1.7433 C.ar    
  18 C18            0.3198    -2.1288    -3.1203 C.ar    
  19 C19           -0.7178    -2.8564    -3.6731 C.ar    
  20 C20           -1.5266    -3.6387    -2.8629 C.ar    
  21 C21           -1.3005    -3.6959    -1.4978 C.ar    
  22 C22           -0.2649    -2.9796    -0.9358 C.ar    
  23 F23           -0.9442    -2.8048    -5.0040 F       
  24 Cl24          -2.8283    -4.5497    -3.5625 Cl      
  25 Cl25           1.3322    -1.1483    -4.1339 Cl      
  26 H26            0.0422    -1.2726     1.4588 H       
  27 H27           -0.6444    -0.8874    -0.1443 H       
  28 H28            2.6390    -0.3867     1.6992 H       
  29 H29            3.5026    -0.2564     0.1475 H       
  30 H30            2.5048     1.8688    -0.3424 H       
  31 H31            2.9959     1.9610     1.3672 H       
  32 H32            3.5907     6.1093     1.6688 H       
  33 H33            1.3105     7.2324     2.4746 H       
  34 H34           -0.5732     5.4060     2.3714 H       
  35 H35           -1.9346    -4.3066    -0.8721 H       
  36 H36           -0.0881    -3.0296     0.1285 H       
@<TRIPOS>BOND
   1    1    2 1
   2    1    3 1
   3    1    8 2
   4    2    4 1
   5    2   26 1
   6    2   27 1
   7    3    6 1
   8    3    9 1
   9    4    5 1
  10    4   15 am
  11    5    6 1
  12    5   28 1
  13    5   29 1
  14    6   30 1
  15    6   31 1
  16    7    8 1
  17    7    9 2
  18    9   10 1
  19   10   11 1
  20   10   14 1
  21   11   12 2
  22   12   13 1
  23   12   32 1
  24   13   14 2
  25   13   33 1
  26   14   34 1
  27   15   16 2
  28   15   17 1
  29   17   18 ar
  30   17   22 ar
  31   18   19 ar
  32   18   25 1
  33   19   20 ar
  34   19   23 1
  35   20   21 ar
  36   20   24 1
  37   21   22 ar
  38   21   35 1
  39   22   36 1

#	End of record

