#	Name: ASD04880407
#	Creating user name:	WinNT
#	Creation time:	15. 06. 2019 20:53

#	Modifying user name:	WinNT
#	Modification time:	15. 06. 2019 20:53

#	Program:	/corina/corina34_cracker 3.40 0067  02.08.2006

@<TRIPOS>MOLECULE
ASD04880407
  58   61    0    0    0
SMALL
NO_CHARGES


@<TRIPOS>ATOM
   1 C1             0.4680     1.4990     0.3847 C.ar    
   2 C2             0.5742     0.1118     0.4574 C.ar    
   3 C3            -0.5683    -0.6726     0.5216 C.ar    
   4 C4            -1.8148    -0.0829     0.5138 C.ar    
   5 C5            -1.9290     1.3078     0.4415 C.ar    
   6 C6            -0.7779     2.0977     0.3821 C.ar    
   7 O7             1.5903     2.2644     0.3218 O.3     
   8 O8             1.8005    -0.4748     0.4649 O.3     
   9 C9             1.8369    -1.9013     0.5411 C.3     
  10 C10            1.4070     3.6798     0.2491 C.3     
  11 C11           -3.2605     1.9404     0.4330 C.2     
  12 C12           -4.5780     1.2014     0.4976 C.3     
  13 N13           -3.4808     3.2087     0.3749 N.2     
  14 N14           -4.8310     3.5527     0.3813 N.am    
  15 C15           -5.6351     2.3227     0.4583 C.3     
  16 C16           -6.5242     2.1822    -0.7789 C.3     
  17 C17           -6.4796     2.3106     1.7341 C.3     
  18 C18           -5.3206     4.8073     0.3285 C.2     
  19 O19           -6.5198     4.9888     0.2371 O.2     
  20 C20           -4.4018     5.9606     0.3816 C.ar    
  21 C21           -4.8886     7.2544     0.1752 C.ar    
  22 C22           -4.0279     8.3280     0.2256 C.ar    
  23 C23           -2.6763     8.1264     0.4808 C.ar    
  24 C24           -2.1880     6.8410     0.6861 C.ar    
  25 C25           -3.0434     5.7627     0.6441 C.ar    
  26 C26            0.0767    10.2913    -0.3657 C.ar    
  27 C27           -0.8827     9.2915    -0.4382 C.ar    
  28 C28           -0.8715     8.3983    -1.5000 C.ar    
  29 C29            0.0942     8.5065    -2.4818 C.ar    
  30 C30            1.0494     9.5035    -2.4070 C.ar    
  31 C31            1.0405    10.3948    -1.3499 C.ar    
  32 O32           -1.8312     9.1870     0.5291 O.3     
  33 H33           -0.4813    -1.7476     0.5775 H       
  34 H34           -2.7026    -0.6959     0.5632 H       
  35 H35           -0.8616     3.1730     0.3262 H       
  36 H36            2.8733    -2.2389     0.5390 H       
  37 H37            1.3500    -2.2286     1.4598 H       
  38 H38            1.3152    -2.3244    -0.3173 H       
  39 H39            0.8338     3.9265    -0.6446 H       
  40 H40            0.8680     4.0222     1.1324 H       
  41 H41            2.3794     4.1702     0.2040 H       
  42 H42           -4.6887     0.5413    -0.3626 H       
  43 H43           -4.6543     0.6364     1.4267 H       
  44 H44           -5.9018     2.1669    -1.6737 H       
  45 H45           -7.0916     1.2538    -0.7151 H       
  46 H46           -7.2124     3.0260    -0.8295 H       
  47 H47           -7.1672     3.1563     1.7227 H       
  48 H48           -7.0473     1.3815     1.7852 H       
  49 H49           -5.8261     2.3853     2.6032 H       
  50 H50           -5.9384     7.4118    -0.0238 H       
  51 H51           -4.4033     9.3280     0.0662 H       
  52 H52           -1.1372     6.6884     0.8834 H       
  53 H53           -2.6634     4.7645     0.8040 H       
  54 H54            0.0676    10.9905     0.4574 H       
  55 H55           -1.6169     7.6190    -1.5586 H       
  56 H56            0.1033     7.8115    -3.3085 H       
  57 H57            1.8039     9.5859    -3.1752 H       
  58 H58            1.7876    11.1726    -1.2938 H       
@<TRIPOS>BOND
   1    1    2 ar
   2    1    7 1
   3    1    6 ar
   4    2    3 ar
   5    2    8 1
   6    3    4 ar
   7    3   33 1
   8    4    5 ar
   9    4   34 1
  10    5    6 ar
  11    5   11 1
  12    6   35 1
  13    7   10 1
  14    8    9 1
  15    9   36 1
  16    9   37 1
  17    9   38 1
  18   10   39 1
  19   10   40 1
  20   10   41 1
  21   11   12 1
  22   11   13 2
  23   12   15 1
  24   12   42 1
  25   12   43 1
  26   13   14 1
  27   14   15 1
  28   14   18 am
  29   15   16 1
  30   15   17 1
  31   16   44 1
  32   16   45 1
  33   16   46 1
  34   17   47 1
  35   17   48 1
  36   17   49 1
  37   18   19 2
  38   18   20 1
  39   20   21 ar
  40   20   25 ar
  41   21   22 ar
  42   21   50 1
  43   22   23 ar
  44   22   51 1
  45   23   24 ar
  46   23   32 1
  47   24   25 ar
  48   24   52 1
  49   25   53 1
  50   26   27 ar
  51   26   31 ar
  52   26   54 1
  53   27   28 ar
  54   27   32 1
  55   28   29 ar
  56   28   55 1
  57   29   30 ar
  58   29   56 1
  59   30   31 ar
  60   30   57 1
  61   31   58 1

#	End of record

