#	Name: ASD01900474
#	Creating user name:	WinNT
#	Creation time:	15. 06. 2019 19:52

#	Modifying user name:	WinNT
#	Modification time:	15. 06. 2019 19:52

#	Program:	/corina/corina34_cracker 3.40 0067  02.08.2006

@<TRIPOS>MOLECULE
ASD01900474
  42   45    0    0    0
SMALL
NO_CHARGES


@<TRIPOS>ATOM
   1 C1             0.2863     3.8237     1.8261 C.ar    
   2 C2             0.6305     4.9374     2.6156 C.ar    
   3 C3             1.9746     5.1757     2.9007 C.ar    
   4 C4             2.9152     4.3019     2.3920 C.ar    
   5 C5             2.5040     3.2231     1.6201 C.ar    
   6 N6             1.2335     3.0128     1.3608 N.ar    
   7 N7            -1.6114     4.8817     2.3727 N.2     
   8 N8            -0.5377     5.5740     2.9421 N.pl3   
   9 C9            -1.1731     3.8490     1.7027 C.2     
  10 N10           -1.9573     2.9283     1.0010 N.pl3   
  11 C11           -3.3342     3.1390     0.8693 C.ar    
  12 C12           -3.8413     4.4322     0.8562 C.ar    
  13 C13           -5.2010     4.6391     0.7256 C.ar    
  14 C14           -6.0601     3.5547     0.6080 C.ar    
  15 C15           -5.5541     2.2639     0.6215 C.ar    
  16 C16           -4.1941     2.0556     0.7458 C.ar    
  17 O17           -7.3987     3.7587     0.4799 O.3     
  18 C18           -8.2116     2.6062     0.2497 C.3     
  19 C19           -8.5337     1.9342     1.5859 C.3     
  20 C20           -9.4932     3.0221    -0.4253 C.ar    
  21 C21           -9.6668     4.3383    -0.8099 C.ar    
  22 C22          -10.8493     4.7104    -1.4305 C.ar    
  23 C23          -11.8173     3.7402    -1.6420 C.ar    
  24 C24          -11.5729     2.4441    -1.2300 C.ar    
  25 N25          -10.4337     2.1250    -0.6470 N.ar    
  26 Cl26          -5.8355     6.2549     0.7091 Cl      
  27 H27            2.2720     6.0213     3.5031 H       
  28 H28            3.9650     4.4568     2.5930 H       
  29 H29            3.2440     2.5432     1.2246 H       
  30 H30           -0.6090     6.3766     3.4822 H       
  31 H31           -1.5467     2.1434     0.6056 H       
  32 H32           -3.1729     5.2755     0.9484 H       
  33 H33           -6.2232     1.4210     0.5304 H       
  34 H34           -3.8001     1.0500     0.7515 H       
  35 H35           -7.6751     1.9051    -0.3896 H       
  36 H36           -9.1537     1.0551     1.4104 H       
  37 H37           -7.6067     1.6334     2.0741 H       
  38 H38           -9.0701     2.6353     2.2253 H       
  39 H39           -8.8912     5.0678    -0.6290 H       
  40 H40          -11.0128     5.7316    -1.7416 H       
  41 H41          -12.7506     3.9946    -2.1222 H       
  42 H42          -12.3217     1.6827    -1.3911 H       
@<TRIPOS>BOND
   1    1    2 ar
   2    1    6 ar
   3    1    9 1
   4    2    3 ar
   5    2    8 1
   6    3    4 ar
   7    3   27 1
   8    4    5 ar
   9    4   28 1
  10    5    6 ar
  11    5   29 1
  12    7    8 1
  13    7    9 2
  14    8   30 1
  15    9   10 1
  16   10   11 1
  17   10   31 1
  18   11   12 ar
  19   11   16 ar
  20   12   13 ar
  21   12   32 1
  22   13   14 ar
  23   13   26 1
  24   14   15 ar
  25   14   17 1
  26   15   16 ar
  27   15   33 1
  28   16   34 1
  29   17   18 1
  30   18   19 1
  31   18   20 1
  32   18   35 1
  33   19   36 1
  34   19   37 1
  35   19   38 1
  36   20   21 ar
  37   20   25 ar
  38   21   22 ar
  39   21   39 1
  40   22   23 ar
  41   22   40 1
  42   23   24 ar
  43   23   41 1
  44   24   25 ar
  45   24   42 1

#	End of record

