#	Name: ASD01140614
#	Creating user name:	WinNT
#	Creation time:	15. 06. 2019 19:01

#	Modifying user name:	WinNT
#	Modification time:	15. 06. 2019 19:01

#	Program:	/corina/corina34_cracker 3.40 0067  02.08.2006

@<TRIPOS>MOLECULE
ASD01140614
  32   34    0    0    0
SMALL
NO_CHARGES


@<TRIPOS>ATOM
   1 C1            -0.2542     0.8735     0.3198 C.ar    
   2 C2             0.0011    -0.4835     0.5822 C.ar    
   3 C3             1.2663    -0.9677     0.4607 C.ar    
   4 C4             2.3211    -0.1340     0.0774 C.ar    
   5 C5             2.1085     1.1895    -0.1851 C.ar    
   6 C6             0.8139     1.7209    -0.0690 C.ar    
   7 C7             0.5565     3.0778    -0.3316 C.ar    
   8 C8            -0.7107     3.5587    -0.2094 C.ar    
   9 C9            -1.7605     2.7256     0.1734 C.ar    
  10 C10           -1.5501     1.4057     0.4300 C.ar    
  11 O11            3.5747    -0.6471    -0.0349 O.3     
  12 C12            3.8355    -1.3857    -1.1253 C.2     
  13 C13            5.1643    -2.0832    -1.2627 C.3     
  14 O14            3.0049    -1.4913    -1.9964 O.2     
  15 C15            5.2033    -2.8501    -2.5860 C.3     
  16 C16            6.5524    -3.5582    -2.7256 C.3     
  17 C17            6.7527    -4.4797    -3.9304 C.3     
  18 O18            7.3810    -3.1999    -3.8333 O.3     
  19 H19           -0.8041    -1.1390     0.8795 H       
  20 H20            1.4588    -2.0109     0.6634 H       
  21 H21            2.9314     1.8238    -0.4800 H       
  22 H22            1.3603     3.7352    -0.6284 H       
  23 H23           -0.9057     4.6015    -0.4117 H       
  24 H24           -2.7568     3.1327     0.2636 H       
  25 H25           -2.3743     0.7713     0.7210 H       
  26 H26            5.9657    -1.3445    -1.2472 H       
  27 H27            5.2963    -2.7799    -0.4349 H       
  28 H28            4.4019    -3.5888    -2.6016 H       
  29 H29            5.0713    -2.1534    -3.4138 H       
  30 H30            7.0425    -3.8306    -1.7909 H       
  31 H31            7.3765    -5.3633    -3.7959 H       
  32 H32            5.9245    -4.5870    -4.6309 H       
@<TRIPOS>BOND
   1    1    2 ar
   2    1    6 ar
   3    1   10 ar
   4    2    3 ar
   5    2   19 1
   6    3    4 ar
   7    3   20 1
   8    4    5 ar
   9    4   11 1
  10    5    6 ar
  11    5   21 1
  12    6    7 ar
  13    7    8 ar
  14    7   22 1
  15    8    9 ar
  16    8   23 1
  17    9   10 ar
  18    9   24 1
  19   10   25 1
  20   11   12 1
  21   12   13 1
  22   12   14 2
  23   13   15 1
  24   13   26 1
  25   13   27 1
  26   15   16 1
  27   15   28 1
  28   15   29 1
  29   16   17 1
  30   16   18 1
  31   16   30 1
  32   17   18 1
  33   17   31 1
  34   17   32 1

#	End of record

