#	Name: ASD01150484
#	Creating user name:	WinNT
#	Creation time:	15. 06. 2019 19:04

#	Modifying user name:	WinNT
#	Modification time:	15. 06. 2019 19:04

#	Program:	/corina/corina34_cracker 3.40 0067  02.08.2006

@<TRIPOS>MOLECULE
ASD01150484
  38   40    0    0    0
SMALL
NO_CHARGES


@<TRIPOS>ATOM
   1 C1             0.7855     1.4590     0.0731 C.ar    
   2 C2             0.9425     0.1406     0.4531 C.ar    
   3 C3             2.6657     0.7824     1.9908 C.ar    
   4 C4             2.5142     2.1027     1.6151 C.ar    
   5 C5             1.5720     2.4458     0.6537 C.ar    
   6 N6             1.4159     3.7825     0.2708 N.am    
   7 C7             0.1844     4.3206     0.2297 C.2     
   8 N8            -0.0024     5.6029    -0.1346 N.am    
   9 C9             1.0554     6.3722    -0.4661 C.2     
  10 C10            2.4052     5.7897    -0.4227 C.2     
  11 N11            2.5447     4.5422    -0.0587 N.2     
  12 O12            0.8947     7.5322    -0.7968 O.2     
  13 C13           -1.3553     6.1636    -0.1717 C.3     
  14 O14           -0.7769     3.6372     0.5262 O.2     
  15 C15           -1.6200     6.9217     1.1035 C.ar    
  16 C16           -1.3878     8.2830     1.1586 C.ar    
  17 C17           -1.6306     8.9796     2.3276 C.ar    
  18 C18           -2.1068     8.3137     3.4441 C.ar    
  19 C19           -2.3394     6.9499     3.3889 C.ar    
  20 C20           -2.1009     6.2554     2.2170 C.ar    
  21 O21            3.4904     6.5382    -0.7506 O.3     
  22 C22            4.7655     5.8967    -0.6824 C.3     
  23 C23            1.8810    -0.1976     1.4108 C.ar    
  24 F24           -2.3438     8.9941     4.5869 F       
  25 Cl25          -2.3928     4.5456     2.1465 Cl      
  26 H26            0.0552     1.7219    -0.6778 H       
  27 H27            0.3313    -0.6271     0.0020 H       
  28 H28            3.3980     0.5149     2.7382 H       
  29 H29            3.1272     2.8675     2.0684 H       
  30 H30           -1.4451     6.8399    -1.0218 H       
  31 H31           -2.0806     5.3561    -0.2716 H       
  32 H32           -1.0160     8.8027     0.2880 H       
  33 H33           -1.4486    10.0433     2.3700 H       
  34 H34           -2.7109     6.4295     4.2593 H       
  35 H35            4.7807     5.0451    -1.3626 H       
  36 H36            5.5439     6.6041    -0.9684 H       
  37 H37            4.9446     5.5515     0.3359 H       
  38 H38            2.0013    -1.2293     1.7066 H       
@<TRIPOS>BOND
   1    1    2 ar
   2    1    5 ar
   3    1   26 1
   4    2   23 ar
   5    2   27 1
   6    3    4 ar
   7    3   23 ar
   8    3   28 1
   9    4    5 ar
  10    4   29 1
  11    5    6 1
  12    6    7 am
  13    6   11 1
  14    7    8 am
  15    7   14 2
  16    8    9 am
  17    8   13 1
  18    9   10 1
  19    9   12 2
  20   10   11 2
  21   10   21 1
  22   13   15 1
  23   13   30 1
  24   13   31 1
  25   15   16 ar
  26   15   20 ar
  27   16   17 ar
  28   16   32 1
  29   17   18 ar
  30   17   33 1
  31   18   19 ar
  32   18   24 1
  33   19   20 ar
  34   19   34 1
  35   20   25 1
  36   21   22 1
  37   22   35 1
  38   22   36 1
  39   22   37 1
  40   23   38 1

#	End of record

