#	Name: ASD03082295
#	Creating user name:	WinNT
#	Creation time:	15. 06. 2019 20:27

#	Modifying user name:	WinNT
#	Modification time:	15. 06. 2019 20:27

#	Program:	/corina/corina34_cracker 3.40 0067  02.08.2006

@<TRIPOS>MOLECULE
ASD03082295
  55   57    0    0    0
SMALL
NO_CHARGES


@<TRIPOS>ATOM
   1 N1             0.0058     1.3962     0.2398 N.am    
   2 N2             0.0103    -0.0036     0.1248 N.2     
   3 C3             1.2362    -0.3594    -0.1806 C.2     
   4 N4             2.0036     0.7304    -0.2649 N.2     
   5 C5             1.2833     1.8032    -0.0151 C.2     
   6 N6             1.6691    -1.6688    -0.3845 N.pl3   
   7 C7             0.7976    -2.7377    -0.1520 C.ar    
   8 C8             0.9846    -3.9429    -0.8152 C.ar    
   9 C9             0.1190    -5.0020    -0.5833 C.ar    
  10 C10           -0.9341    -4.8542     0.3130 C.ar    
  11 C11           -1.1185    -3.6509     0.9728 C.ar    
  12 C12           -0.2516    -2.5956     0.7466 C.ar    
  13 C13            1.7710     3.2002    -0.0117 C.ar    
  14 C14           -1.0493     2.1804     0.5366 C.2     
  15 C15            3.0656     3.5088     0.4255 C.ar    
  16 C16            3.4836     4.8224     0.4133 C.ar    
  17 N17            2.6839     5.7863    -0.0028 N.ar    
  18 C18            1.4525     5.5421    -0.4250 C.ar    
  19 C19            0.9550     4.2453    -0.4499 C.ar    
  20 N20           -2.2784     1.6401     0.6548 N.am    
  21 F21           -2.1424    -3.5084     1.8426 F       
  22 N22            0.6509     6.5944    -0.8530 N.pl3   
  23 N23            0.3049    -6.2167    -1.2504 N.pl3   
  24 C24           -3.4254     2.4925     0.9774 C.3     
  25 O25           -0.8926     3.3745     0.6977 O.2     
  26 C26           -0.7123     6.3333    -1.3215 C.3     
  27 C27           -1.3722     7.6516    -1.7309 C.3     
  28 C28           -4.6916     1.6369     1.0523 C.3     
  29 F29           -1.7776    -5.8849     0.5397 F       
  30 C30            1.4142    -6.3715    -2.1948 C.3     
  31 C31            1.3912    -7.7844    -2.7814 C.3     
  32 H32            2.5748    -1.8385    -0.6876 H       
  33 H33            1.8027    -4.0557    -1.5112 H       
  34 H34           -0.3940    -1.6595     1.2661 H       
  35 H35            3.7278     2.7275     0.7683 H       
  36 H36            4.4804     5.0664     0.7496 H       
  37 H37           -0.0495     4.0495    -0.7947 H       
  38 H38           -2.4035     0.6868     0.5262 H       
  39 H39            0.9944     7.5015    -0.8413 H       
  40 H40           -0.3005    -6.9569    -1.0879 H       
  41 H41           -3.2579     2.9785     1.9386 H       
  42 H42           -3.5441     3.2502     0.2029 H       
  43 H43           -0.6792     5.6617    -2.1794 H       
  44 H44           -1.2896     5.8714    -0.5205 H       
  45 H45           -1.4053     8.3231    -0.8731 H       
  46 H46           -0.7949     8.1134    -2.5319 H       
  47 H47           -2.3865     7.4572    -2.0796 H       
  48 H48           -5.5449     2.2711     1.2923 H       
  49 H49           -4.8590     1.1509     0.0911 H       
  50 H50           -4.5728     0.8792     1.8268 H       
  51 H51            1.3113    -5.6426    -2.9987 H       
  52 H52            2.3587    -6.2089    -1.6756 H       
  53 H53            1.4941    -8.5133    -1.9774 H       
  54 H54            0.4467    -7.9470    -3.3005 H       
  55 H55            2.2165    -7.8995    -3.4840 H       
@<TRIPOS>BOND
   1    1    2 1
   2    1    5 1
   3    1   14 am
   4    2    3 2
   5    3    4 1
   6    3    6 1
   7    4    5 2
   8    5   13 1
   9    6    7 1
  10    6   32 1
  11    7    8 ar
  12    7   12 ar
  13    8    9 ar
  14    8   33 1
  15    9   10 ar
  16    9   23 1
  17   10   11 ar
  18   10   29 1
  19   11   12 ar
  20   11   21 1
  21   12   34 1
  22   13   15 ar
  23   13   19 ar
  24   14   20 am
  25   14   25 2
  26   15   16 ar
  27   15   35 1
  28   16   17 ar
  29   16   36 1
  30   17   18 ar
  31   18   19 ar
  32   18   22 1
  33   19   37 1
  34   20   24 1
  35   20   38 1
  36   22   26 1
  37   22   39 1
  38   23   30 1
  39   23   40 1
  40   24   28 1
  41   24   41 1
  42   24   42 1
  43   26   27 1
  44   26   43 1
  45   26   44 1
  46   27   45 1
  47   27   46 1
  48   27   47 1
  49   28   48 1
  50   28   49 1
  51   28   50 1
  52   30   31 1
  53   30   51 1
  54   30   52 1
  55   31   53 1
  56   31   54 1
  57   31   55 1

#	End of record

