#	Name: ASD00431033
#	Creating user name:	WinNT
#	Creation time:	15. 06. 2019 18:35

#	Modifying user name:	WinNT
#	Modification time:	15. 06. 2019 18:35

#	Program:	/corina/corina34_cracker 3.40 0067  02.08.2006

@<TRIPOS>MOLECULE
ASD00431033
  20   20    0    0    0
SMALL
NO_CHARGES


@<TRIPOS>ATOM
   1 C1            -0.0177     1.4544     0.0100 C.3     
   2 C2             0.0021    -0.0041     0.0020 C.3     
   3 C3             0.7111    -0.5701     1.2526 C.3     
   4 C4             2.1986    -0.4346     1.0711 C.3     
   5 C5             2.7602     0.8801     1.6513 C.3     
   6 C6             1.8533     2.0877     1.3464 C.3     
   7 N7             1.3357     2.0483     0.0003 N.3     
   8 H8            -0.5605     1.8031    -0.8685 H       
   9 H9            -0.5436     1.7936     0.9025 H       
  10 H10           -1.0230    -0.3737    -0.0238 H       
  11 H11            0.5256    -0.3480    -0.8900 H       
  12 H12            0.3983    -0.0107     2.1343 H       
  13 H13            0.4524    -1.6219     1.3744 H       
  14 H14            2.6899    -1.2736     1.5639 H       
  15 H15            2.4270    -0.4738     0.0060 H       
  16 H16            2.8586     0.7760     2.7318 H       
  17 H17            3.7464     1.0620     1.2242 H       
  18 H18            1.0185     2.0900     2.0472 H       
  19 H19            2.4276     3.0047     1.4786 H       
  20 H20            1.9526     1.5325    -0.6093 H       
@<TRIPOS>BOND
   1    1    2 1
   2    1    7 1
   3    1    8 1
   4    1    9 1
   5    2    3 1
   6    2   10 1
   7    2   11 1
   8    3    4 1
   9    3   12 1
  10    3   13 1
  11    4    5 1
  12    4   14 1
  13    4   15 1
  14    5    6 1
  15    5   16 1
  16    5   17 1
  17    6    7 1
  18    6   18 1
  19    6   19 1
  20    7   20 1

#	End of record

