#	Name: ASD01816420
#	Creating user name:	WinNT
#	Creation time:	15. 06. 2019 19:35

#	Modifying user name:	WinNT
#	Modification time:	15. 06. 2019 19:35

#	Program:	/corina/corina34_cracker 3.40 0067  02.08.2006

@<TRIPOS>MOLECULE
ASD01816420
  51   56    0    0    0
SMALL
NO_CHARGES


@<TRIPOS>ATOM
   1 C1            -0.0167     1.3813     0.0096 C.ar    
   2 C2             0.0021    -0.0041     0.0020 C.ar    
   3 C3             1.1983    -0.6909    -0.0126 C.ar    
   4 C4             2.4015     0.0059    -0.0198 C.ar    
   5 C5             2.3790     1.4106    -0.0126 C.ar    
   6 C6             1.1663     2.0917     0.0022 C.ar    
   7 N7             3.6052    -0.6771    -0.0336 N.pl3   
   8 C8             4.7970    -0.0585    -0.0406 C.2     
   9 C9             4.8999     1.3104    -0.0351 C.2     
  10 C10            3.6670     2.1302    -0.0205 C.2     
  11 C11            5.9971     2.2731    -0.0397 C.2     
  12 N12            5.4245     3.4962    -0.0292 N.am    
  13 N13            4.0322     3.3799    -0.0177 N.2     
  14 O14            7.1911     2.0232    -0.0505 O.2     
  15 C15            3.5778    -2.1419    -0.0402 C.3     
  16 C16            3.5560    -2.6374    -1.4632 C.ar    
  17 C17            4.7441    -2.8867    -2.1253 C.ar    
  18 C18            4.7274    -3.3405    -3.4297 C.ar    
  19 C19            3.5160    -3.5469    -4.0759 C.ar    
  20 C20            2.3247    -3.2961    -3.4083 C.ar    
  21 C21            2.3479    -2.8474    -2.1023 C.ar    
  22 N22            3.4957    -4.0070    -5.3999 N.pl3   
  23 C23            2.3912    -4.2482    -6.1418 C.2     
  24 C24            2.7983    -4.6776    -7.3588 C.2     
  25 C25            4.1973    -4.6999    -7.3619 C.2     
  26 N26            4.6162    -4.2926    -6.1908 N.2     
  27 C27            6.1219     4.7007    -0.0296 C.ar    
  28 C28            5.4174     5.9014    -0.0180 C.ar    
  29 C29            6.1144     7.0925    -0.0185 C.ar    
  30 C30            7.5163     7.0441    -0.0308 C.ar    
  31 C31            8.1510     5.8003    -0.0420 C.ar    
  32 N32            7.4471     4.6882    -0.0356 N.ar    
  33 C33            8.2851     8.2522    -0.0323 C.1     
  34 N34            8.8950     9.2106    -0.0335 N.1     
  35 H35           -0.9602     1.9068     0.0169 H       
  36 H36           -0.9289    -0.5515     0.0079 H       
  37 H37            1.2003    -1.7709    -0.0181 H       
  38 H38            1.1506     3.1715     0.0074 H       
  39 H39            5.6983    -0.6535    -0.0506 H       
  40 H40            4.4653    -2.5241     0.4641 H       
  41 H41            2.6858    -2.4909     0.4798 H       
  42 H42            5.6861    -2.7260    -1.6221 H       
  43 H43            5.6556    -3.5344    -3.9466 H       
  44 H44            1.3809    -3.4554    -3.9086 H       
  45 H45            1.4216    -2.6522    -1.5824 H       
  46 H46            1.3679    -4.1215    -5.8206 H       
  47 H47            2.1566    -4.9542    -8.1823 H       
  48 H48            4.8238    -4.9977    -8.1897 H       
  49 H49            4.3374     5.9008    -0.0091 H       
  50 H50            5.5935     8.0385    -0.0100 H       
  51 H51            9.2298     5.7503    -0.0515 H       
@<TRIPOS>BOND
   1    1    2 ar
   2    1    6 ar
   3    1   35 1
   4    2    3 ar
   5    2   36 1
   6    3    4 ar
   7    3   37 1
   8    4    5 ar
   9    4    7 1
  10    5    6 ar
  11    5   10 1
  12    6   38 1
  13    7    8 1
  14    7   15 1
  15    8    9 2
  16    8   39 1
  17    9   10 1
  18    9   11 1
  19   10   13 2
  20   11   12 am
  21   11   14 2
  22   12   13 1
  23   12   27 1
  24   15   16 1
  25   15   40 1
  26   15   41 1
  27   16   17 ar
  28   16   21 ar
  29   17   18 ar
  30   17   42 1
  31   18   19 ar
  32   18   43 1
  33   19   20 ar
  34   19   22 1
  35   20   21 ar
  36   20   44 1
  37   21   45 1
  38   22   23 1
  39   22   26 1
  40   23   24 2
  41   23   46 1
  42   24   25 1
  43   24   47 1
  44   25   26 2
  45   25   48 1
  46   27   28 ar
  47   27   32 ar
  48   28   29 ar
  49   28   49 1
  50   29   30 ar
  51   29   50 1
  52   30   31 ar
  53   30   33 1
  54   31   32 ar
  55   31   51 1
  56   33   34 3

#	End of record

