#	Name: ASD01140673
#	Creating user name:	WinNT
#	Creation time:	15. 06. 2019 19:01

#	Modifying user name:	WinNT
#	Modification time:	15. 06. 2019 19:01

#	Program:	/corina/corina34_cracker 3.40 0067  02.08.2006

@<TRIPOS>MOLECULE
ASD01140673
  48   52    0    0    0
SMALL
NO_CHARGES


@<TRIPOS>ATOM
   1 C1            -1.5460     0.6443     9.9017 C.3     
   2 N2            -0.3385    -0.1173     9.5730 N.am    
   3 C3             0.6999    -0.1626    10.4358 C.2     
   4 O4             0.6275     0.4040    11.5059 O.2     
   5 C5             1.9487    -0.9206    10.0638 C.3     
   6 O6             1.6074    -2.0281     9.2263 O.3     
   7 C7             0.7507    -1.7778     8.1999 C.ar    
   8 C8             0.8583    -2.4712     7.0082 C.ar    
   9 C9            -0.0248    -2.2025     5.9699 C.ar    
  10 N10            0.0815    -2.9033     4.7628 N.pl3   
  11 C11            0.5239    -4.2220     4.7609 C.ar    
  12 C12            0.7479    -4.8674     3.5453 C.ar    
  13 C13            1.1834    -6.1654     3.5380 C.ar    
  14 C14            1.4343    -6.8881     2.2396 C.3     
  15 C15            1.3903    -6.8048     4.7660 C.ar    
  16 N16            1.8049    -8.0484     5.1188 N.2     
  17 C17            1.8294    -8.1462     6.4156 C.2     
  18 N18            1.4322    -6.9716     6.9801 N.pl3   
  19 C19            1.3284    -6.6904     8.4141 C.3     
  20 C20           -0.1094    -6.9316     8.8784 C.3     
  21 C21           -0.3441    -8.0450     9.9011 C.3     
  22 C22           -0.4523    -6.5796    10.3273 C.3     
  23 C23            1.1456    -6.0970     5.9549 C.ar    
  24 N24            0.7298    -4.8398     5.9122 N.ar    
  25 C25           -1.0138    -1.2393     6.1282 C.ar    
  26 Cl26          -2.1153    -0.9063     4.8283 Cl      
  27 C27           -1.1223    -0.5457     7.3200 C.ar    
  28 C28           -0.2449    -0.8163     8.3586 C.ar    
  29 H29           -2.2485     0.0007    10.4313 H       
  30 H30           -1.2805     1.4909    10.5349 H       
  31 H31           -2.0075     1.0079     8.9836 H       
  32 H32            2.6296    -0.2580     9.5295 H       
  33 H33            2.4344    -1.2861    10.9686 H       
  34 H34            1.6272    -3.2195     6.8848 H       
  35 H35           -0.1533    -2.4694     3.9276 H       
  36 H36            0.5784    -4.3463     2.6146 H       
  37 H37            2.4691    -6.7355     1.9329 H       
  38 H38            1.2489    -7.9536     2.3751 H       
  39 H39            0.7664    -6.4979     1.4716 H       
  40 H40            2.1216    -9.0293     6.9645 H       
  41 H41            2.0026    -7.3478     8.9630 H       
  42 H42            1.6013    -5.6518     8.6014 H       
  43 H43           -0.8802    -6.7691     8.1250 H       
  44 H44           -1.2695    -8.6154     9.8207 H       
  45 H45            0.5258    -8.6057    10.2432 H       
  46 H46            0.3463    -6.1762    10.9498 H       
  47 H47           -1.4489    -6.1859    10.5272 H       
  48 H48           -1.8914     0.2026     7.4422 H       
@<TRIPOS>BOND
   1    1    2 1
   2    1   29 1
   3    1   30 1
   4    1   31 1
   5    2   28 1
   6    2    3 am
   7    3    4 2
   8    3    5 1
   9    5    6 1
  10    5   32 1
  11    5   33 1
  12    6    7 1
  13    7   28 ar
  14    7    8 ar
  15    8    9 ar
  16    8   34 1
  17    9   10 1
  18    9   25 ar
  19   10   11 1
  20   10   35 1
  21   11   24 ar
  22   11   12 ar
  23   12   13 ar
  24   12   36 1
  25   13   14 1
  26   13   15 ar
  27   14   37 1
  28   14   38 1
  29   14   39 1
  30   15   23 ar
  31   15   16 1
  32   16   17 2
  33   17   18 1
  34   17   40 1
  35   18   19 1
  36   18   23 1
  37   19   20 1
  38   19   41 1
  39   19   42 1
  40   20   22 1
  41   20   21 1
  42   20   43 1
  43   21   22 1
  44   21   44 1
  45   21   45 1
  46   22   46 1
  47   22   47 1
  48   23   24 ar
  49   25   26 1
  50   25   27 ar
  51   27   28 ar
  52   27   48 1

#	End of record

