#	Name: ASD03730293
#	Creating user name:	WinNT
#	Creation time:	15. 06. 2019 20:44

#	Modifying user name:	WinNT
#	Modification time:	15. 06. 2019 20:44

#	Program:	/corina/corina34_cracker 3.40 0067  02.08.2006

@<TRIPOS>MOLECULE
ASD03730293
  67   74    0    0    0
SMALL
NO_CHARGES


@<TRIPOS>ATOM
   1 O1             1.2547     2.0054    -1.7063 O.3     
   2 C2             1.2393     0.5736    -1.8575 C.3     
   3 O3             2.6226     0.2373    -2.0725 O.3     
   4 C4             3.3383     1.2198    -1.4500 C.ar    
   5 C5             2.4972     2.3077    -1.2273 C.ar    
   6 C6             4.6604     1.2739    -1.0468 C.ar    
   7 C7             5.1607     2.4117    -0.4210 C.ar    
   8 C8             4.3141     3.4969    -0.2147 C.ar    
   9 C9             2.9935     3.4432    -0.6092 C.ar    
  10 O10            6.4101     2.6605     0.0661 O.3     
  11 C11            5.1424     4.5686     0.4419 C.3     
  12 C12            6.5823     4.0814     0.2288 C.3     
  13 N13            4.5096     6.7310     0.8244 N.am    
  14 C14            4.9140     5.9197    -0.1732 C.2     
  15 C15            4.8165     4.7342     1.8962 C.ar    
  16 C16            4.8270     3.8742     2.9861 C.ar    
  17 C17            4.4610     4.3473     4.2461 C.ar    
  18 C18            4.0905     5.6685     4.4000 C.ar    
  19 C19            4.0804     6.5229     3.3162 C.ar    
  20 C20            4.4431     6.0645     2.0508 C.ar    
  21 O21            5.0637     6.2213    -1.3384 O.2     
  22 C22            5.9534    -0.1966     2.4828 C.ar    
  23 C23            4.6152     0.1446     2.5719 C.ar    
  24 C24            4.2505     1.4643     2.7377 C.ar    
  25 C25            5.2258     2.4563     2.8110 C.ar    
  26 C26            6.5828     2.1182     2.7192 C.ar    
  27 O27            7.4987     3.1040     2.7804 O.3     
  28 C28            8.7687     2.9553     3.2066 C.ar    
  29 C29            9.4238     4.0574     3.7462 C.ar    
  30 C30           10.7293     3.9501     4.1846 C.ar    
  31 C31           11.3996     2.7449     4.0911 C.ar    
  32 C32           10.7582     1.6411     3.5604 C.ar    
  33 C33            9.4457     1.7427     3.1232 C.ar    
  34 S34            8.6325     0.3219     2.4700 S.3     
  35 C35            6.9334     0.7824     2.5608 C.ar    
  36 C36            4.1779     8.1465     0.6438 C.3     
  37 C37            2.6901     8.2837     0.3145 C.3     
  38 C38            2.3437     9.7620     0.1259 C.3     
  39 C39            0.8558     9.8992    -0.2035 C.3     
  40 C40            0.5094    11.3774    -0.3921 C.3     
  41 H41            0.8657     0.0968    -0.9513 H       
  42 H42            0.6369     0.2859    -2.7191 H       
  43 H43            5.3086     0.4273    -1.2185 H       
  44 H44            2.3447     4.2890    -0.4355 H       
  45 H45            7.1978     4.2993     1.1017 H       
  46 H46            7.0120     4.5247    -0.6695 H       
  47 H47            4.4671     3.6830     5.0977 H       
  48 H48            3.8069     6.0359     5.3752 H       
  49 H49            3.7889     7.5542     3.4495 H       
  50 H50            6.2366    -1.2311     2.3564 H       
  51 H51            3.8570    -0.6220     2.5112 H       
  52 H52            3.2061     1.7294     2.8109 H       
  53 H53            8.9084     5.0034     3.8225 H       
  54 H54           11.2287     4.8119     4.6021 H       
  55 H55           12.4215     2.6659     4.4313 H       
  56 H56           11.2800     0.6984     3.4859 H       
  57 H57            4.3986     8.6914     1.5617 H       
  58 H58            4.7704     8.5571    -0.1738 H       
  59 H59            2.4694     7.7388    -0.6034 H       
  60 H60            2.0976     7.8731     1.1321 H       
  61 H61            2.5643    10.3068     1.0438 H       
  62 H62            2.9361    10.1726    -0.6917 H       
  63 H63            0.6352     9.3543    -1.1214 H       
  64 H64            0.2634     9.4886     0.6141 H       
  65 H65            0.7301    11.9223     0.5258 H       
  66 H66            1.1019    11.7880    -1.2097 H       
  67 H67           -0.5505    11.4752    -0.6267 H       
@<TRIPOS>BOND
   1    1    2 1
   2    1    5 1
   3    2    3 1
   4    2   41 1
   5    2   42 1
   6    3    4 1
   7    4    5 ar
   8    4    6 ar
   9    5    9 ar
  10    6    7 ar
  11    6   43 1
  12    7    8 ar
  13    7   10 1
  14    8    9 ar
  15    8   11 1
  16    9   44 1
  17   10   12 1
  18   11   12 1
  19   11   14 1
  20   11   15 1
  21   12   45 1
  22   12   46 1
  23   13   14 am
  24   13   20 1
  25   13   36 1
  26   14   21 2
  27   15   16 ar
  28   15   20 ar
  29   16   17 ar
  30   16   25 1
  31   17   18 ar
  32   17   47 1
  33   18   19 ar
  34   18   48 1
  35   19   20 ar
  36   19   49 1
  37   22   23 ar
  38   22   35 ar
  39   22   50 1
  40   23   24 ar
  41   23   51 1
  42   24   25 ar
  43   24   52 1
  44   25   26 ar
  45   26   27 1
  46   26   35 ar
  47   27   28 1
  48   28   29 ar
  49   28   33 ar
  50   29   30 ar
  51   29   53 1
  52   30   31 ar
  53   30   54 1
  54   31   32 ar
  55   31   55 1
  56   32   33 ar
  57   32   56 1
  58   33   34 1
  59   34   35 1
  60   36   37 1
  61   36   57 1
  62   36   58 1
  63   37   38 1
  64   37   59 1
  65   37   60 1
  66   38   39 1
  67   38   61 1
  68   38   62 1
  69   39   40 1
  70   39   63 1
  71   39   64 1
  72   40   65 1
  73   40   66 1
  74   40   67 1

#	End of record

