#	Name: ASD01814542
#	Creating user name:	WinNT
#	Creation time:	15. 06. 2019 19:32

#	Modifying user name:	WinNT
#	Modification time:	15. 06. 2019 19:32

#	Program:	/corina/corina34_cracker 3.40 0067  02.08.2006

@<TRIPOS>MOLECULE
ASD01814542
  48   51    0    0    0
SMALL
NO_CHARGES


@<TRIPOS>ATOM
   1 C1            -0.0168     1.3881     0.0097 C.ar    
   2 C2             0.0021    -0.0041     0.0020 C.ar    
   3 C3             1.1796    -0.6892    -0.0129 C.ar    
   4 C4             2.3944     0.0145    -0.0206 C.ar    
   5 C5             2.3745     1.4311    -0.0129 C.ar    
   6 C6             1.1425     2.1037     0.0024 C.ar    
   7 C7             3.6273    -0.6672    -0.0355 C.ar    
   8 C8             4.7912     0.0276    -0.0424 C.ar    
   9 C9             4.7935     1.4357    -0.0345 C.ar    
  10 C10            3.5923     2.1420    -0.0202 C.ar    
  11 O11            3.5945     3.4962    -0.0126 O.3     
  12 C12            3.5847     4.1521    -1.2822 C.3     
  13 C13            6.0715     2.1655    -0.0419 C.2     
  14 O14            6.0774     3.3809    -0.0351 O.2     
  15 O15            7.2356     1.4861    -0.0561 O.3     
  16 C16            3.6522    -2.1739    -0.0431 C.3     
  17 C17            3.5235    -2.6712    -1.4599 C.ar    
  18 C18            4.6583    -2.8783    -2.2232 C.ar    
  19 C19            2.2713    -2.9244    -1.9903 C.ar    
  20 C20            2.1477    -3.3808    -3.2869 C.ar    
  21 C21            3.2872    -3.5861    -4.0621 C.ar    
  22 C22            4.5463    -3.3337    -3.5213 C.ar    
  23 C23            3.1605    -4.0772    -5.4567 C.ar    
  24 C24            4.3000    -4.2825    -6.2319 C.ar    
  25 C25            4.1764    -4.7393    -7.5284 C.ar    
  26 C26            2.9242    -4.9932    -8.0585 C.ar    
  27 C27            1.7897    -4.7907    -7.2935 C.ar    
  28 C28            1.9020    -4.3400    -5.9938 C.ar    
  29 H29           -0.9635     1.9079     0.0170 H       
  30 H30           -0.9304    -0.5489     0.0083 H       
  31 H31            1.1785    -1.7692    -0.0183 H       
  32 H32            1.1137     3.1833     0.0085 H       
  33 H33            5.7299    -0.5063    -0.0538 H       
  34 H34            3.5877     5.2319    -1.1333 H       
  35 H35            4.4694     3.8610    -1.8484 H       
  36 H36            2.6895     3.8638    -1.8331 H       
  37 H37            8.0490     2.0089    -0.0605 H       
  38 H38            4.5934    -2.5240     0.3807 H       
  39 H39            2.8220    -2.5541     0.5522 H       
  40 H40            5.6337    -2.6830    -1.8028 H       
  41 H41            1.3888    -2.7649    -1.3885 H       
  42 H42            1.1696    -3.5788    -3.6998 H       
  43 H43            5.4327    -3.4908    -4.1179 H       
  44 H44            5.2781    -4.0842    -5.8191 H       
  45 H45            5.0589    -4.8984    -8.1303 H       
  46 H46            2.8321    -5.3506    -9.0735 H       
  47 H47            0.8145    -4.9899    -7.7126 H       
  48 H48            1.0155    -4.1823    -5.3974 H       
@<TRIPOS>BOND
   1    1    2 ar
   2    1    6 ar
   3    1   29 1
   4    2    3 ar
   5    2   30 1
   6    3    4 ar
   7    3   31 1
   8    4    5 ar
   9    4    7 ar
  10    5    6 ar
  11    5   10 ar
  12    6   32 1
  13    7    8 ar
  14    7   16 1
  15    8    9 ar
  16    8   33 1
  17    9   10 ar
  18    9   13 1
  19   10   11 1
  20   11   12 1
  21   12   34 1
  22   12   35 1
  23   12   36 1
  24   13   14 2
  25   13   15 1
  26   15   37 1
  27   16   17 1
  28   16   38 1
  29   16   39 1
  30   17   18 ar
  31   17   19 ar
  32   18   22 ar
  33   18   40 1
  34   19   20 ar
  35   19   41 1
  36   20   21 ar
  37   20   42 1
  38   21   22 ar
  39   21   23 1
  40   22   43 1
  41   23   24 ar
  42   23   28 ar
  43   24   25 ar
  44   24   44 1
  45   25   26 ar
  46   25   45 1
  47   26   27 ar
  48   26   46 1
  49   27   28 ar
  50   27   47 1
  51   28   48 1

#	End of record

