#	Name: ASD02560184
#	Creating user name:	WinNT
#	Creation time:	15. 06. 2019 20:24

#	Modifying user name:	WinNT
#	Modification time:	15. 06. 2019 20:24

#	Program:	/corina/corina34_cracker 3.40 0067  02.08.2006

@<TRIPOS>MOLECULE
ASD02560184
  62   66    0    0    0
SMALL
NO_CHARGES


@<TRIPOS>ATOM
   1 Cl1            4.5836     1.1013     1.9644 Cl      
   2 Br2            1.7479     2.5047    -1.7611 Br      
   3 N3            -0.0762     1.2891     0.0356 N.2     
   4 N4            -0.0870     0.0552    -0.0156 N.2     
   5 C5             1.2971     1.8095     0.0218 C.3     
   6 N6             2.1488     0.6386     0.3507 N.3     
   7 C7             1.2771    -0.4860    -0.0735 C.3     
   8 S8             1.4505    -1.8851     1.0680 S.3     
   9 C9             0.9362    -1.1803     2.6584 C.3     
  10 C10            1.0261    -2.2372     3.7289 C.2     
  11 O11            1.4004    -3.3558     3.4467 O.2     
  12 N12            0.6907    -1.9394     4.9998 N.am    
  13 C13            3.3323     0.6588    -0.3861 C.ar    
  14 C14            0.6602    -2.9473     5.9699 C.ar    
  15 C15            1.0114    -2.6606     7.2827 C.ar    
  16 C16            0.9803    -3.6575     8.2377 C.ar    
  17 C17            0.6000    -4.9404     7.8881 C.ar    
  18 C18            0.2503    -5.2293     6.5820 C.ar    
  19 C19            0.2734    -4.2350     5.6233 C.ar    
  20 S20            0.5617    -6.2097     9.1096 S.o2    
  21 O21            0.6905    -7.4414     8.4127 O.2     
  22 O22            1.4522    -5.8026    10.1394 O.2     
  23 C23            3.3036     0.4738    -1.7845 C.ar    
  24 C24            4.5417     0.8657     0.2449 C.ar    
  25 C25            5.7287     0.8881    -0.4821 C.ar    
  26 C26            5.7298     0.7066    -1.8318 C.ar    
  27 C27            4.5187     0.4981    -2.5129 C.ar    
  28 N28           -0.9551    -6.2049     9.7741 N.am    
  29 C29            7.0287     0.7359    -2.5953 C.3     
  30 C30            7.7875     2.0675    -2.4692 C.3     
  31 C31            9.0761     1.2338    -2.3741 C.3     
  32 C32            8.2013     0.0868    -1.8413 C.3     
  33 C33            4.4902     0.3074    -3.9055 C.ar    
  34 C34            3.2996     0.1076    -4.5337 C.ar    
  35 C35            2.1046     0.0894    -3.8170 C.ar    
  36 C36            2.0947     0.2657    -2.4670 C.ar    
  37 C37            1.4264    -1.2630     7.6645 C.3     
  38 H38            1.4154     2.5885     0.7750 H       
  39 H39            1.5210    -0.7925    -1.0907 H       
  40 H40            1.5901    -0.3468     2.9149 H       
  41 H41           -0.0918    -0.8258     2.5833 H       
  42 H42            0.4705    -1.0263     5.2421 H       
  43 H43            1.2536    -3.4352     9.2587 H       
  44 H44           -0.0458    -6.2322     6.3120 H       
  45 H45           -0.0002    -4.4612     4.6033 H       
  46 H46            6.6639     1.0524     0.0325 H       
  47 H47           -1.3375    -7.0281    10.1161 H       
  48 H48           -1.4613    -5.3787     9.8213 H       
  49 H49            6.9233     0.3891    -3.6233 H       
  50 H50            7.7335     2.6873    -3.3642 H       
  51 H51            7.5551     2.6178    -1.5574 H       
  52 H52            9.5318     1.0224    -3.3414 H       
  53 H53            9.7896     1.6145    -1.6432 H       
  54 H54            8.0821     0.0955    -0.7579 H       
  55 H55            8.4814    -0.8925    -2.2295 H       
  56 H56            5.4085     0.3198    -4.4738 H       
  57 H57            3.2806    -0.0386    -5.6036 H       
  58 H58            1.1731    -0.0703    -4.3397 H       
  59 H59            1.1610     0.2488    -1.9244 H       
  60 H60            0.5479    -0.6931     7.9674 H       
  61 H61            2.1339    -1.3075     8.4925 H       
  62 H62            1.8974    -0.7776     6.8098 H       
@<TRIPOS>BOND
   1    1   24 1
   2    2    5 1
   3    3    4 2
   4    3    5 1
   5    4    7 1
   6    5    6 1
   7    5   38 1
   8    6    7 1
   9    6   13 1
  10    7    8 1
  11    7   39 1
  12    8    9 1
  13    9   10 1
  14    9   40 1
  15    9   41 1
  16   10   11 2
  17   10   12 am
  18   12   14 1
  19   12   42 1
  20   13   23 ar
  21   13   24 ar
  22   14   15 ar
  23   14   19 ar
  24   15   16 ar
  25   15   37 1
  26   16   17 ar
  27   16   43 1
  28   17   18 ar
  29   17   20 1
  30   18   19 ar
  31   18   44 1
  32   19   45 1
  33   20   21 2
  34   20   22 2
  35   20   28 am
  36   23   27 ar
  37   23   36 ar
  38   24   25 ar
  39   25   26 ar
  40   25   46 1
  41   26   27 ar
  42   26   29 1
  43   27   33 ar
  44   28   47 1
  45   28   48 1
  46   29   30 1
  47   29   32 1
  48   29   49 1
  49   30   31 1
  50   30   50 1
  51   30   51 1
  52   31   32 1
  53   31   52 1
  54   31   53 1
  55   32   54 1
  56   32   55 1
  57   33   34 ar
  58   33   56 1
  59   34   35 ar
  60   34   57 1
  61   35   36 ar
  62   35   58 1
  63   36   59 1
  64   37   60 1
  65   37   61 1
  66   37   62 1

#	End of record

