#	Name: ASD01120206
#	Creating user name:	WinNT
#	Creation time:	15. 06. 2019 18:59

#	Modifying user name:	WinNT
#	Modification time:	15. 06. 2019 18:59

#	Program:	/corina/corina34_cracker 3.40 0067  02.08.2006

@<TRIPOS>MOLECULE
ASD01120206
  29   31    0    0    0
SMALL
NO_CHARGES


@<TRIPOS>ATOM
   1 C1             0.1328     0.6969    -0.7872 C.ar    
   2 C2             0.2919    -0.6792    -0.7426 C.ar    
   3 C3             1.5461    -1.2341    -0.5837 C.ar    
   4 C4             2.6553    -0.4125    -0.4682 C.ar    
   5 C5             2.4993     0.9811    -0.5132 C.ar    
   6 C6             1.2260     1.5292    -0.6737 C.ar    
   7 O7             3.9786    -0.6436    -0.3074 O.3     
   8 C8             4.6088     0.5431    -0.2554 C.2     
   9 N9             3.7434     1.5170    -0.3763 N.2     
  10 N10            5.9663     0.7091    -0.0981 N.am    
  11 S11            6.6294     2.2246    -0.1740 S.o2    
  12 O12            5.8525     3.0461     0.6866 O.2     
  13 O13            8.0330     2.0561    -0.0294 O.2     
  14 C14            6.3665     2.8277    -1.8086 C.ar    
  15 C15            6.9583     2.1906    -2.8844 C.ar    
  16 C16            6.7514     2.6640    -4.1681 C.ar    
  17 C17            5.9533     3.7727    -4.3754 C.ar    
  18 C18            5.3609     4.4097    -3.2992 C.ar    
  19 C19            5.5643     3.9339    -2.0163 C.ar    
  20 Cl20           7.9610     0.7976    -2.6240 Cl      
  21 Cl21           4.3583     5.8028    -3.5596 Cl      
  22 I22            0.9770     3.6082    -0.7434 I       
  23 H23           -0.8526     1.1196    -0.9159 H       
  24 H24           -0.5714    -1.3219    -0.8324 H       
  25 H25            1.6622    -2.3073    -0.5492 H       
  26 H26            6.5344    -0.0617     0.0572 H       
  27 H27            7.2140     2.1670    -5.0080 H       
  28 H28            5.7921     4.1424    -5.3773 H       
  29 H29            5.1017     4.4309    -1.1764 H       
@<TRIPOS>BOND
   1    1    2 ar
   2    1    6 ar
   3    1   23 1
   4    2    3 ar
   5    2   24 1
   6    3    4 ar
   7    3   25 1
   8    4    5 ar
   9    4    7 1
  10    5    6 ar
  11    5    9 1
  12    6   22 1
  13    7    8 1
  14    8    9 2
  15    8   10 1
  16   10   11 am
  17   10   26 1
  18   11   12 2
  19   11   13 2
  20   11   14 1
  21   14   15 ar
  22   14   19 ar
  23   15   16 ar
  24   15   20 1
  25   16   17 ar
  26   16   27 1
  27   17   18 ar
  28   17   28 1
  29   18   19 ar
  30   18   21 1
  31   19   29 1

#	End of record

