#	Name: ASD08070086
#	Creating user name:	WinNT
#	Creation time:	15. 06. 2019 21:14

#	Modifying user name:	WinNT
#	Modification time:	15. 06. 2019 21:14

#	Program:	/corina/corina34_cracker 3.40 0067  02.08.2006

@<TRIPOS>MOLECULE
ASD08070086
  40   40    0    0    0
SMALL
NO_CHARGES


@<TRIPOS>ATOM
   1 C1            -0.0166     1.3756     0.0096 C.ar    
   2 C2             0.0021    -0.0041     0.0020 C.ar    
   3 C3             1.1701     2.0865     0.0021 C.ar    
   4 C4             2.3828     1.4202    -0.0130 C.ar    
   5 C5             2.4156     0.0413    -0.0212 C.ar    
   6 C6             1.2217    -0.6822    -0.0132 C.ar    
   7 C7             1.2493    -2.1604    -0.0219 C.2     
   8 O8             2.3131    -2.7483    -0.0360 O.2     
   9 C9            -1.1815    -4.8516    -0.6223 C.3     
  10 C10            0.1222    -4.3207    -0.0228 C.3     
  11 N11            0.0949    -2.8559    -0.0142 N.am    
  12 C12            0.2719    -4.8364     1.4099 C.3     
  13 C13           -1.2713    -4.4398    -2.0931 C.3     
  14 C14           -2.5750    -4.9707    -2.6926 C.3     
  15 C15            3.6706     2.2029    -0.0211 C.3     
  16 C16            1.6318    -4.4094     1.9661 C.3     
  17 C17            1.7815    -4.9251     3.3988 C.3     
  18 H18           -0.9598     1.9016     0.0169 H       
  19 H19           -0.9251    -0.5579     0.0082 H       
  20 H20            1.1499     3.1663     0.0077 H       
  21 H21            3.3627    -0.4775    -0.0337 H       
  22 H22           -1.1994    -5.9389    -0.5477 H       
  23 H23           -2.0283    -4.4359    -0.0762 H       
  24 H24            0.9647    -4.6648    -0.6227 H       
  25 H25           -0.7540    -2.3867    -0.0030 H       
  26 H26           -0.5215    -4.4201     2.0306 H       
  27 H27            0.2032    -5.9242     1.4135 H       
  28 H28           -1.2534    -3.3525    -2.1677 H       
  29 H29           -0.4245    -4.8555    -2.6392 H       
  30 H30           -2.6390    -4.6773    -3.7404 H       
  31 H31           -2.5930    -6.0580    -2.6180 H       
  32 H32           -3.4218    -4.5550    -2.1465 H       
  33 H33            3.9909     2.3861     1.0045 H       
  34 H34            4.4384     1.6338    -0.5454 H       
  35 H35            3.5140     3.1549    -0.5284 H       
  36 H36            2.4252    -4.8257     1.3453 H       
  37 H37            1.7006    -3.3216     1.9625 H       
  38 H38            2.7503    -4.6210     3.7950 H       
  39 H39            0.9881    -4.5089     4.0195 H       
  40 H40            1.7128    -6.0130     3.4024 H       
@<TRIPOS>BOND
   1    1    2 ar
   2    1    3 ar
   3    1   18 1
   4    2    6 ar
   5    2   19 1
   6    3    4 ar
   7    3   20 1
   8    4    5 ar
   9    4   15 1
  10    5    6 ar
  11    5   21 1
  12    6    7 1
  13    7    8 2
  14    7   11 am
  15    9   10 1
  16    9   13 1
  17    9   22 1
  18    9   23 1
  19   10   12 1
  20   10   11 1
  21   10   24 1
  22   11   25 1
  23   12   16 1
  24   12   26 1
  25   12   27 1
  26   13   14 1
  27   13   28 1
  28   13   29 1
  29   14   30 1
  30   14   31 1
  31   14   32 1
  32   15   33 1
  33   15   34 1
  34   15   35 1
  35   16   17 1
  36   16   36 1
  37   16   37 1
  38   17   38 1
  39   17   39 1
  40   17   40 1

#	End of record

