#	Name: ASD01209007
#	Creating user name:	WinNT
#	Creation time:	15. 06. 2019 19:10

#	Modifying user name:	WinNT
#	Modification time:	15. 06. 2019 19:10

#	Program:	/corina/corina34_cracker 3.40 0067  02.08.2006

@<TRIPOS>MOLECULE
ASD01209007
  55   59    0    0    0
SMALL
NO_CHARGES


@<TRIPOS>ATOM
   1 C1            -0.0160     1.5413     0.0158 C.3     
   2 C2             0.0034    -0.0075     0.0118 C.3     
   3 C3            -1.2975    -0.5664    -0.5681 C.3     
   4 C4            -2.4601    -0.2261     0.3664 C.3     
   5 C5            -3.7198    -0.8801    -0.1402 C.2     
   6 N6            -3.7811    -2.2210    -0.2612 N.am    
   7 C7            -4.9788    -2.8339    -0.6262 C.ar    
   8 N8            -2.6460     1.2266     0.4057 N.pl3   
   9 C9            -2.5568     2.0095     1.5270 C.ar    
  10 C10           -2.8030     3.3343     1.1170 C.ar    
  11 C11           -3.0434     3.2803    -0.3214 C.2     
  12 N12           -2.9369     2.0375    -0.6962 N.2     
  13 O13           -4.6783    -0.1998    -0.4389 O.2     
  14 C14           -2.2915     1.7468     2.8684 C.ar    
  15 C15           -2.2724     2.7720     3.7713 C.ar    
  16 C16           -2.5150     4.0794     3.3689 C.ar    
  17 C17           -2.7768     4.3670     2.0605 C.ar    
  18 S18           -3.0830     6.0293     1.5630 S.o2    
  19 C19           -1.6954     6.4371     0.4681 C.3     
  20 O20           -4.2955     5.9568     0.8256 O.2     
  21 O21           -3.0027     6.7765     2.7691 O.2     
  22 C22           -1.6023     7.8739    -0.0493 C.3     
  23 C23           -0.6187     7.3779     1.0125 C.3     
  24 C24            1.2017    -0.3212    -0.9197 C.3     
  25 C25            2.2274     0.7804    -0.5812 C.3     
  26 C26            1.4497     1.9381     0.0090 C.2     
  27 O27            1.9099     2.9833     0.4016 O.2     
  28 C28           -5.0185    -4.2059    -0.8568 C.ar    
  29 N29           -6.1543    -4.7826    -1.2023 N.ar    
  30 C30           -7.2532    -4.0585    -1.3294 C.ar    
  31 C31           -7.2173    -2.6953    -1.1011 C.ar    
  32 N32           -6.0845    -2.1118    -0.7494 N.ar    
  33 H33           -0.5165     1.9181    -0.8762 H       
  34 H34           -0.5070     1.9136     0.9149 H       
  35 H35            0.1766    -0.3956     1.0155 H       
  36 H36           -1.4777    -0.1246    -1.5481 H       
  37 H37           -1.2157    -1.6488    -0.6670 H       
  38 H38           -2.2391    -0.5913     1.3693 H       
  39 H39           -2.9918    -2.7596    -0.0943 H       
  40 H40           -3.2655     4.1213    -0.9616 H       
  41 H41           -2.1016     0.7348     3.1945 H       
  42 H42           -2.0665     2.5635     4.8108 H       
  43 H43           -2.4953     4.8758     4.0981 H       
  44 H44           -1.3750     5.6392    -0.2019 H       
  45 H45           -1.2204     8.0214    -1.0595 H       
  46 H46           -2.3749     8.5742     0.2683 H       
  47 H47           -0.7442     7.7519     2.0286 H       
  48 H48            0.4104     7.1991     0.7009 H       
  49 H49            1.6111    -1.3068    -0.6982 H       
  50 H50            0.9011    -0.2564    -1.9654 H       
  51 H51            2.9488     0.4071     0.1457 H       
  52 H52            2.7425     1.1008    -1.4869 H       
  53 H53           -4.1210    -4.7978    -0.7535 H       
  54 H54           -8.1812    -4.5329    -1.6126 H       
  55 H55           -8.1170    -2.1071    -1.2058 H       
@<TRIPOS>BOND
   1    1    2 1
   2    1   26 1
   3    1   33 1
   4    1   34 1
   5    2    3 1
   6    2   24 1
   7    2   35 1
   8    3    4 1
   9    3   36 1
  10    3   37 1
  11    4    5 1
  12    4    8 1
  13    4   38 1
  14    5    6 am
  15    5   13 2
  16    6    7 1
  17    6   39 1
  18    7   28 ar
  19    7   32 ar
  20    8    9 1
  21    8   12 1
  22    9   10 ar
  23    9   14 ar
  24   10   11 1
  25   10   17 ar
  26   11   12 2
  27   11   40 1
  28   14   15 ar
  29   14   41 1
  30   15   16 ar
  31   15   42 1
  32   16   17 ar
  33   16   43 1
  34   17   18 1
  35   18   19 1
  36   18   20 2
  37   18   21 2
  38   19   22 1
  39   19   23 1
  40   19   44 1
  41   22   23 1
  42   22   45 1
  43   22   46 1
  44   23   47 1
  45   23   48 1
  46   24   25 1
  47   24   49 1
  48   24   50 1
  49   25   26 1
  50   25   51 1
  51   25   52 1
  52   26   27 2
  53   28   29 ar
  54   28   53 1
  55   29   30 ar
  56   30   31 ar
  57   30   54 1
  58   31   32 ar
  59   31   55 1

#	End of record

