#	Name: ASD00840825
#	Creating user name:	WinNT
#	Creation time:	15. 06. 2019 18:40

#	Modifying user name:	WinNT
#	Modification time:	15. 06. 2019 18:40

#	Program:	/corina/corina34_cracker 3.40 0067  02.08.2006

@<TRIPOS>MOLECULE
ASD00840825
  88   93    0    0    0
SMALL
NO_CHARGES


@<TRIPOS>ATOM
   1 N1             1.0766     1.4653    -0.7094 N.ar    
   2 C2             1.3351     0.1740    -0.8313 C.ar    
   3 C3             1.2530    -0.6711     0.2682 C.ar    
   4 C4             0.8964    -0.1444     1.4971 C.ar    
   5 C5             0.6332     1.2160     1.5832 C.ar    
   6 C6             0.7342     1.9965     0.4490 C.ar    
   7 C7             1.5480    -2.1420     0.1244 C.3     
   8 C8             1.2654    -2.8686     1.4218 C.2     
   9 C9             0.7249    -2.7431    -1.0167 C.3     
  10 C10           -0.7367    -2.4567    -0.7869 C.2     
  11 N11           -1.6635    -2.9741    -1.6174 N.am    
  12 O12           -1.0789    -1.7605     0.1454 O.2     
  13 C13           -3.0809    -2.6144    -1.4747 C.3     
  14 C14           -3.9068    -3.8996    -1.3621 C.3     
  15 C15           -3.6050    -4.8018    -2.5609 C.3     
  16 C16           -2.1218    -5.1790    -2.5570 C.3     
  17 C17           -1.2749    -3.9039    -2.6866 C.3     
  18 N18           -4.4202    -6.0208    -2.4735 N.3     
  19 C19           -4.2454    -6.8580    -3.6686 C.3     
  20 C20           -5.0468    -8.1514    -3.5037 C.3     
  21 N21           -6.4643    -7.8234    -3.2966 N.3     
  22 C22           -6.6390    -6.9862    -2.1016 C.3     
  23 C23           -5.8376    -5.6927    -2.2665 C.3     
  24 C24           -7.2794    -9.0424    -3.2092 C.3     
  25 O25            0.1935    -2.9481     1.9839 O.2     
  26 N26            2.4240    -3.4097     1.8340 N.am    
  27 C27            3.0249    -2.3655    -0.1093 C.ar    
  28 C28            3.4772    -3.1339     0.9586 C.ar    
  29 C29            3.8821    -1.9643    -1.1102 C.ar    
  30 C30            5.6907    -3.0948     0.0013 C.ar    
  31 C31            4.8174    -3.4985     1.0109 C.ar    
  32 C32            2.2876    -5.9847     2.7958 C.ar    
  33 C33            3.3374    -6.7922     2.3988 C.ar    
  34 C34            1.0056    -6.4979     2.8656 C.ar    
  35 C35            0.7706    -7.8194     2.5386 C.ar    
  36 C36            1.8223    -8.6317     2.1400 C.ar    
  37 C37            3.1076    -8.1142     2.0704 C.ar    
  38 O38            1.5937    -9.9321     1.8183 O.3     
  39 H39            4.3379    -6.3890     2.3451 H       
  40 C40            2.7236   -10.7092     1.4165 C.3     
  41 C41            5.2177    -2.3245    -1.0659 C.ar    
  42 F42            6.0599    -1.9328    -2.0469 F       
  43 S43            2.5852    -4.3007     3.2205 S.o2    
  44 O44            3.9535    -4.2170     3.5945 O.2     
  45 O45            1.5203    -3.9084     4.0756 O.2     
  46 O46            1.6832    -0.3302    -2.0418 O.3     
  47 C47            2.1749    -0.1432    -4.4006 C.3     
  48 C48            1.6416     0.5659    -3.1542 C.3     
  49 C49            7.0714    -3.4706     0.0565 C.1     
  50 N50            8.1668    -3.7686     0.1002 N.1     
  51 H51            0.8242    -0.7772     2.3693 H       
  52 H52            0.3520     1.6589     2.5272 H       
  53 H53            0.5308     3.0554     0.5107 H       
  54 H54            1.0376    -2.3006    -1.9625 H       
  55 H55            0.8830    -3.8211    -1.0500 H       
  56 H56           -3.2165    -2.0130    -0.5758 H       
  57 H57           -3.4038    -2.0478    -2.3480 H       
  58 H58           -3.6463    -4.4200    -0.4405 H       
  59 H59           -4.9679    -3.6505    -1.3523 H       
  60 H60           -3.8425    -4.2718    -3.4832 H       
  61 H61           -1.8781    -5.6873    -1.6241 H       
  62 H62           -1.9124    -5.8404    -3.3977 H       
  63 H63           -1.4518    -3.4450    -3.6594 H       
  64 H64           -0.2190    -4.1547    -2.5852 H       
  65 H65           -4.6022    -6.3185    -4.5459 H       
  66 H66           -3.1895    -7.0978    -3.7933 H       
  67 H67           -4.9420    -8.7611    -4.4011 H       
  68 H68           -4.6719    -8.7042    -2.6423 H       
  69 H69           -7.6950    -6.7463    -1.9768 H       
  70 H70           -6.2822    -7.5257    -1.2242 H       
  71 H71           -5.9425    -5.0831    -1.3690 H       
  72 H72           -6.2125    -5.1400    -3.1279 H       
  73 H73           -6.9355    -9.6502    -2.3724 H       
  74 H74           -8.3239    -8.7708    -3.0560 H       
  75 H75           -7.1837    -9.6105    -4.1345 H       
  76 H76            3.5113    -1.3681    -1.9308 H       
  77 H77            5.1830    -4.0934     1.8348 H       
  78 H78            0.1874    -5.8653     3.1763 H       
  79 H79           -0.2308    -8.2199     2.5937 H       
  80 H80            3.9280    -8.7447     1.7607 H       
  81 H81            3.1747   -10.2632     0.5301 H       
  82 H82            3.4551   -10.7316     2.2243 H       
  83 H83            2.4029   -11.7257     1.1885 H       
  84 H84            2.2252     0.5648    -5.2279 H       
  85 H85            3.1713    -0.5355    -4.1971 H       
  86 H86            1.5082    -0.9640    -4.6649 H       
  87 H87            0.6129     0.8817    -3.3280 H       
  88 H88            2.2585     1.4388    -2.9408 H       
@<TRIPOS>BOND
   1    1    2 ar
   2    1    6 ar
   3    2    3 ar
   4    2   46 1
   5    3    4 ar
   6    3    7 1
   7    4    5 ar
   8    4   51 1
   9    5    6 ar
  10    5   52 1
  11    6   53 1
  12    7    8 1
  13    7    9 1
  14    7   27 1
  15    8   25 2
  16    8   26 am
  17    9   10 1
  18    9   54 1
  19    9   55 1
  20   10   11 am
  21   10   12 2
  22   11   13 1
  23   11   17 1
  24   13   14 1
  25   13   56 1
  26   13   57 1
  27   14   15 1
  28   14   58 1
  29   14   59 1
  30   15   16 1
  31   15   18 1
  32   15   60 1
  33   16   17 1
  34   16   61 1
  35   16   62 1
  36   17   63 1
  37   17   64 1
  38   18   19 1
  39   18   23 1
  40   19   20 1
  41   19   65 1
  42   19   66 1
  43   20   21 1
  44   20   67 1
  45   20   68 1
  46   21   22 1
  47   21   24 1
  48   22   23 1
  49   22   69 1
  50   22   70 1
  51   23   71 1
  52   23   72 1
  53   24   73 1
  54   24   74 1
  55   24   75 1
  56   26   43 am
  57   26   28 1
  58   27   28 ar
  59   27   29 ar
  60   28   31 ar
  61   29   41 ar
  62   29   76 1
  63   30   31 ar
  64   30   49 1
  65   30   41 ar
  66   31   77 1
  67   32   33 ar
  68   32   34 ar
  69   32   43 1
  70   33   39 1
  71   33   37 ar
  72   34   35 ar
  73   34   78 1
  74   35   36 ar
  75   35   79 1
  76   36   37 ar
  77   36   38 1
  78   37   80 1
  79   38   40 1
  80   40   81 1
  81   40   82 1
  82   40   83 1
  83   41   42 1
  84   43   44 2
  85   43   45 2
  86   46   48 1
  87   47   48 1
  88   47   84 1
  89   47   85 1
  90   47   86 1
  91   48   87 1
  92   48   88 1
  93   49   50 3

#	End of record

