#	Name: ASD01230226
#	Creating user name:	WinNT
#	Creation time:	15. 06. 2019 19:12

#	Modifying user name:	WinNT
#	Modification time:	15. 06. 2019 19:12

#	Program:	/corina/corina34_cracker 3.40 0067  02.08.2006

@<TRIPOS>MOLECULE
ASD01230226
  34   36    0    0    0
SMALL
NO_CHARGES


@<TRIPOS>ATOM
   1 C1            -0.2105     1.3425     1.5460 C.ar    
   2 C2            -0.1487     0.1192     0.8635 C.ar    
   3 C3             1.0861    -0.3288     0.3949 C.ar    
   4 C4             2.2044     0.4592     0.6256 C.ar    
   5 C5             2.0645     1.6539     1.3064 C.ar    
   6 N6             0.8850     2.0575     1.7407 N.ar    
   7 N7            -1.4314     1.8093     2.0157 N.pl3   
   8 C8            -1.3752    -0.6848     0.6442 C.ar    
   9 C9            -1.6792    -1.1618    -0.6300 C.ar    
  10 C10           -2.8206    -1.9092    -0.8308 C.ar    
  11 C11           -3.6668    -2.1866     0.2345 C.ar    
  12 C12           -3.3668    -1.7129     1.5048 C.ar    
  13 C13           -2.2239    -0.9699     1.7130 C.ar    
  14 O14           -4.7909    -2.9229     0.0335 O.3     
  15 C15           -5.9413    -2.2629    -0.2621 C.ar    
  16 C16           -5.9240    -0.8893    -0.4576 C.ar    
  17 C17           -7.0949    -0.2208    -0.7584 C.ar    
  18 C18           -8.2835    -0.9193    -0.8643 C.ar    
  19 C19           -8.3035    -2.2881    -0.6699 C.ar    
  20 C20           -7.1346    -2.9622    -0.3745 C.ar    
  21 Cl21           3.7659    -0.0512     0.0645 Cl      
  22 H22            1.1698    -1.2665    -0.1343 H       
  23 H23            2.9349     2.2676     1.4862 H       
  24 H24           -2.2375     1.2895     1.8712 H       
  25 H25           -1.4779     2.6552     2.4882 H       
  26 H26           -1.0215    -0.9460    -1.4591 H       
  27 H27           -3.0567    -2.2787    -1.8177 H       
  28 H28           -4.0269    -1.9304     2.3314 H       
  29 H29           -1.9886    -0.6058     2.7021 H       
  30 H30           -4.9960    -0.3431    -0.3743 H       
  31 H31           -7.0819     0.8483    -0.9107 H       
  32 H32           -9.1979    -0.3947    -1.0989 H       
  33 H33           -9.2333    -2.8313    -0.7528 H       
  34 H34           -7.1500    -4.0320    -0.2269 H       
@<TRIPOS>BOND
   1    1    2 ar
   2    1    6 ar
   3    1    7 1
   4    2    3 ar
   5    2    8 1
   6    3    4 ar
   7    3   22 1
   8    4    5 ar
   9    4   21 1
  10    5    6 ar
  11    5   23 1
  12    7   24 1
  13    7   25 1
  14    8    9 ar
  15    8   13 ar
  16    9   10 ar
  17    9   26 1
  18   10   11 ar
  19   10   27 1
  20   11   12 ar
  21   11   14 1
  22   12   13 ar
  23   12   28 1
  24   13   29 1
  25   14   15 1
  26   15   16 ar
  27   15   20 ar
  28   16   17 ar
  29   16   30 1
  30   17   18 ar
  31   17   31 1
  32   18   19 ar
  33   18   32 1
  34   19   20 ar
  35   19   33 1
  36   20   34 1

#	End of record

