#	Name: ASD01411021
#	Creating user name:	WinNT
#	Creation time:	15. 06. 2019 19:19

#	Modifying user name:	WinNT
#	Modification time:	15. 06. 2019 19:19

#	Program:	/corina/corina34_cracker 3.40 0067  02.08.2006

@<TRIPOS>MOLECULE
ASD01411021
  77   82    0    0    0
SMALL
NO_CHARGES


@<TRIPOS>ATOM
   1 C1            -0.4622     3.6086    -0.7355 C.ar    
   2 C2            -0.0637     2.3457    -0.2571 C.ar    
   3 C3            -1.0180     1.3835     0.0521 C.ar    
   4 C4            -2.3457     1.6577    -0.1069 C.ar    
   5 C5            -2.7608     2.9088    -0.5817 C.ar    
   6 C6            -1.8208     3.8868    -0.8918 C.ar    
   7 N7             0.6649     4.3315    -0.9494 N.2     
   8 C8             1.7162     3.6083    -0.6389 C.2     
   9 N9             1.3146     2.3705    -0.2051 N.pl3   
  10 C10            2.1872     1.2783     0.2329 C.3     
  11 C11            1.8825     0.9361     1.6926 C.3     
  12 C12            2.7938    -0.2046     2.1500 C.3     
  13 C13            2.5479    -1.4357     1.2755 C.3     
  14 C14            2.8527    -1.0935    -0.1842 C.3     
  15 C15            1.9414     0.0472    -0.6416 C.3     
  16 C16           -4.2004     3.1921    -0.7489 C.2     
  17 O17           -4.5626     4.2771    -1.1608 O.2     
  18 N18           -5.1128     2.2478    -0.4449 N.am    
  19 C19           -6.5422     2.5613    -0.5137 C.3     
  20 C20           -6.9845     2.9766    -1.8932 C.2     
  21 O21           -7.8709     3.7938    -2.0254 O.2     
  22 C22            3.1130     4.0574    -0.7416 C.2     
  23 C23           -7.4397     1.4876     0.1238 C.3     
  24 C24           -8.2861     2.6415     0.6868 C.3     
  25 C25           -7.0187     3.5110     0.5980 C.3     
  26 N26           -6.3952     2.4398    -2.9799 N.am    
  27 C27           -6.8202     2.8069    -4.2565 C.ar    
  28 C28           -6.7760     1.8816    -5.2952 C.ar    
  29 C29           -7.1939     2.2394    -6.5565 C.ar    
  30 C30           -7.6646     3.5365    -6.7940 C.ar    
  31 C31           -7.7077     4.4639    -5.7459 C.ar    
  32 C32           -7.2926     4.0956    -4.4866 C.ar    
  33 C33           -8.1115     3.9235    -8.1392 C.2     
  34 C34           -8.5653     5.1757    -8.3661 C.2     
  35 C35            3.9913     3.7349    -1.7373 C.2     
  36 C36            5.2045     4.3726    -1.4452 C.2     
  37 C37            5.0416     5.0613    -0.2925 C.2     
  38 N38            3.7660     4.8810     0.1434 N.pl3   
  39 C39           -8.9965     5.5490    -9.6641 C.2     
  40 O40           -8.9579     4.7420   -10.5735 O.2     
  41 O41           -9.4497     6.7996    -9.8907 O.3     
  42 C42            3.1878     5.4603     1.3585 C.3     
  43 H43           -0.7080     0.4160     0.4188 H       
  44 H44           -3.0813     0.9048     0.1348 H       
  45 H45           -2.1399     4.8514    -1.2578 H       
  46 H46            3.2288     1.5865     0.1418 H       
  47 H47            2.0576     1.8132     2.3156 H       
  48 H48            0.8409     0.6279     1.7837 H       
  49 H49            3.8353     0.1036     2.0589 H       
  50 H50            2.5767    -0.4484     3.1900 H       
  51 H51            3.1971    -2.2484     1.6014 H       
  52 H52            1.5064    -1.7440     1.3666 H       
  53 H53            3.8942    -0.7853    -0.2753 H       
  54 H54            2.6775    -1.9706    -0.8072 H       
  55 H55            0.8998    -0.2611    -0.5505 H       
  56 H56            2.1585     0.2910    -1.6816 H       
  57 H57           -4.8230     1.3607    -0.1806 H       
  58 H58           -7.9690     0.8725    -0.6040 H       
  59 H59           -6.9380     0.8989     0.8918 H       
  60 H60           -9.0836     2.9648     0.0179 H       
  61 H61           -8.6304     2.4729     1.7072 H       
  62 H62           -6.4014     3.4760     1.4956 H       
  63 H63           -7.2099     4.5275     0.2538 H       
  64 H64           -5.6754     1.7983    -2.8742 H       
  65 H65           -6.4128     0.8813    -5.1110 H       
  66 H66           -7.1586     1.5209    -7.3621 H       
  67 H67           -8.0696     5.4656    -5.9246 H       
  68 H68           -7.3258     4.8101    -3.6775 H       
  69 H69           -8.0772     3.2070    -8.9466 H       
  70 H70           -8.5995     5.8922    -7.5588 H       
  71 H71            3.7884     3.1049    -2.5907 H       
  72 H72            6.1079     4.3230    -2.0350 H       
  73 H73            5.7967     5.6583     0.1972 H       
  74 H74           -9.7207     6.9601   -10.8050 H       
  75 H75            2.6657     6.3837     1.1078 H       
  76 H76            2.4846     4.7534     1.7989 H       
  77 H77            3.9828     5.6747     2.0727 H       
@<TRIPOS>BOND
   1    1    2 ar
   2    1    7 1
   3    1    6 ar
   4    2    3 ar
   5    2    9 1
   6    3    4 ar
   7    3   43 1
   8    4    5 ar
   9    4   44 1
  10    5    6 ar
  11    5   16 1
  12    6   45 1
  13    7    8 2
  14    8    9 1
  15    8   22 1
  16    9   10 1
  17   10   11 1
  18   10   15 1
  19   10   46 1
  20   11   12 1
  21   11   47 1
  22   11   48 1
  23   12   13 1
  24   12   49 1
  25   12   50 1
  26   13   14 1
  27   13   51 1
  28   13   52 1
  29   14   15 1
  30   14   53 1
  31   14   54 1
  32   15   55 1
  33   15   56 1
  34   16   17 2
  35   16   18 am
  36   18   19 1
  37   18   57 1
  38   19   20 1
  39   19   23 1
  40   19   25 1
  41   20   21 2
  42   20   26 am
  43   22   35 2
  44   22   38 1
  45   23   24 1
  46   23   58 1
  47   23   59 1
  48   24   25 1
  49   24   60 1
  50   24   61 1
  51   25   62 1
  52   25   63 1
  53   26   27 1
  54   26   64 1
  55   27   28 ar
  56   27   32 ar
  57   28   29 ar
  58   28   65 1
  59   29   30 ar
  60   29   66 1
  61   30   31 ar
  62   30   33 1
  63   31   32 ar
  64   31   67 1
  65   32   68 1
  66   33   34 2
  67   33   69 1
  68   34   39 1
  69   34   70 1
  70   35   36 1
  71   35   71 1
  72   36   37 2
  73   36   72 1
  74   37   38 1
  75   37   73 1
  76   38   42 1
  77   39   40 2
  78   39   41 1
  79   41   74 1
  80   42   75 1
  81   42   76 1
  82   42   77 1

#	End of record

