#	Name: ASD00960082
#	Creating user name:	WinNT
#	Creation time:	15. 06. 2019 18:53

#	Modifying user name:	WinNT
#	Modification time:	15. 06. 2019 18:53

#	Program:	/corina/corina34_cracker 3.40 0067  02.08.2006

@<TRIPOS>MOLECULE
ASD00960082
  36   38    0    0    0
SMALL
NO_CHARGES


@<TRIPOS>ATOM
   1 C1            -0.0146     1.3567     0.0540 C.3     
   2 C2             0.0620    -0.1838    -0.0319 C.3     
   3 O3            -0.0615    -0.4815    -1.4397 O.3     
   4 C4            -1.0715     0.4252    -1.9332 C.3     
   5 C5            -0.9487     0.5850    -3.4499 C.3     
   6 C6             1.3869    -0.6733     0.4936 C.2     
   7 C7             1.6757    -0.9166     1.7994 C.2     
   8 N8             2.4715    -0.9449    -0.2556 N.pl3   
   9 C9             3.4876    -1.3676     0.5800 C.2     
  10 C10            2.9993    -1.3537     1.8720 C.2     
  11 N11            2.7274    -0.8784    -1.6325 N.2     
  12 C12            3.9007    -1.2109    -2.0956 C.2     
  13 N13            4.8894    -1.6201    -1.3024 N.2     
  14 C14            4.7340    -1.7114     0.0079 C.2     
  15 O15           -1.2658    -0.6544    -4.0866 O.3     
  16 N16            5.7755    -2.1384     0.8069 N.pl3   
  17 C17            3.7516    -1.7360     3.1206 C.3     
  18 C18           -0.7775     1.7666    -1.2256 C.3     
  19 O19            1.2971     1.9238     0.0583 O.3     
  20 O20           -1.9960     2.4334    -0.8901 O.3     
  21 *21           -2.4544     3.3241    -1.8825 Du      
  22 H22           -0.5648     1.6627     0.9437 H       
  23 H23           -0.7586    -0.6361     0.5250 H       
  24 H24           -2.0659     0.0663    -1.6679 H       
  25 H25           -1.6395     1.3560    -3.7911 H       
  26 H26            0.0715     0.8731    -3.7034 H       
  27 H27            1.0005    -0.7935     2.6332 H       
  28 H28            4.0764    -1.1527    -3.1597 H       
  29 H29           -1.2086    -0.6268    -5.0515 H       
  30 H30            6.5907    -2.4744     0.4027 H       
  31 H31            5.6921    -2.1024     1.7727 H       
  32 H32            4.3305    -0.8819     3.4718 H       
  33 H33            3.0441    -2.0378     3.8929 H       
  34 H34            4.4242    -2.5649     2.9000 H       
  35 H35           -0.1541     2.4018    -1.8549 H       
  36 H36            1.3080     2.8893     0.1109 H       
@<TRIPOS>BOND
   1    1    2 1
   2    1   19 1
   3    1   18 1
   4    1   22 1
   5    2    3 1
   6    2    6 1
   7    2   23 1
   8    3    4 1
   9    4   18 1
  10    4    5 1
  11    4   24 1
  12    5   15 1
  13    5   25 1
  14    5   26 1
  15    6    7 2
  16    6    8 1
  17    7   10 1
  18    7   27 1
  19    8    9 1
  20    8   11 1
  21    9   10 2
  22    9   14 1
  23   10   17 1
  24   11   12 2
  25   12   13 1
  26   12   28 1
  27   13   14 2
  28   14   16 1
  29   15   29 1
  30   16   30 1
  31   16   31 1
  32   17   32 1
  33   17   33 1
  34   17   34 1
  35   18   20 1
  36   18   35 1
  37   19   36 1
  38   20   21 1

#	End of record

