#	Name: ASD08830074
#	Creating user name:	WinNT
#	Creation time:	15. 06. 2019 21:19

#	Modifying user name:	WinNT
#	Modification time:	15. 06. 2019 21:19

#	Program:	/corina/corina34_cracker 3.40 0067  02.08.2006

@<TRIPOS>MOLECULE
ASD08830074
  38   40    0    0    0
SMALL
NO_CHARGES


@<TRIPOS>ATOM
   1 C1            -0.0180     1.4725     0.0101 C.ar    
   2 C2             0.0021    -0.0041     0.0020 C.2     
   3 C3             1.3172    -0.7397    -0.0145 C.3     
   4 C4             1.0581    -2.2476    -0.0201 C.3     
   5 N5             2.3401    -2.9647    -0.0362 N.3     
   6 O6            -1.0360    -0.6224     0.0086 O.2     
   7 C7             2.1422    -4.4028     0.1963 C.3     
   8 C8             3.4931    -5.1184     0.1121 C.3     
   9 O9             4.3950    -4.5362     1.0571 O.3     
  10 C10            4.6112    -3.1363     0.8596 C.3     
  11 C11            3.2717    -2.4007     0.9513 C.3     
  12 N12            1.1251     2.1335     0.0028 N.ar    
  13 C13            1.1544     3.4650     0.0092 C.ar    
  14 C14           -0.0598     4.2016     0.0242 C.ar    
  15 C15           -1.2841     3.5067     0.0318 C.ar    
  16 C16           -1.2527     2.1424     0.0197 C.ar    
  17 C17            2.3775     4.1633     0.0018 C.ar    
  18 C18            2.3778     5.5234     0.0090 C.ar    
  19 C19            1.1841     6.2435     0.0242 C.ar    
  20 C20           -0.0185     5.6046     0.0308 C.ar    
  21 H21            1.8766    -0.4639    -0.9084 H       
  22 H22            1.8936    -0.4734     0.8715 H       
  23 H23            0.4987    -2.5235     0.8738 H       
  24 H24            0.4817    -2.5139    -0.9061 H       
  25 H25            1.7104    -4.5556     1.1854 H       
  26 H26            1.4696    -4.8048    -0.5613 H       
  27 H27            3.3596    -6.1759     0.3402 H       
  28 H28            3.8999    -5.0108    -0.8933 H       
  29 H29            5.2863    -2.7603     1.6283 H       
  30 H30            5.0505    -2.9711    -0.1242 H       
  31 H31            3.4234    -1.3412     0.7449 H       
  32 H32            2.8579    -2.5214     1.9525 H       
  33 H33           -2.2235     4.0393     0.0435 H       
  34 H34           -2.1744     1.5794     0.0247 H       
  35 H35            3.3114     3.6210    -0.0092 H       
  36 H36            3.3182     6.0544     0.0033 H       
  37 H37            1.2136     7.3230     0.0303 H       
  38 H38           -0.9358     6.1746     0.0423 H       
@<TRIPOS>BOND
   1    1    2 1
   2    1   12 ar
   3    1   16 ar
   4    2    3 1
   5    2    6 2
   6    3    4 1
   7    3   21 1
   8    3   22 1
   9    4    5 1
  10    4   23 1
  11    4   24 1
  12    5    7 1
  13    5   11 1
  14    7    8 1
  15    7   25 1
  16    7   26 1
  17    8    9 1
  18    8   27 1
  19    8   28 1
  20    9   10 1
  21   10   11 1
  22   10   29 1
  23   10   30 1
  24   11   31 1
  25   11   32 1
  26   12   13 ar
  27   13   14 ar
  28   13   17 ar
  29   14   15 ar
  30   14   20 ar
  31   15   16 ar
  32   15   33 1
  33   16   34 1
  34   17   18 ar
  35   17   35 1
  36   18   19 ar
  37   18   36 1
  38   19   20 ar
  39   19   37 1
  40   20   38 1

#	End of record

