#	Name: ASD03912037
#	Creating user name:	WinNT
#	Creation time:	15. 06. 2019 20:47

#	Modifying user name:	WinNT
#	Modification time:	15. 06. 2019 20:47

#	Program:	/corina/corina34_cracker 3.40 0067  02.08.2006

@<TRIPOS>MOLECULE
ASD03912037
  73   77    0    0    0
SMALL
NO_CHARGES


@<TRIPOS>ATOM
   1 C1            -0.0099    15.6786    -6.1724 C.ar    
   2 C2             1.0808    16.4725    -6.4762 C.ar    
   3 C3             2.3524    16.0779    -6.1028 C.ar    
   4 C4             2.5369    14.8885    -5.4253 C.ar    
   5 C5             1.4437    14.0889    -5.1188 C.ar    
   6 C6             0.1673    14.4911    -5.4898 C.ar    
   7 C7            -1.3939    16.1125    -6.5813 C.3     
   8 C8             3.5382    16.9462    -6.4358 C.3     
   9 N9             1.6272    12.8834    -4.4326 N.am    
  10 C10            0.6824    12.4440    -3.5777 C.2     
  11 C11            0.8021    11.0738    -2.9618 C.3     
  12 O12           -0.2641    13.1513    -3.3041 O.2     
  13 C13           -0.4340    10.7772    -2.1524 C.ar    
  14 C14           -1.4822    10.0796    -2.7236 C.ar    
  15 C15           -2.6163     9.8065    -1.9837 C.ar    
  16 C16           -2.7030    10.2329    -0.6664 C.ar    
  17 C17           -1.6500    10.9327    -0.0955 C.ar    
  18 C18           -0.5156    11.1984    -0.8379 C.ar    
  19 O19           -3.8179     9.9658     0.0635 O.3     
  20 C20           -3.7907    10.3281     1.4455 C.3     
  21 C21           -2.6317     9.6535     2.1330 C.2     
  22 C22           -3.6713    11.8556     1.5878 C.3     
  23 C23           -4.9285    12.3271     2.3475 C.3     
  24 C24           -5.3946    11.0720     3.1263 C.3     
  25 C25           -5.1158     9.9235     2.1240 C.3     
  26 N26           -2.2813     8.3986     1.7880 N.am    
  27 O27           -2.0142    10.2398     2.9966 O.2     
  28 C28           -1.0870     7.7845     2.3734 C.3     
  29 C29           -1.4557     7.0993     3.6639 C.2     
  30 O30           -2.5988     7.1216     4.0546 O.2     
  31 O31           -0.5142     6.4641     4.3794 O.3     
  32 N32           -0.5356     6.8007     1.4383 N.pl3   
  33 C33           -1.2568     6.1261     0.4912 C.2     
  34 C34           -0.4508     5.3018    -0.1965 C.2     
  35 C35            0.8967     5.4615     0.3554 C.ar    
  36 C36            0.7866     6.4214     1.3778 C.ar    
  37 C37            2.1373     4.8888     0.0681 C.ar    
  38 C38            3.2385     5.2602     0.7865 C.ar    
  39 C39            3.1340     6.2025     1.8007 C.ar    
  40 C40            1.9214     6.7860     2.0954 C.ar    
  41 H41            0.9392    17.4027    -7.0064 H       
  42 H42            3.5304    14.5805    -5.1346 H       
  43 H43           -0.6850    13.8716    -5.2526 H       
  44 H44           -1.5842    15.8000    -7.6080 H       
  45 H45           -2.1288    15.6538    -5.9197 H       
  46 H46           -1.4698    17.1976    -6.5118 H       
  47 H47            3.7144    17.6487    -5.6212 H       
  48 H48            4.4199    16.3202    -6.5728 H       
  49 H49            3.3380    17.4979    -7.3543 H       
  50 H50            2.4344    12.3639    -4.5721 H       
  51 H51            0.9072    10.3288    -3.7506 H       
  52 H52            1.6774    11.0422    -2.3132 H       
  53 H53           -1.4143     9.7482    -3.7493 H       
  54 H54           -3.4350     9.2618    -2.4305 H       
  55 H55           -1.7151    11.2657     0.9298 H       
  56 H56            0.3044    11.7431    -0.3940 H       
  57 H57           -2.7755    12.1089     2.1547 H       
  58 H58           -3.6341    12.3206     0.6026 H       
  59 H59           -4.6776    13.1328     3.0373 H       
  60 H60           -5.6990    12.6494     1.6471 H       
  61 H61           -4.8076    10.9415     4.0355 H       
  62 H62           -6.4580    11.1336     3.3574 H       
  63 H63           -5.9163     9.8573     1.3873 H       
  64 H64           -5.0020     8.9763     2.6513 H       
  65 H65           -2.8199     7.9022     1.1521 H       
  66 H66           -0.3419     8.5551     2.5711 H       
  67 H67           -0.7986     6.0394     5.2002 H       
  68 H68           -2.3174     6.2400     0.3220 H       
  69 H69           -0.7410     4.6449    -1.0032 H       
  70 H70            2.2260     4.1546    -0.7190 H       
  71 H71            4.1978     4.8169     0.5639 H       
  72 H72            4.0134     6.4855     2.3601 H       
  73 H73            1.8504     7.5183     2.8861 H       
@<TRIPOS>BOND
   1    1    2 ar
   2    1    7 1
   3    1    6 ar
   4    2    3 ar
   5    2   41 1
   6    3    4 ar
   7    3    8 1
   8    4    5 ar
   9    4   42 1
  10    5    6 ar
  11    5    9 1
  12    6   43 1
  13    7   44 1
  14    7   45 1
  15    7   46 1
  16    8   47 1
  17    8   48 1
  18    8   49 1
  19    9   10 am
  20    9   50 1
  21   10   11 1
  22   10   12 2
  23   11   13 1
  24   11   51 1
  25   11   52 1
  26   13   14 ar
  27   13   18 ar
  28   14   15 ar
  29   14   53 1
  30   15   16 ar
  31   15   54 1
  32   16   17 ar
  33   16   19 1
  34   17   18 ar
  35   17   55 1
  36   18   56 1
  37   19   20 1
  38   20   21 1
  39   20   22 1
  40   20   25 1
  41   21   26 am
  42   21   27 2
  43   22   23 1
  44   22   57 1
  45   22   58 1
  46   23   24 1
  47   23   59 1
  48   23   60 1
  49   24   25 1
  50   24   61 1
  51   24   62 1
  52   25   63 1
  53   25   64 1
  54   26   28 1
  55   26   65 1
  56   28   29 1
  57   28   32 1
  58   28   66 1
  59   29   30 2
  60   29   31 1
  61   31   67 1
  62   32   33 1
  63   32   36 1
  64   33   34 2
  65   33   68 1
  66   34   35 1
  67   34   69 1
  68   35   36 ar
  69   35   37 ar
  70   36   40 ar
  71   37   38 ar
  72   37   70 1
  73   38   39 ar
  74   38   71 1
  75   39   40 ar
  76   39   72 1
  77   40   73 1

#	End of record

