#	Name: ASD01885051
#	Creating user name:	WinNT
#	Creation time:	15. 06. 2019 19:49

#	Modifying user name:	WinNT
#	Modification time:	15. 06. 2019 19:49

#	Program:	/corina/corina34_cracker 3.40 0067  02.08.2006

@<TRIPOS>MOLECULE
ASD01885051
  47   50    0    0    0
SMALL
NO_CHARGES


@<TRIPOS>ATOM
   1 C1            -1.1685     0.5247     0.9481 C.3     
   2 C2            -0.5677    -0.8800     0.8655 C.3     
   3 H3            -1.2503    -1.5953     1.3244 H       
   4 C4            -0.3453    -1.2545    -0.5992 C.3     
   5 N5             0.4948    -2.4370    -0.7535 N.am    
   6 C6             1.5858    -2.6399     0.0230 C.2     
   7 O7             2.3976    -3.5111    -0.2261 O.2     
   8 C8             1.7360    -1.7482     1.1847 C.2     
   9 C9             2.7924    -1.5641     2.0489 C.2     
  10 C10            2.3865    -0.5667     2.9681 C.2     
  11 C11            1.1259    -0.1934     2.6400 C.2     
  12 N12            0.7169    -0.9057     1.5730 N.pl3   
  13 C13            4.0904    -2.2678     2.0225 C.2     
  14 O14            4.3087    -3.1090     1.1723 O.2     
  15 N15            5.0331    -1.9776     2.9410 N.am    
  16 C16            6.2232    -2.7114     2.9776 C.ar    
  17 C17            6.8004    -3.1808     1.8003 C.ar    
  18 C18            7.9797    -3.9025     1.8879 C.ar    
  19 C19            8.5406    -4.1315     3.1304 C.ar    
  20 N20            7.9686    -3.6737     4.2270 N.ar    
  21 C21            6.8499    -2.9780     4.1883 C.ar    
  22 C22            0.1653    -3.3848    -1.7270 C.ar    
  23 C23           -0.6467    -4.4637    -1.4013 C.ar    
  24 C24           -0.9707    -5.3979    -2.3655 C.ar    
  25 C25           -0.4872    -5.2604    -3.6538 C.ar    
  26 C26            0.3214    -4.1875    -3.9813 C.ar    
  27 C27            0.6446    -3.2466    -3.0234 C.ar    
  28 C28           -0.8420    -6.2824    -4.7030 C.3     
  29 F29           -2.0186    -5.8944    -5.3528 F       
  30 F30            0.1972    -6.3738    -5.6351 F       
  31 F31           -1.0340    -7.5276    -4.0950 F       
  32 H32           -0.4855     1.2395     0.4891 H       
  33 H33           -2.1223     0.5435     0.4210 H       
  34 H34           -1.3256     0.7917     1.9931 H       
  35 H35           -1.3121    -1.4458    -1.0647 H       
  36 H36            0.1293    -0.4161    -1.1091 H       
  37 H37            2.9755    -0.1741     3.7838 H       
  38 H38            0.5415     0.5558     3.1533 H       
  39 H39            4.8862    -1.2598     3.5767 H       
  40 H40            6.3399    -2.9872     0.8428 H       
  41 H41            8.4552    -4.2821     0.9956 H       
  42 H42            9.4598    -4.6936     3.2042 H       
  43 H43            6.4139    -2.6153     5.1073 H       
  44 H44           -1.0241    -4.5720    -0.3952 H       
  45 H45           -1.6020    -6.2370    -2.1129 H       
  46 H46            0.6974    -4.0831    -4.9884 H       
  47 H47            1.2725    -2.4066    -3.2810 H       
@<TRIPOS>BOND
   1    1    2 1
   2    1   32 1
   3    1   33 1
   4    1   34 1
   5    2    3 1
   6    2   12 1
   7    2    4 1
   8    4    5 1
   9    4   35 1
  10    4   36 1
  11    5    6 am
  12    5   22 1
  13    6    7 2
  14    6    8 1
  15    8   12 1
  16    8    9 2
  17    9   10 1
  18    9   13 1
  19   10   11 2
  20   10   37 1
  21   11   12 1
  22   11   38 1
  23   13   14 2
  24   13   15 am
  25   15   16 1
  26   15   39 1
  27   16   21 ar
  28   16   17 ar
  29   17   18 ar
  30   17   40 1
  31   18   19 ar
  32   18   41 1
  33   19   20 ar
  34   19   42 1
  35   20   21 ar
  36   21   43 1
  37   22   27 ar
  38   22   23 ar
  39   23   24 ar
  40   23   44 1
  41   24   25 ar
  42   24   45 1
  43   25   26 ar
  44   25   28 1
  45   26   27 ar
  46   26   46 1
  47   27   47 1
  48   28   29 1
  49   28   30 1
  50   28   31 1

#	End of record

