#	Name: ASD01900058
#	Creating user name:	WinNT
#	Creation time:	15. 06. 2019 19:51

#	Modifying user name:	WinNT
#	Modification time:	15. 06. 2019 19:51

#	Program:	/corina/corina34_cracker 3.40 0067  02.08.2006

@<TRIPOS>MOLECULE
ASD01900058
  35   36    0    0    0
SMALL
NO_CHARGES


@<TRIPOS>ATOM
   1 C1            -0.0395     1.5209    -0.0067 C.3     
   2 C2            -0.0148    -0.0089    -0.0134 C.3     
   3 C3             0.7083    -0.5018    -1.2685 C.3     
   4 C4             2.1424     0.0314    -1.2734 C.3     
   5 C5             2.1177     1.5612    -1.2666 C.3     
   6 C6             1.3946     2.0541    -0.0116 C.3     
   7 C7             2.8546    -0.4540    -2.5095 C.2     
   8 N8             2.9980    -1.7760    -2.7292 N.am    
   9 O9             3.7542     3.4099    -1.2668 O.3     
  10 C10            3.5302     2.0864    -1.2714 C.2     
  11 O11            4.4611     1.3162    -1.2794 O.2     
  12 O12            3.2988     0.3449    -3.3067 O.2     
  13 C13            3.5588    -2.2291    -3.9284 C.ar    
  14 C14            4.3538    -3.3675    -3.9380 C.ar    
  15 C15            3.3166    -1.5444    -5.1119 C.ar    
  16 C16            3.8718    -1.9941    -6.2953 C.ar    
  17 C17            4.6684    -3.1256    -6.3012 C.ar    
  18 C18            4.9067    -3.8130    -5.1241 C.ar    
  19 Cl19           3.5690    -1.1389    -7.7754 Cl      
  20 Cl20           5.9070    -5.2318    -5.1357 Cl      
  21 H21           -0.5636     1.8797    -0.8925 H       
  22 H22           -0.5546     1.8720     0.8874 H       
  23 H23            0.5093    -0.3678     0.8724 H       
  24 H24           -1.0365    -0.3888    -0.0100 H       
  25 H25            0.7259    -1.5916    -1.2733 H       
  26 H26            0.1842    -0.1430    -2.1543 H       
  27 H27            2.6664    -0.3274    -0.3875 H       
  28 H28            1.5936     1.9201    -2.1524 H       
  29 H29            1.3770     3.1439    -0.0068 H       
  30 H30            1.9187     1.6952     0.8742 H       
  31 H31            2.7125    -2.4133    -2.0561 H       
  32 H32            4.6769     3.6990    -1.2702 H       
  33 H33            4.5404    -3.9042    -3.0196 H       
  34 H34            2.6946    -0.6614    -5.1079 H       
  35 H35            5.1009    -3.4755    -7.2269 H       
@<TRIPOS>BOND
   1    1    2 1
   2    1    6 1
   3    1   21 1
   4    1   22 1
   5    2    3 1
   6    2   23 1
   7    2   24 1
   8    3    4 1
   9    3   25 1
  10    3   26 1
  11    4    5 1
  12    4    7 1
  13    4   27 1
  14    5    6 1
  15    5   10 1
  16    5   28 1
  17    6   29 1
  18    6   30 1
  19    7    8 am
  20    7   12 2
  21    8   13 1
  22    8   31 1
  23    9   10 1
  24    9   32 1
  25   10   11 2
  26   13   14 ar
  27   13   15 ar
  28   14   18 ar
  29   14   33 1
  30   15   16 ar
  31   15   34 1
  32   16   17 ar
  33   16   19 1
  34   17   18 ar
  35   17   35 1
  36   18   20 1

#	End of record

