#	Name: ASD03092181
#	Creating user name:	WinNT
#	Creation time:	15. 06. 2019 20:32

#	Modifying user name:	WinNT
#	Modification time:	15. 06. 2019 20:32

#	Program:	/corina/corina34_cracker 3.40 0067  02.08.2006

@<TRIPOS>MOLECULE
ASD03092181
  52   55    0    0    0
SMALL
NO_CHARGES


@<TRIPOS>ATOM
   1 N1            -0.0741     1.2882     1.2346 N.pl3   
   2 C2             0.0148    -0.0478     0.9780 C.2     
   3 C3            -1.2133    -0.4649     0.5497 C.2     
   4 C4            -2.0659     0.6462     0.5474 C.2     
   5 N5            -1.3873     1.6914     0.9612 N.2     
   6 C6             1.2203    -0.8909     1.1341 C.ar    
   7 C7             1.9123    -0.9380     2.3494 C.ar    
   8 C8             3.0314    -1.7380     2.4511 C.ar    
   9 N9             3.4503    -2.4510     1.4231 N.ar    
  10 C10            2.8273    -2.4354     0.2598 C.ar    
  11 C11            1.6970    -1.6681     0.0721 C.ar    
  12 C12            1.0096     2.1480     1.7169 C.3     
  13 N13           -3.4148     0.6421     0.1722 N.pl3   
  14 C14           -4.1257     1.8454     0.1042 C.ar    
  15 C15           -3.4674     3.0233    -0.2228 C.ar    
  16 C16           -4.1686     4.2126    -0.2909 C.ar    
  17 C17           -5.5293     4.2330    -0.0328 C.ar    
  18 C18           -6.1928     3.0528     0.2955 C.ar    
  19 C19           -5.4910     1.8608     0.3579 C.ar    
  20 O20           -7.5121     3.3366     0.5010 O.3     
  21 O21           -6.4345     5.2563    -0.0330 O.3     
  22 C22           -7.7270     4.6257    -0.1032 C.3     
  23 F23           -8.1328     4.4832    -1.4344 F       
  24 F24           -8.6714     5.3582     0.6241 F       
  25 C25            1.8280     2.6529     0.5268 C.3     
  26 C26            2.9427     3.5374     1.0229 C.2     
  27 C27            0.9923    -1.6574    -1.2600 C.3     
  28 N28            3.7982     4.0992     0.1459 N.am    
  29 O29            3.0701     3.7436     2.2112 O.2     
  30 C30            4.8819     4.9590     0.6282 C.3     
  31 C31            3.6444     3.8501    -1.2895 C.3     
  32 H32           -1.4792    -1.4718     0.2634 H       
  33 H33            1.5755    -0.3565     3.1949 H       
  34 H34            3.5723    -1.7811     3.3849 H       
  35 H35            3.2053    -3.0351    -0.5550 H       
  36 H36            0.5877     2.9974     2.2542 H       
  37 H37            1.6546     1.5787     2.3861 H       
  38 H38           -3.8565    -0.1949    -0.0405 H       
  39 H39           -2.4063     3.0105    -0.4237 H       
  40 H40           -3.6545     5.1276    -0.5454 H       
  41 H41           -6.0037     0.9448     0.6119 H       
  42 H42            2.2498     1.8035    -0.0105 H       
  43 H43            1.1829     3.2222    -0.1424 H       
  44 H44            0.1755    -2.3790    -1.2448 H       
  45 H45            0.5936    -0.6613    -1.4521 H       
  46 H46            1.6982    -1.9242    -2.0466 H       
  47 H47            5.7666     4.3532     0.8239 H       
  48 H48            5.1149     5.7086    -0.1281 H       
  49 H49            4.5705     5.4550     1.5475 H       
  50 H50            2.9902     4.6073    -1.7216 H       
  51 H51            4.6204     3.8945    -1.7726 H       
  52 H52            3.2080     2.8630    -1.4422 H       
@<TRIPOS>BOND
   1    1    2 1
   2    1   12 1
   3    1    5 1
   4    2    3 2
   5    2    6 1
   6    3    4 1
   7    3   32 1
   8    4    5 2
   9    4   13 1
  10    6    7 ar
  11    6   11 ar
  12    7    8 ar
  13    7   33 1
  14    8    9 ar
  15    8   34 1
  16    9   10 ar
  17   10   11 ar
  18   10   35 1
  19   11   27 1
  20   12   25 1
  21   12   36 1
  22   12   37 1
  23   13   14 1
  24   13   38 1
  25   14   15 ar
  26   14   19 ar
  27   15   16 ar
  28   15   39 1
  29   16   17 ar
  30   16   40 1
  31   17   18 ar
  32   17   21 1
  33   18   19 ar
  34   18   20 1
  35   19   41 1
  36   20   22 1
  37   21   22 1
  38   22   23 1
  39   22   24 1
  40   25   26 1
  41   25   42 1
  42   25   43 1
  43   26   28 am
  44   26   29 2
  45   27   44 1
  46   27   45 1
  47   27   46 1
  48   28   30 1
  49   28   31 1
  50   30   47 1
  51   30   48 1
  52   30   49 1
  53   31   50 1
  54   31   51 1
  55   31   52 1

#	End of record

