#	Name: ASD07930596
#	Creating user name:	WinNT
#	Creation time:	15. 06. 2019 21:12

#	Modifying user name:	WinNT
#	Modification time:	15. 06. 2019 21:12

#	Program:	/corina/corina34_cracker 3.40 0067  02.08.2006

@<TRIPOS>MOLECULE
ASD07930596
  46   48    0    0    0
SMALL
NO_CHARGES


@<TRIPOS>ATOM
   1 C1            -0.0496     1.4818    -0.0084 C.3     
   2 N2             0.7775    -0.3946    -2.1777 N.2     
   3 N3            -0.8977    -1.7688    -1.3022 N.pl3   
   4 C4            -0.9126    -2.8083    -0.2678 C.3     
   5 C5            -1.2237    -2.1658     1.0910 C.3     
   6 S6             0.0083    -0.8619     1.4017 S.o2    
   7 N7            -0.0229     0.0171    -0.0136 N.am    
   8 C8            -0.0228    -0.7069    -1.1974 C.2     
   9 C9             0.4558    -3.4903    -0.2091 C.3     
  10 C10           -1.9712    -3.8296    -0.5957 C.ar    
  11 N11           -2.9585    -4.0401     0.2534 N.ar    
  12 C12           -3.9097    -4.9269     0.0068 C.ar    
  13 C13           -3.8976    -5.6714    -1.1669 C.ar    
  14 C14           -2.8755    -5.4747    -2.0790 C.ar    
  15 C15           -1.8987    -4.5305    -1.7860 C.ar    
  16 O16           -0.4546     0.0430     2.3947 O.2     
  17 O17            1.3188    -1.4085     1.4542 O.2     
  18 F18           -0.8836    -4.3075    -2.6493 F       
  19 N19           -4.9337    -5.1163     0.9337 N.am    
  20 C20           -4.8971    -4.4754     2.1188 C.2     
  21 O21           -3.9271    -3.8071     2.4185 O.2     
  22 C22           -6.0369    -4.5854     3.0543 C.ar    
  23 C23           -5.9988    -3.9213     4.2822 C.ar    
  24 C24           -8.2155    -5.4507     3.5785 C.ar    
  25 C25           -7.1537    -5.3486     2.7074 C.ar    
  26 C26           -7.0601    -4.0239     5.1538 C.ar    
  27 C27           -8.1748    -4.7919     4.8095 C.ar    
  28 C28           -9.2784    -4.8988     5.7157 C.1     
  29 N29          -10.1540    -4.9835     6.4346 N.1     
  30 H30            0.9712     1.8638    -0.0180 H       
  31 H31           -0.5795     1.8387    -0.8915 H       
  32 H32           -0.5604     1.8327     0.8883 H       
  33 H33            0.7642    -0.9117    -2.9983 H       
  34 H34           -1.4992    -1.8296    -2.0608 H       
  35 H35           -2.2227    -1.7302     1.0714 H       
  36 H36           -1.1664    -2.9200     1.8759 H       
  37 H37            1.2202    -2.7510     0.0301 H       
  38 H38            0.4441    -4.2628     0.5598 H       
  39 H39            0.6779    -3.9430    -1.1755 H       
  40 H40           -4.6753    -6.3943    -1.3643 H       
  41 H41           -2.8400    -6.0390    -2.9991 H       
  42 H42           -5.6726    -5.7093     0.7257 H       
  43 H43           -5.1369    -3.3275     4.5484 H       
  44 H44           -9.0795    -6.0405     3.3099 H       
  45 H45           -7.1848    -5.8585     1.7559 H       
  46 H46           -7.0303    -3.5109     6.1038 H       
@<TRIPOS>BOND
   1    1    7 1
   2    1   30 1
   3    1   31 1
   4    1   32 1
   5    2    8 2
   6    2   33 1
   7    3    4 1
   8    3    8 1
   9    3   34 1
  10    4    5 1
  11    4    9 1
  12    4   10 1
  13    5    6 1
  14    5   35 1
  15    5   36 1
  16    6    7 am
  17    6   16 2
  18    6   17 2
  19    7    8 1
  20    9   37 1
  21    9   38 1
  22    9   39 1
  23   10   11 ar
  24   10   15 ar
  25   11   12 ar
  26   12   13 ar
  27   12   19 1
  28   13   14 ar
  29   13   40 1
  30   14   15 ar
  31   14   41 1
  32   15   18 1
  33   19   20 am
  34   19   42 1
  35   20   21 2
  36   20   22 1
  37   22   23 ar
  38   22   25 ar
  39   23   26 ar
  40   23   43 1
  41   24   25 ar
  42   24   27 ar
  43   24   44 1
  44   25   45 1
  45   26   27 ar
  46   26   46 1
  47   27   28 1
  48   28   29 3

#	End of record

