#	Name: ASD01320162
#	Creating user name:	WinNT
#	Creation time:	15. 06. 2019 19:16

#	Modifying user name:	WinNT
#	Modification time:	15. 06. 2019 19:16

#	Program:	/corina/corina34_cracker 3.40 0067  02.08.2006

@<TRIPOS>MOLECULE
ASD01320162
  41   42    0    0    0
SMALL
NO_CHARGES


@<TRIPOS>ATOM
   1 C1            -0.3195     1.3472    -0.5327 C.3     
   2 N2            -0.2791    -0.1142    -0.4386 N.am    
   3 C3             1.0946     1.8826    -0.7729 C.3     
   4 N4            -1.7331    -2.8775     1.5038 N.am    
   5 O5             1.9545     1.4507     0.2835 O.3     
   6 C6             1.6155     1.3449    -2.1093 C.3     
   7 O7             1.7075    -0.0798    -2.0481 O.3     
   8 C8             0.6442     1.7483    -3.2229 C.3     
   9 O9             1.0819     1.1906    -4.4636 O.3     
  10 C10           -0.7524     1.2182    -2.8881 C.3     
  11 O11           -1.1639     1.7316    -1.6195 O.3     
  12 C12           -1.7409     1.6682    -3.9657 C.3     
  13 O13           -3.0183     1.0780    -3.7167 O.3     
  14 C14           -1.0267    -0.7509     0.4846 C.2     
  15 O15           -1.7332    -0.1136     1.2379 O.2     
  16 C16           -0.9855    -2.2408     0.5806 C.2     
  17 O17           -0.2789    -2.8781    -0.1728 O.2     
  18 C18           -1.7681    -4.2740     1.5322 C.ar    
  19 C19           -0.6267    -5.0054     1.2281 C.ar    
  20 C20           -0.6648    -6.3855     1.2576 C.ar    
  21 C21           -1.8374    -7.0396     1.5889 C.ar    
  22 C22           -2.9754    -6.3146     1.8921 C.ar    
  23 C23           -2.9429    -4.9342     1.8701 C.ar    
  24 H24           -0.7117     1.7607     0.3965 H       
  25 H25            0.2856    -0.6236    -1.0406 H       
  26 H26            1.0716     2.9720    -0.8016 H       
  27 H27           -2.2468    -2.3662     2.1485 H       
  28 H28            1.6813     1.7515     1.1609 H       
  29 H29            2.6003     1.7655    -2.3125 H       
  30 H30            2.3019    -0.4063    -1.3587 H       
  31 H31            0.6128     2.8349    -3.3029 H       
  32 H32            1.9635     1.4802    -4.7358 H       
  33 H33           -0.7281     0.1291    -2.8488 H       
  34 H34           -1.8321     2.7541    -3.9444 H       
  35 H35           -1.3796     1.3530    -4.9446 H       
  36 H36           -3.6961     1.3201    -4.3625 H       
  37 H37            0.2891    -4.4952     0.9687 H       
  38 H38            0.2221    -6.9547     1.0214 H       
  39 H39           -1.8645    -8.1190     1.6105 H       
  40 H40           -3.8894    -6.8286     2.1504 H       
  41 H41           -3.8307    -4.3686     2.1113 H       
@<TRIPOS>BOND
   1    1    2 1
   2    1    3 1
   3    1   11 1
   4    1   24 1
   5    2   14 am
   6    2   25 1
   7    3    5 1
   8    3    6 1
   9    3   26 1
  10    4   16 am
  11    4   18 1
  12    4   27 1
  13    5   28 1
  14    6    7 1
  15    6    8 1
  16    6   29 1
  17    7   30 1
  18    8    9 1
  19    8   10 1
  20    8   31 1
  21    9   32 1
  22   10   11 1
  23   10   12 1
  24   10   33 1
  25   12   13 1
  26   12   34 1
  27   12   35 1
  28   13   36 1
  29   14   15 2
  30   14   16 1
  31   16   17 2
  32   18   19 ar
  33   18   23 ar
  34   19   20 ar
  35   19   37 1
  36   20   21 ar
  37   20   38 1
  38   21   22 ar
  39   21   39 1
  40   22   23 ar
  41   22   40 1
  42   23   41 1

#	End of record

