#	Name: ASD03331729
#	Creating user name:	WinNT
#	Creation time:	15. 06. 2019 20:39

#	Modifying user name:	WinNT
#	Modification time:	15. 06. 2019 20:39

#	Program:	/corina/corina34_cracker 3.40 0067  02.08.2006

@<TRIPOS>MOLECULE
ASD03331729
  57   60    0    0    0
SMALL
NO_CHARGES


@<TRIPOS>ATOM
   1 C1            -0.5693     1.2717    -0.0572 C.3     
   2 N2            -0.6015    -0.1950    -0.1435 N.3     
   3 C3            -0.0079    -0.6680    -1.4072 C.3     
   4 C4             1.3301     0.0053    -1.5730 C.2     
   5 N5             1.7193     1.1019    -0.8559 N.pl3   
   6 C6             0.8737     1.7493     0.1511 C.3     
   7 C7             2.3503    -0.3128    -2.4057 C.2     
   8 N8             3.3513     0.5828    -2.1922 N.2     
   9 C9             2.9743     1.4329    -1.2608 C.2     
  10 C10            3.7784     2.5567    -0.7432 C.2     
  11 C11            2.3717    -1.4278    -3.3683 C.2     
  12 O12            1.4091    -2.1647    -3.4669 O.2     
  13 N13            3.4580    -1.6313    -4.1397 N.am    
  14 C14            3.4793    -2.7401    -5.0970 C.3     
  15 C15            2.8156    -2.2990    -6.4031 C.3     
  16 C16            4.9061    -3.1415    -5.3690 C.2     
  17 N17            5.1932    -4.4092    -5.7255 N.am    
  18 O18            5.7960    -2.3238    -5.2673 O.2     
  19 C19            6.5884    -4.8280    -5.8817 C.3     
  20 C20            3.5058    -1.0373    -6.9251 C.3     
  21 C21            2.9413    -3.4157    -7.4414 C.3     
  22 C22            1.3362    -2.0031    -6.1489 C.3     
  23 C23            3.9166     2.8069     0.5605 C.2     
  24 S24            4.9322     4.2085     0.8348 S.3     
  25 C25            5.1765     4.4616    -0.8884 C.ar    
  26 C26            4.4954     3.4855    -1.6155 C.ar    
  27 C27            5.9144     5.4401    -1.5637 C.ar    
  28 C28            5.9636     5.4441    -2.9375 C.ar    
  29 C29            5.2808     4.4772    -3.6622 C.ar    
  30 C30            4.5642     3.5117    -3.0230 C.ar    
  31 H31           -0.9621     1.6975    -0.9805 H       
  32 H32           -1.1838     1.5988     0.7815 H       
  33 H33           -0.1420    -0.6141     0.6510 H       
  34 H34            0.1257    -1.7492    -1.3697 H       
  35 H35           -0.6586    -0.4051    -2.2412 H       
  36 H36            0.9236     2.8317     0.0326 H       
  37 H37            1.2125     1.4719     1.1493 H       
  38 H38            4.2257    -1.0436    -4.0611 H       
  39 H39            2.9359    -3.5889    -4.6819 H       
  40 H40            4.4762    -5.0442    -5.8785 H       
  41 H41            6.6222    -5.8784    -6.1710 H       
  42 H42            7.0651    -4.2232    -6.6531 H       
  43 H43            7.1159    -4.6941    -4.9373 H       
  44 H44            4.5598    -1.2481    -7.1062 H       
  45 H45            3.0330    -0.7231    -7.8556 H       
  46 H46            3.4163    -0.2417    -6.1854 H       
  47 H47            2.4029    -4.2974    -7.0937 H       
  48 H48            2.5172    -3.0810    -8.3881 H       
  49 H49            3.9932    -3.6643    -7.5822 H       
  50 H50            1.2467    -1.2075    -5.4092 H       
  51 H51            0.8634    -1.6889    -7.0794 H       
  52 H52            0.8445    -2.9020    -5.7770 H       
  53 H53            3.4608     2.2215     1.3453 H       
  54 H54            6.4467     6.1948    -1.0039 H       
  55 H55            6.5346     6.2015    -3.4540 H       
  56 H56            5.3234     4.4869    -4.7413 H       
  57 H57            4.0375     2.7654    -3.5992 H       
@<TRIPOS>BOND
   1    1    2 1
   2    1    6 1
   3    1   31 1
   4    1   32 1
   5    2    3 1
   6    2   33 1
   7    3    4 1
   8    3   34 1
   9    3   35 1
  10    4    5 1
  11    4    7 2
  12    5    6 1
  13    5    9 1
  14    6   36 1
  15    6   37 1
  16    7    8 1
  17    7   11 1
  18    8    9 2
  19    9   10 1
  20   10   23 2
  21   10   26 1
  22   11   12 2
  23   11   13 am
  24   13   14 1
  25   13   38 1
  26   14   15 1
  27   14   16 1
  28   14   39 1
  29   15   20 1
  30   15   21 1
  31   15   22 1
  32   16   17 am
  33   16   18 2
  34   17   19 1
  35   17   40 1
  36   19   41 1
  37   19   42 1
  38   19   43 1
  39   20   44 1
  40   20   45 1
  41   20   46 1
  42   21   47 1
  43   21   48 1
  44   21   49 1
  45   22   50 1
  46   22   51 1
  47   22   52 1
  48   23   24 1
  49   23   53 1
  50   24   25 1
  51   25   26 ar
  52   25   27 ar
  53   26   30 ar
  54   27   28 ar
  55   27   54 1
  56   28   29 ar
  57   28   55 1
  58   29   30 ar
  59   29   56 1
  60   30   57 1

#	End of record

