#	Name: ASD08170451
#	Creating user name:	WinNT
#	Creation time:	15. 06. 2019 21:17

#	Modifying user name:	WinNT
#	Modification time:	15. 06. 2019 21:17

#	Program:	/corina/corina34_cracker 3.40 0067  02.08.2006

@<TRIPOS>MOLECULE
ASD08170451
  68   71    0    0    0
SMALL
NO_CHARGES


@<TRIPOS>ATOM
   1 N1             0.1733     0.7977     0.1168 N.ar    
   2 C2             0.3898    -0.4995     0.0271 C.ar    
   3 C3            -0.7709    -1.4605     0.0500 C.3     
   4 C4            -3.6254    -1.9516     2.5869 C.3     
   5 C5            -4.7860    -2.9126     2.6097 C.2     
   6 N6            -4.7907    -4.0923     3.1445 N.2     
   7 N7            -5.8666    -4.7472     3.0584 N.2     
   8 C8            -6.8663    -4.1870     2.4469 C.2     
   9 S9            -6.3846    -2.6299     1.9196 S.3     
  10 N10           -8.1215    -4.7549     2.2567 N.am    
  11 C11           -2.7873    -2.1939     1.3300 C.3     
  12 C12           -1.6090    -1.2182     1.3069 C.3     
  13 C13           -8.3799    -5.9913     2.7268 C.2     
  14 O14           -7.5179    -6.6087     3.3156 O.2     
  15 C15           -9.7400    -6.6067     2.5208 C.3     
  16 C16           -9.9751    -6.8244     1.0482 C.ar    
  17 C17           -9.5087    -7.9732     0.4368 C.ar    
  18 C18           -9.7223    -8.1757    -0.9144 C.ar    
  19 C19          -10.4026    -7.2300    -1.6565 C.ar    
  20 C20          -10.8721    -6.0763    -1.0451 C.ar    
  21 C21          -10.6614    -5.8782     0.3115 C.ar    
  22 N22            3.4038     2.2567    -0.0179 N.am    
  23 C23            3.0820     3.5654    -0.0260 C.2     
  24 O24            1.9181     3.9047    -0.1179 O.2     
  25 N25            4.0504     4.4981     0.0676 N.am    
  26 C26            3.7005     5.9207     0.0588 C.3     
  27 C27            4.9552     6.7473     0.1747 C.ar    
  28 C28            5.6298     7.1434    -0.9651 C.ar    
  29 C29            6.7807     7.9015    -0.8588 C.ar    
  30 C30            7.2569     8.2641     0.3873 C.ar    
  31 C31            6.5819     7.8688     1.5270 C.ar    
  32 C32            5.4285     7.1143     1.4205 C.ar    
  33 O33           -9.8041    -7.8603     3.2038 O.3     
  34 O34          -11.5413    -5.1442    -1.7733 O.3     
  35 C35          -11.7258    -5.4169    -3.1638 C.3     
  36 F36          -12.4517    -6.6034    -3.3140 F       
  37 F37          -12.4281    -4.3623    -3.7567 F       
  38 F38          -10.4781    -5.5522    -3.7820 F       
  39 C39            1.6865    -0.9802    -0.0887 C.ar    
  40 C40            2.7232    -0.0603    -0.1060 C.ar    
  41 C41            2.3978     1.2914    -0.0058 C.ar    
  42 N42            1.1286     1.6547     0.1014 N.ar    
  43 H43           -1.3888    -1.3049    -0.8344 H       
  44 H44           -0.3953    -2.4837     0.0553 H       
  45 H45           -4.0009    -0.9284     2.5816 H       
  46 H46           -3.0074    -2.1072     3.4712 H       
  47 H47           -8.8109    -4.2612     1.7858 H       
  48 H48           -2.4117    -3.2171     1.3354 H       
  49 H49           -3.4053    -2.0383     0.4457 H       
  50 H50           -0.9910    -1.3738     2.1912 H       
  51 H51           -1.9845    -0.1950     1.3015 H       
  52 H52          -10.5049    -5.9382     2.9159 H       
  53 H53           -8.9763    -8.7137     1.0153 H       
  54 H54           -9.3567    -9.0738    -1.3898 H       
  55 H55          -10.5686    -7.3882    -2.7119 H       
  56 H56          -11.0259    -4.9811     0.7897 H       
  57 H57            4.3354     1.9863    -0.0204 H       
  58 H58            4.9789     4.2275     0.1409 H       
  59 H59            3.1902     6.1636    -0.8733 H       
  60 H60            3.0430     6.1384     0.9004 H       
  61 H61            5.2577     6.8601    -1.9386 H       
  62 H62            7.3081     8.2103    -1.7492 H       
  63 H63            8.1566     8.8558     0.4704 H       
  64 H64            6.9541     8.1518     2.5006 H       
  65 H65            4.9011     6.8055     2.3110 H       
  66 H66           -9.1502    -8.5060     2.9028 H       
  67 H67            1.8821    -2.0398    -0.1629 H       
  68 H68            3.7508    -0.3807    -0.1939 H       
@<TRIPOS>BOND
   1    1    2 ar
   2    1   42 ar
   3    2    3 1
   4    2   39 ar
   5    3   12 1
   6    3   43 1
   7    3   44 1
   8    4    5 1
   9    4   11 1
  10    4   45 1
  11    4   46 1
  12    5    6 2
  13    5    9 1
  14    6    7 1
  15    7    8 2
  16    8    9 1
  17    8   10 1
  18   10   13 am
  19   10   47 1
  20   11   12 1
  21   11   48 1
  22   11   49 1
  23   12   50 1
  24   12   51 1
  25   13   14 2
  26   13   15 1
  27   15   16 1
  28   15   33 1
  29   15   52 1
  30   16   17 ar
  31   16   21 ar
  32   17   18 ar
  33   17   53 1
  34   18   19 ar
  35   18   54 1
  36   19   20 ar
  37   19   55 1
  38   20   21 ar
  39   20   34 1
  40   21   56 1
  41   22   23 am
  42   22   41 1
  43   22   57 1
  44   23   24 2
  45   23   25 am
  46   25   26 1
  47   25   58 1
  48   26   27 1
  49   26   59 1
  50   26   60 1
  51   27   28 ar
  52   27   32 ar
  53   28   29 ar
  54   28   61 1
  55   29   30 ar
  56   29   62 1
  57   30   31 ar
  58   30   63 1
  59   31   32 ar
  60   31   64 1
  61   32   65 1
  62   33   66 1
  63   34   35 1
  64   35   36 1
  65   35   37 1
  66   35   38 1
  67   39   40 ar
  68   39   67 1
  69   40   41 ar
  70   40   68 1
  71   41   42 ar

#	End of record

