#	Name: ASD01200278
#	Creating user name:	WinNT
#	Creation time:	15. 06. 2019 19:08

#	Modifying user name:	WinNT
#	Modification time:	15. 06. 2019 19:08

#	Program:	/corina/corina34_cracker 3.40 0067  02.08.2006

@<TRIPOS>MOLECULE
ASD01200278
  48   50    0    0    0
SMALL
NO_CHARGES


@<TRIPOS>ATOM
   1 C1            -0.1948     1.5961     0.3476 C.2     
   2 C2            -0.3161     0.2694     0.5443 C.2     
   3 N3             0.9168    -0.2526     0.6243 N.2     
   4 C4             1.7975     0.7002     0.4847 C.2     
   5 N5             1.1458     1.8699     0.3097 N.pl3   
   6 C6            -1.6103    -0.4948     0.6550 C.3     
   7 F7            -2.0080    -0.9249    -0.6154 F       
   8 F8            -1.4268    -1.6045     1.4868 F       
   9 F9            -2.5974     0.3357     1.1964 F       
  10 C10            1.7591     3.1861     0.1149 C.3     
  11 C11            2.6169     3.1621    -1.1239 C.2     
  12 C12            2.6252     3.5298     1.3284 C.3     
  13 C13            1.7383     3.6554     2.5688 C.3     
  14 C14            2.6071     3.8978     3.8155 C.3     
  15 C15            2.1769     5.2616     4.3941 C.3     
  16 C16            0.7336     5.4593     3.8679 C.3     
  17 C17            0.8106     4.8805     2.4333 C.3     
  18 N18            3.1937     4.2971    -1.5662 N.am    
  19 O19            2.7882     2.1215    -1.7229 O.2     
  20 C20            4.0711     4.2577    -2.6584 C.2     
  21 C21            4.4367     3.1112    -3.3818 C.2     
  22 C22            5.2972     3.4905    -4.3536 C.2     
  23 N23            5.4728     4.8250    -4.2533 N.pl3   
  24 N24            4.6902     5.2867    -3.1873 N.2     
  25 C25            6.3281     5.6474    -5.1125 C.3     
  26 C26            5.5131     6.7651    -5.7106 C.2     
  27 O27            4.3383     6.8644    -5.4463 O.2     
  28 O28            6.0924     7.6502    -6.5369 O.3     
  29 H29           -1.0004     2.3068     0.2364 H       
  30 H30            2.8699     0.5742     0.5060 H       
  31 H31            0.9779     3.9377     0.0015 H       
  32 H32            3.3601     2.7403     1.4856 H       
  33 H33            3.1391     4.4747     1.1520 H       
  34 H34            1.1457     2.7497     2.6970 H       
  35 H35            2.4353     3.1101     4.5491 H       
  36 H36            3.6605     3.9259     3.5369 H       
  37 H37            2.1852     5.2335     5.4837 H       
  38 H38            2.8287     6.0544     4.0270 H       
  39 H39            0.0216     4.8982     4.4731 H       
  40 H40            0.4726     6.5173     3.8441 H       
  41 H41            1.2417     5.6117     1.7495 H       
  42 H42           -0.1782     4.5742     2.0919 H       
  43 H43            3.0015     5.1412    -1.1287 H       
  44 H44            4.0921     2.1048    -3.1950 H       
  45 H45            5.7616     2.8410    -5.0808 H       
  46 H46            7.1413     6.0673    -4.5204 H       
  47 H47            6.7409     5.0311    -5.9111 H       
  48 H48            5.5291     8.3495    -6.8958 H       
@<TRIPOS>BOND
   1    1    2 2
   2    1    5 1
   3    1   29 1
   4    2    3 1
   5    2    6 1
   6    3    4 2
   7    4    5 1
   8    4   30 1
   9    5   10 1
  10    6    7 1
  11    6    8 1
  12    6    9 1
  13   10   11 1
  14   10   12 1
  15   10   31 1
  16   11   18 am
  17   11   19 2
  18   12   13 1
  19   12   32 1
  20   12   33 1
  21   13   14 1
  22   13   17 1
  23   13   34 1
  24   14   15 1
  25   14   35 1
  26   14   36 1
  27   15   16 1
  28   15   37 1
  29   15   38 1
  30   16   17 1
  31   16   39 1
  32   16   40 1
  33   17   41 1
  34   17   42 1
  35   18   20 1
  36   18   43 1
  37   20   21 1
  38   20   24 2
  39   21   22 2
  40   21   44 1
  41   22   23 1
  42   22   45 1
  43   23   24 1
  44   23   25 1
  45   25   26 1
  46   25   46 1
  47   25   47 1
  48   26   27 2
  49   26   28 1
  50   28   48 1

#	End of record

