#	Name: ASD01410871
#	Creating user name:	WinNT
#	Creation time:	15. 06. 2019 19:18

#	Modifying user name:	WinNT
#	Modification time:	15. 06. 2019 19:18

#	Program:	/corina/corina34_cracker 3.40 0067  02.08.2006

@<TRIPOS>MOLECULE
ASD01410871
 129  136    0    0    0
SMALL
NO_CHARGES


@<TRIPOS>ATOM
   1 C1             1.0243     2.6716     2.8458 C.3     
   2 C2             1.1343     1.1339     2.7248 C.3     
   3 N3             0.6352     0.6253     4.0191 N.am    
   4 C4            -0.3040     1.6081     4.5732 C.3     
   5 C5            -0.3153     2.8210     3.6175 C.3     
   6 O6             2.1137     3.2065     3.6000 O.3     
   7 C7            -1.6839     1.0081     4.6563 C.2     
   8 O8            -1.8725    -0.1323     4.2890 O.2     
   9 N9            -2.7086     1.7388     5.1386 N.am    
  10 C10            2.6076     0.7287     2.6046 C.3     
  11 C11            2.1540    -1.3389     4.0191 C.3     
  12 C12            1.0242    -0.5279     4.5887 C.2     
  13 O13            0.4523    -0.9219     5.5831 O.2     
  14 C14            1.6437    -2.7414     3.6826 C.3     
  15 C15            0.6179    -2.6530     2.5508 C.3     
  16 C16           -4.0685     1.1945     5.1211 C.3     
  17 C17           -4.6517     0.9461     3.7539 C.2     
  18 N18           -3.9737     1.3264     2.6529 N.am    
  19 O19           -5.7311     0.4040     3.6443 O.2     
  20 S20           -4.5536     0.9430     1.1498 S.o2    
  21 C21           -6.1118     1.8624     1.0178 C.3     
  22 C22           -4.4567     0.2270     6.2411 C.3     
  23 C23           -5.0254     1.6481     6.2255 C.3     
  24 C24           -6.9665     1.6286    -0.2294 C.3     
  25 C25           -7.4134     1.0650     1.1209 C.3     
  26 O26           -3.5849     1.4724     0.2550 O.2     
  27 O27           -4.8032    -0.4543     1.2164 O.2     
  28 C28           -5.3933    -0.9010     5.8927 C.2     
  29 C29           -5.0104    -2.1435     6.0527 C.2     
  30 C30            2.4149     4.5142     3.4040 C.ar    
  31 C31            3.5001     5.1187     4.0807 C.ar    
  32 C32            1.6797     5.2835     2.5408 C.ar    
  33 C33            2.0117     6.6325     2.3553 C.ar    
  34 N34            3.0253     7.1893     2.9964 N.ar    
  35 C35            3.7809     6.4876     3.8470 C.ar    
  36 C36            1.2107     7.4513     1.4214 C.2     
  37 S37           -0.1729     6.8819     0.4911 S.3     
  38 C38            4.8557     7.0911     4.5230 C.ar    
  39 C39            5.6170     6.3440     5.3940 C.ar    
  40 C40            5.3329     4.9930     5.6130 C.ar    
  41 C41            4.2955     4.3863     4.9738 C.ar    
  42 Cl42           5.2211     8.7679     4.2611 Cl      
  43 O43            6.6561     6.9265     6.0475 O.3     
  44 C44            7.4082     6.0994     6.9376 C.3     
  45 N45            1.4110     8.7111     1.1582 N.2     
  46 C46            0.5979     9.2784     0.3003 C.2     
  47 C47           -0.3557     8.4887    -0.2101 C.2     
  48 C48            0.7271    10.7294    -0.0859 C.3     
  49 C49            1.5520    10.8441    -1.3693 C.3     
  50 C50           -0.6645    11.3208    -0.3195 C.3     
  51 C51            0.9860    -3.3554     4.9201 C.3     
  52 C52            0.1958    -4.0633     2.1337 C.3     
  53 C53            8.5280     6.9236     7.5761 C.3     
  54 N54            7.9428     7.9728     8.4215 N.3     
  55 C55            8.9755     8.6315     9.2343 C.3     
  56 C56            6.8769     7.4281     9.2751 C.3     
  57 C57            6.2559     8.5631    10.0936 C.3     
  58 O58            7.2795     9.2116    10.8531 O.3     
  59 C59            8.3335     9.7545    10.0533 C.3     
  60 N60            2.6929    -0.7231     2.8086 N.am    
  61 O61            3.8448    -0.9280     0.7900 O.3     
  62 C62            4.4520    -1.8211    -0.1807 C.3     
  63 C63            3.3894    -2.7746    -0.7309 C.3     
  64 C64            5.0441    -1.0005    -1.3282 C.3     
  65 C65            5.5621    -2.6292     0.4942 C.3     
  66 C66            3.2741    -1.4954     1.8694 C.2     
  67 O67            3.2832    -2.7038     1.9968 O.2     
  68 H68            0.9648     3.1385     1.8627 H       
  69 H69            0.5387     0.7575     1.8931 H       
  70 H70            0.0272     1.9198     5.5638 H       
  71 H71           -0.3340     3.7545     4.1798 H       
  72 H72           -1.1622     2.7648     2.9336 H       
  73 H73           -2.5455     2.6252     5.4974 H       
  74 H74            2.9810     0.9845     1.6130 H       
  75 H75            3.1951     1.2433     3.3650 H       
  76 H76            2.9473    -1.4169     4.7625 H       
  77 H77            2.4794    -3.3662     3.3675 H       
  78 H78           -0.2556    -2.0990     2.8946 H       
  79 H79            1.0614    -2.1393     1.6978 H       
  80 H80           -3.1461     1.8246     2.7409 H       
  81 H81           -6.1020     2.8672     1.4401 H       
  82 H82           -3.7002    -0.0044     6.9909 H       
  83 H83           -4.6430     2.3514     6.9653 H       
  84 H84           -6.0767     1.7667     5.9633 H       
  85 H85           -7.5193     2.4795    -0.6275 H       
  86 H86           -6.5925     0.9224    -0.9707 H       
  87 H87           -7.3335    -0.0121     1.2680 H       
  88 H88           -8.2603     1.5451     1.6112 H       
  89 H89           -6.3803    -0.6850     5.5111 H       
  90 H90           -5.6816    -2.9519     5.8030 H       
  91 H91           -4.0234    -2.3595     6.4343 H       
  92 H92            0.8474     4.8517     2.0048 H       
  93 H93            5.9420     4.4244     6.3000 H       
  94 H94            4.0869     3.3418     5.1521 H       
  95 H95            6.7514     5.7134     7.7172 H       
  96 H96            7.8409     5.2673     6.3821 H       
  97 H97           -1.1076     8.7853    -0.9264 H       
  98 H98            1.2242    11.2758     0.7156 H       
  99 H99            1.6455    11.8935    -1.6486 H       
 100 H100           2.5434    10.4227    -1.2029 H       
 101 H101           1.0549    10.2976    -2.1708 H       
 102 H102          -1.2522    11.2391     0.5948 H       
 103 H103          -0.5711    12.3702    -0.5988 H       
 104 H104          -1.1616    10.7744    -1.1210 H       
 105 H105           0.0297    -2.8657     5.1041 H       
 106 H106           0.8229    -4.4203     4.7543 H       
 107 H107           1.6368    -3.2177     5.7835 H       
 108 H108          -0.5349    -4.0003     1.3274 H       
 109 H109           1.0693    -4.6172     1.7900 H       
 110 H110          -0.2477    -4.5770     2.9867 H       
 111 H111           9.1553     6.2734     8.1859 H       
 112 H112           9.1327     7.3825     6.7938 H       
 113 H113           9.4284     7.9035     9.9073 H       
 114 H114           9.7412     9.0497     8.5809 H       
 115 H115           6.1107     6.9677     8.6513 H       
 116 H116           7.2962     6.6808     9.9487 H       
 117 H117           5.7896     9.2835     9.4216 H       
 118 H118           5.5042     8.1553    10.7694 H       
 119 H119           9.0843    10.2084    10.7000 H       
 120 H120           7.9275    10.5096     9.3801 H       
 121 H121           2.5986    -2.1989    -1.2117 H       
 122 H122           3.8452    -3.4450    -1.4596 H       
 123 H123           2.9676    -3.3592     0.0866 H       
 124 H124           5.8011    -0.3212    -0.9362 H       
 125 H125           5.4999    -1.6709    -2.0569 H       
 126 H126           4.2533    -0.4247    -1.8091 H       
 127 H127           5.1402    -3.2138     1.3118 H       
 128 H128           6.0178    -3.2996    -0.2344 H       
 129 H129           6.3190    -1.9499     0.8862 H       
@<TRIPOS>BOND
   1    1    2 1
   2    1    6 1
   3    1    5 1
   4    1   68 1
   5    2    3 1
   6    2   10 1
   7    2   69 1
   8    3    4 1
   9    3   12 am
  10    4    5 1
  11    4    7 1
  12    4   70 1
  13    5   71 1
  14    5   72 1
  15    6   30 1
  16    7    8 2
  17    7    9 am
  18    9   16 1
  19    9   73 1
  20   10   60 1
  21   10   74 1
  22   10   75 1
  23   11   12 1
  24   11   14 1
  25   11   60 1
  26   11   76 1
  27   12   13 2
  28   14   15 1
  29   14   51 1
  30   14   77 1
  31   15   52 1
  32   15   78 1
  33   15   79 1
  34   16   17 1
  35   16   22 1
  36   16   23 1
  37   17   18 am
  38   17   19 2
  39   18   20 am
  40   18   80 1
  41   20   21 1
  42   20   26 2
  43   20   27 2
  44   21   24 1
  45   21   25 1
  46   21   81 1
  47   22   23 1
  48   22   28 1
  49   22   82 1
  50   23   83 1
  51   23   84 1
  52   24   25 1
  53   24   85 1
  54   24   86 1
  55   25   87 1
  56   25   88 1
  57   28   29 2
  58   28   89 1
  59   29   90 1
  60   29   91 1
  61   30   31 ar
  62   30   32 ar
  63   31   35 ar
  64   31   41 ar
  65   32   33 ar
  66   32   92 1
  67   33   34 ar
  68   33   36 1
  69   34   35 ar
  70   35   38 ar
  71   36   45 2
  72   36   37 1
  73   37   47 1
  74   38   39 ar
  75   38   42 1
  76   39   40 ar
  77   39   43 1
  78   40   41 ar
  79   40   93 1
  80   41   94 1
  81   43   44 1
  82   44   53 1
  83   44   95 1
  84   44   96 1
  85   45   46 1
  86   46   47 2
  87   46   48 1
  88   47   97 1
  89   48   49 1
  90   48   50 1
  91   48   98 1
  92   49   99 1
  93   49  100 1
  94   49  101 1
  95   50  102 1
  96   50  103 1
  97   50  104 1
  98   51  105 1
  99   51  106 1
 100   51  107 1
 101   52  108 1
 102   52  109 1
 103   52  110 1
 104   53   54 1
 105   53  111 1
 106   53  112 1
 107   54   55 1
 108   54   56 1
 109   55   59 1
 110   55  113 1
 111   55  114 1
 112   56   57 1
 113   56  115 1
 114   56  116 1
 115   57   58 1
 116   57  117 1
 117   57  118 1
 118   58   59 1
 119   59  119 1
 120   59  120 1
 121   60   66 am
 122   61   62 1
 123   61   66 1
 124   62   63 1
 125   62   64 1
 126   62   65 1
 127   63  121 1
 128   63  122 1
 129   63  123 1
 130   64  124 1
 131   64  125 1
 132   64  126 1
 133   65  127 1
 134   65  128 1
 135   65  129 1
 136   66   67 2

#	End of record

