#	Name: ASD01885623
#	Creating user name:	WinNT
#	Creation time:	15. 06. 2019 19:49

#	Modifying user name:	WinNT
#	Modification time:	15. 06. 2019 19:49

#	Program:	/corina/corina34_cracker 3.40 0067  02.08.2006

@<TRIPOS>MOLECULE
ASD01885623
  32   34    0    0    0
SMALL
NO_CHARGES


@<TRIPOS>ATOM
   1 C1            -0.0168     1.3894     0.0097 C.ar    
   2 C2             0.0021    -0.0041     0.0020 C.ar    
   3 C3             1.1812    -0.6871    -0.0129 C.ar    
   4 C4             1.1390     2.1068     0.0025 C.ar    
   5 C5             3.6383    -0.6584    -0.0368 C.ar    
   6 C6             4.7960     0.1123    -0.0441 C.ar    
   7 C7             4.6944     1.5071    -0.0355 C.ar    
   8 N8             3.5236     2.1166    -0.0211 N.ar    
   9 C9             3.7047    -2.1315    -0.0450 C.2     
  10 C10            5.9332     2.3220    -0.0433 C.2     
  11 O11            7.0189     1.7767    -0.0570 O.2     
  12 N12            5.8548     3.6674    -0.0352 N.am    
  13 C13            4.0533    -2.9681    -1.2542 C.3     
  14 C14            3.5828    -4.3963    -0.8960 C.3     
  15 C15            3.6239    -4.3608     0.6489 C.3     
  16 C16            3.4726    -2.9007     1.0077 C.2     
  17 C17            2.3774     1.4362    -0.0129 C.ar    
  18 C18            2.3911     0.0183    -0.0207 C.ar    
  19 H19           -0.9641     1.9080     0.0170 H       
  20 H20           -0.9299    -0.5498     0.0084 H       
  21 H21            1.1827    -1.7671    -0.0184 H       
  22 H22            1.1070     3.1863     0.0082 H       
  23 H23            5.7659    -0.3627    -0.0560 H       
  24 H24            4.9881     4.1027    -0.0242 H       
  25 H25            6.6652     4.2005    -0.0403 H       
  26 H26            3.5226    -2.6033    -2.1336 H       
  27 H27            5.1294    -2.9553    -1.4269 H       
  28 H28            2.5696    -4.5753    -1.2556 H       
  29 H29            4.2723    -5.1442    -1.2877 H       
  30 H30            2.8012    -4.9432     1.0637 H       
  31 H31            4.5791    -4.7401     1.0118 H       
  32 H32            3.2055    -2.5345     1.9880 H       
@<TRIPOS>BOND
   1    1    2 ar
   2    1    4 ar
   3    1   19 1
   4    2    3 ar
   5    2   20 1
   6    3   18 ar
   7    3   21 1
   8    4   17 ar
   9    4   22 1
  10    5    6 ar
  11    5    9 1
  12    5   18 ar
  13    6    7 ar
  14    6   23 1
  15    7    8 ar
  16    7   10 1
  17    8   17 ar
  18    9   13 1
  19    9   16 2
  20   10   11 2
  21   10   12 am
  22   12   24 1
  23   12   25 1
  24   13   14 1
  25   13   26 1
  26   13   27 1
  27   14   15 1
  28   14   28 1
  29   14   29 1
  30   15   16 1
  31   15   30 1
  32   15   31 1
  33   16   32 1
  34   17   18 ar

#	End of record

