#	Name: ASD00100142
#	Creating user name:	WinNT
#	Creation time:	15. 06. 2019 18:30

#	Modifying user name:	WinNT
#	Modification time:	15. 06. 2019 18:30

#	Program:	/corina/corina34_cracker 3.40 0067  02.08.2006

@<TRIPOS>MOLECULE
ASD00100142
  41   43    0    0    0
SMALL
NO_CHARGES


@<TRIPOS>ATOM
   1 N1            -0.3075     1.8008     0.3938 N.pl3   
   2 C2            -0.0628     0.4470     0.2343 C.2     
   3 N3             1.1203    -0.1160     0.1661 N.2     
   4 C4             0.9726    -1.4428     0.0113 C.2     
   5 C5            -0.3418    -1.7208    -0.0185 C.2     
   6 N6            -1.0082    -0.5252     0.1278 N.pl3   
   7 C7            -2.4605    -0.3354     0.1600 C.3     
   8 C8            -2.9465     0.0560    -1.2118 C.ar    
   9 C9            -3.3605    -0.9204    -2.1065 C.ar    
  10 C10           -3.8072    -0.5569    -3.3684 C.ar    
  11 C11           -3.8389     0.7758    -3.7314 C.ar    
  12 C12           -3.4254     1.7467    -2.8383 C.ar    
  13 C13           -2.9854     1.3873    -1.5775 C.ar    
  14 O14           -3.3280    -2.2307    -1.7472 O.3     
  15 C15           -3.7691    -3.1810    -2.7190 C.3     
  16 C16           -0.9671    -3.0828    -0.1768 C.3     
  17 C17           -1.0103    -3.7743     1.1615 C.ar    
  18 C18           -2.1104    -3.6198     1.9842 C.ar    
  19 C19           -2.1500    -4.2541     3.2118 C.ar    
  20 C20           -1.0897    -5.0433     3.6165 C.ar    
  21 C21            0.0100    -5.1986     2.7934 C.ar    
  22 C22            0.0477    -4.5678     1.5639 C.ar    
  23 H23            0.4336     2.4225     0.4651 H       
  24 H24           -1.2200     2.1277     0.4301 H       
  25 H25            1.7733    -2.1624    -0.0750 H       
  26 H26           -2.9417    -1.2649     0.4644 H       
  27 H27           -2.7084     0.4521     0.8716 H       
  28 H28           -4.1297    -1.3151    -4.0667 H       
  29 H29           -4.1866     1.0593    -4.7138 H       
  30 H30           -3.4502     2.7878    -3.1242 H       
  31 H31           -2.6674     2.1480    -0.8799 H       
  32 H32           -4.8064    -2.9754    -2.9835 H       
  33 H33           -3.1453    -3.1060    -3.6098 H       
  34 H34           -3.6921    -4.1864    -2.3051 H       
  35 H35           -1.9807    -2.9745    -0.5627 H       
  36 H36           -0.3745    -3.6759    -0.8733 H       
  37 H37           -2.9388    -3.0031     1.6680 H       
  38 H38           -3.0092    -4.1327     3.8548 H       
  39 H39           -1.1204    -5.5383     4.5759 H       
  40 H40            0.8385    -5.8150     3.1097 H       
  41 H41            0.9052    -4.6921     0.9193 H       
@<TRIPOS>BOND
   1    1    2 1
   2    1   23 1
   3    1   24 1
   4    2    3 2
   5    2    6 1
   6    3    4 1
   7    4    5 2
   8    4   25 1
   9    5    6 1
  10    5   16 1
  11    6    7 1
  12    7    8 1
  13    7   26 1
  14    7   27 1
  15    8    9 ar
  16    8   13 ar
  17    9   10 ar
  18    9   14 1
  19   10   11 ar
  20   10   28 1
  21   11   12 ar
  22   11   29 1
  23   12   13 ar
  24   12   30 1
  25   13   31 1
  26   14   15 1
  27   15   32 1
  28   15   33 1
  29   15   34 1
  30   16   17 1
  31   16   35 1
  32   16   36 1
  33   17   18 ar
  34   17   22 ar
  35   18   19 ar
  36   18   37 1
  37   19   20 ar
  38   19   38 1
  39   20   21 ar
  40   20   39 1
  41   21   22 ar
  42   21   40 1
  43   22   41 1

#	End of record

