#	Name: ASD04930034
#	Creating user name:	WinNT
#	Creation time:	15. 06. 2019 20:56

#	Modifying user name:	WinNT
#	Modification time:	15. 06. 2019 20:56

#	Program:	/corina/corina34_cracker 3.40 0067  02.08.2006

@<TRIPOS>MOLECULE
ASD04930034
  79   81    0    0    0
SMALL
NO_CHARGES


@<TRIPOS>ATOM
   1 C1            -1.2270    -0.9343    -2.2216 C.ar    
   2 C2            -0.5528    -1.0654    -1.0159 C.ar    
   3 C3            -1.1018    -0.5827     0.1525 C.ar    
   4 C4            -2.3447     0.0438     0.1281 C.ar    
   5 C5            -3.0241     0.1749    -1.0964 C.ar    
   6 C6            -2.4453    -0.3181    -2.2711 C.ar    
   7 N7            -2.9011     0.5292     1.2937 N.am    
   8 C8            -4.0987     1.1385     1.3049 C.2     
   9 C9            -4.8645     1.3118     0.0712 C.2     
  10 C10           -4.3339     0.8339    -1.1293 C.2     
  11 O11           -5.0092     0.9743    -2.2890 O.3     
  12 O12           -4.5528     1.5518     2.3570 O.2     
  13 C13           -6.1723     1.9785     0.0942 C.2     
  14 O14           -6.2361     3.1896     0.1918 O.2     
  15 N15           -7.3022     1.2490     0.0071 N.am    
  16 N16           -8.5501     1.8719     0.1388 N.am    
  17 C17           -9.6800     1.1424     0.0517 C.2     
  18 C18          -11.0224     1.8125     0.1933 C.3     
  19 O19           -9.6165    -0.0533    -0.1407 O.2     
  20 C20          -12.1312     0.7674     0.0553 C.3     
  21 C21          -13.4941     1.4478     0.1991 C.3     
  22 C22          -14.6029     0.4026     0.0611 C.3     
  23 C23          -15.9658     1.0830     0.2050 C.3     
  24 C24          -17.0746     0.0378     0.0670 C.3     
  25 C25          -18.4375     0.7182     0.2108 C.3     
  26 C26          -19.5463    -0.3270     0.0728 C.3     
  27 C27          -20.9092     0.3534     0.2166 C.3     
  28 C28          -22.0180    -0.6917     0.0786 C.3     
  29 C29          -23.3809    -0.0114     0.2225 C.3     
  30 C30           -2.1670     0.3758     2.5522 C.3     
  31 H31           -0.7833    -1.3182    -3.1283 H       
  32 C32           -1.2664     1.5935     2.7690 C.3     
  33 C33           -0.5947     1.4934     4.1400 C.3     
  34 C34            0.3060     2.7111     4.3568 C.3     
  35 C35            1.3777     2.7534     3.2657 C.3     
  36 C36            0.7060     2.8535     1.8947 C.3     
  37 C37           -0.1946     1.6358     1.6779 C.3     
  38 H38            0.4117    -1.5509    -0.9928 H       
  39 H39           -0.5688    -0.6907     1.0856 H       
  40 H40           -2.9640    -0.2190    -3.2132 H       
  41 H41           -5.8942     1.3501    -2.1858 H       
  42 H42           -7.2514     0.2926    -0.1468 H       
  43 H43           -8.6009     2.8283     0.2926 H       
  44 H44          -11.0901     2.2870     1.1723 H       
  45 H45          -11.1356     2.5673    -0.5849 H       
  46 H46          -12.0635     0.2929    -0.9237 H       
  47 H47          -12.0180     0.0126     0.8335 H       
  48 H48          -13.5618     1.9222     1.1781 H       
  49 H49          -13.6073     2.2025    -0.5790 H       
  50 H50          -14.5352    -0.0719    -0.9178 H       
  51 H51          -14.4897    -0.3522     0.8393 H       
  52 H52          -16.0335     1.5574     1.1839 H       
  53 H53          -16.0790     1.8378    -0.5732 H       
  54 H54          -17.0069    -0.4366    -0.9120 H       
  55 H55          -16.9614    -0.7169     0.8452 H       
  56 H56          -18.5052     1.1927     1.1898 H       
  57 H57          -18.5507     1.4730    -0.5674 H       
  58 H58          -19.4786    -0.8014    -0.9062 H       
  59 H59          -19.4331    -1.0817     0.8510 H       
  60 H60          -20.9769     0.8279     1.1956 H       
  61 H61          -21.0224     1.1082    -0.5616 H       
  62 H62          -21.9503    -1.1662    -0.9003 H       
  63 H63          -21.9048    -1.4465     0.8568 H       
  64 H64          -23.4486     0.4631     1.2014 H       
  65 H65          -23.4941     0.7434    -0.5557 H       
  66 H66          -24.1708    -0.7560     0.1241 H       
  67 H67           -2.8742     0.2954     3.3778 H       
  68 H68           -1.5554    -0.5254     2.5086 H       
  69 H69           -1.8668     2.5021     2.7240 H       
  70 H70           -1.3582     1.4633     4.9174 H       
  71 H71            0.0057     0.5848     4.1851 H       
  72 H72           -0.2944     3.6197     4.3118 H       
  73 H73            0.7845     2.6398     5.3336 H       
  74 H74            2.0194     3.6209     3.4201 H       
  75 H75            1.9781     1.8448     3.3107 H       
  76 H76            0.1056     3.7621     1.8497 H       
  77 H77            1.4696     2.8836     1.1174 H       
  78 H78            0.4058     0.7272     1.7229 H       
  79 H79           -0.6731     1.7071     0.7012 H       
@<TRIPOS>BOND
   1    1    2 ar
   2    1   31 1
   3    1    6 ar
   4    2    3 ar
   5    2   38 1
   6    3    4 ar
   7    3   39 1
   8    4    5 ar
   9    4    7 1
  10    5    6 ar
  11    5   10 1
  12    6   40 1
  13    7    8 am
  14    7   30 1
  15    8    9 1
  16    8   12 2
  17    9   10 2
  18    9   13 1
  19   10   11 1
  20   11   41 1
  21   13   14 2
  22   13   15 am
  23   15   16 1
  24   15   42 1
  25   16   17 am
  26   16   43 1
  27   17   18 1
  28   17   19 2
  29   18   20 1
  30   18   44 1
  31   18   45 1
  32   20   21 1
  33   20   46 1
  34   20   47 1
  35   21   22 1
  36   21   48 1
  37   21   49 1
  38   22   23 1
  39   22   50 1
  40   22   51 1
  41   23   24 1
  42   23   52 1
  43   23   53 1
  44   24   25 1
  45   24   54 1
  46   24   55 1
  47   25   26 1
  48   25   56 1
  49   25   57 1
  50   26   27 1
  51   26   58 1
  52   26   59 1
  53   27   28 1
  54   27   60 1
  55   27   61 1
  56   28   29 1
  57   28   62 1
  58   28   63 1
  59   29   64 1
  60   29   65 1
  61   29   66 1
  62   30   32 1
  63   30   67 1
  64   30   68 1
  65   32   33 1
  66   32   37 1
  67   32   69 1
  68   33   34 1
  69   33   70 1
  70   33   71 1
  71   34   35 1
  72   34   72 1
  73   34   73 1
  74   35   36 1
  75   35   74 1
  76   35   75 1
  77   36   37 1
  78   36   76 1
  79   36   77 1
  80   37   78 1
  81   37   79 1

#	End of record

