#	Name: ASD03240413
#	Creating user name:	WinNT
#	Creation time:	15. 06. 2019 20:34

#	Modifying user name:	WinNT
#	Modification time:	15. 06. 2019 20:34

#	Program:	/corina/corina34_cracker 3.40 0067  02.08.2006

@<TRIPOS>MOLECULE
ASD03240413
  43   45    0    0    0
SMALL
NO_CHARGES


@<TRIPOS>ATOM
   1 C1            -0.0167     1.3781     0.0096 C.ar    
   2 C2             0.0021    -0.0041     0.0020 C.ar    
   3 C3             2.5008     1.5047    -2.0844 C.ar    
   4 C4             1.6960     2.4140    -1.4221 C.ar    
   5 C5             1.2780     2.1493     0.0014 C.3     
   6 C6             2.8865     1.7423    -3.3882 C.ar    
   7 C7             2.4639     2.9002    -4.0370 C.ar    
   8 C8             1.6538     3.8129    -3.3651 C.ar    
   9 C9             1.2739     3.5656    -2.0614 C.ar    
  10 C10            2.8760     3.1612    -5.4393 C.2     
  11 C11           -1.1855    -0.7115     0.0096 C.ar    
  12 C12           -2.3919    -0.0367     0.0253 C.ar    
  13 C13           -2.4106     1.3455     0.0338 C.ar    
  14 C14           -1.2231     2.0530     0.0190 C.ar    
  15 C15            2.5365     4.2485    -6.1903 C.2     
  16 N16            3.1119     4.1036    -7.4010 N.pl3   
  17 N17            3.8260     2.8993    -7.4049 N.2     
  18 C18            3.6937     2.3344    -6.2341 C.2     
  19 C19            1.0839     3.4797     0.7317 C.3     
  20 N20            2.3090     4.2826     0.6206 N.3     
  21 O21            2.2907     1.3871     0.6613 O.3     
  22 C22            2.1591     5.5701     1.3118 C.3     
  23 N23           -3.6636    -0.7941     0.0324 N.pl3   
  24 O24           -3.6471    -2.0120     0.0245 O.2     
  25 O25           -4.7265    -0.1995     0.0462 O.2     
  26 H26            0.9446    -0.5313    -0.0102 H       
  27 H27            2.8316     0.6094    -1.5790 H       
  28 H28            3.5152     1.0318    -3.9043 H       
  29 H29            1.3234     4.7122    -3.8636 H       
  30 H30            0.6456     4.2724    -1.5398 H       
  31 H31           -1.1709    -1.7913     0.0029 H       
  32 H32           -3.3531     1.8727     0.0457 H       
  33 H33           -1.2377     3.1328     0.0257 H       
  34 H34            1.9188     5.0754    -5.8726 H       
  35 H35            3.0428     4.7262    -8.1417 H       
  36 H36            4.1294     1.3939    -5.9310 H       
  37 H37            0.2519     4.0224     0.2830 H       
  38 H38            0.8685     3.2890     1.7830 H       
  39 H39            3.1072     3.7747     0.9714 H       
  40 H40            2.4670     0.5291     0.2515 H       
  41 H41            3.0803     6.1445     1.2139 H       
  42 H42            1.3345     6.1274     0.8671 H       
  43 H43            1.9512     5.3939     2.3672 H       
@<TRIPOS>BOND
   1    1    2 ar
   2    1    5 1
   3    1   14 ar
   4    2   11 ar
   5    2   26 1
   6    3    4 ar
   7    3    6 ar
   8    3   27 1
   9    4    5 1
  10    4    9 ar
  11    5   19 1
  12    5   21 1
  13    6    7 ar
  14    6   28 1
  15    7    8 ar
  16    7   10 1
  17    8    9 ar
  18    8   29 1
  19    9   30 1
  20   10   15 2
  21   10   18 1
  22   11   12 ar
  23   11   31 1
  24   12   13 ar
  25   12   23 1
  26   13   14 ar
  27   13   32 1
  28   14   33 1
  29   15   16 1
  30   15   34 1
  31   16   17 1
  32   16   35 1
  33   17   18 2
  34   18   36 1
  35   19   20 1
  36   19   37 1
  37   19   38 1
  38   20   22 1
  39   20   39 1
  40   21   40 1
  41   22   41 1
  42   22   42 1
  43   22   43 1
  44   23   24 2
  45   23   25 2

#	End of record

