#	Name: ASD02038758
#	Creating user name:	WinNT
#	Creation time:	15. 06. 2019 20:17

#	Modifying user name:	WinNT
#	Modification time:	15. 06. 2019 20:17

#	Program:	/corina/corina34_cracker 3.40 0067  02.08.2006

@<TRIPOS>MOLECULE
ASD02038758
  44   46    0    0    0
SMALL
NO_CHARGES


@<TRIPOS>ATOM
   1 C1             0.0367     1.3233    -0.8080 C.2     
   2 C2             0.0161    -0.1280    -0.5555 C.2     
   3 N3             1.1666    -0.8300    -0.5645 N.am    
   4 C4             1.1633    -2.2464    -0.1906 C.3     
   5 O5             1.1510    -3.0508    -1.3716 O.3     
   6 C6             2.4204    -0.1766    -0.9483 C.3     
   7 O7            -1.0391    -0.6926    -0.3388 O.2     
   8 N8             1.1418     2.1070    -0.8954 N.2     
   9 C9             0.7710     3.3333    -1.1261 C.2     
  10 N10           -0.5849     3.3799    -1.1949 N.pl3   
  11 C11           -1.0509     2.1235    -1.0025 C.2     
  12 C12            2.3511    -3.3096    -1.9544 C.ar    
  13 C13            2.4102    -4.0606    -3.1194 C.ar    
  14 C14            2.2348     0.5411    -2.2888 C.3     
  15 C15            3.5247     1.2857    -2.6430 C.3     
  16 O16            3.8468     2.2028    -1.5955 O.3     
  17 C17            4.0779     1.5836    -0.3285 C.3     
  18 C18            2.8102     0.8510     0.1187 C.3     
  19 C19           -1.3969     4.5744    -1.4399 C.3     
  20 C20            3.6314    -4.3223    -3.7099 C.ar    
  21 C21            4.7941    -3.8366    -3.1407 C.ar    
  22 C22            4.7379    -3.0883    -1.9794 C.ar    
  23 C23            3.5187    -2.8186    -1.3885 C.ar    
  24 H24            2.0568    -2.4704     0.3922 H       
  25 H25            0.2769    -2.4628     0.4056 H       
  26 H26            3.2078    -0.9245    -1.0411 H       
  27 H27            1.4343     4.1775    -1.2435 H       
  28 H28           -2.0859     1.8150    -0.9965 H       
  29 H29            1.5024    -4.4406    -3.5642 H       
  30 H30            2.0112    -0.1902    -3.0656 H       
  31 H31            1.4131     1.2530    -2.2101 H       
  32 H32            4.3373     0.5689    -2.7613 H       
  33 H33            3.3841     1.8331    -3.5750 H       
  34 H34            4.8978     0.8707    -0.4165 H       
  35 H35            4.3359     2.3456     0.4068 H       
  36 H36            2.0002     1.5691     0.2460 H       
  37 H37            2.9983     0.3413     1.0637 H       
  38 H38           -1.5534     4.6938    -2.5119 H       
  39 H39           -2.3605     4.4672    -0.9417 H       
  40 H40           -0.8810     5.4511    -1.0481 H       
  41 H41            3.6780    -4.9072    -4.6166 H       
  42 H42            5.7478    -4.0423    -3.6039 H       
  43 H43            5.6475    -2.7105    -1.5364 H       
  44 H44            3.4752    -2.2340    -0.4814 H       
@<TRIPOS>BOND
   1    1    2 1
   2    1    8 1
   3    1   11 2
   4    2    3 am
   5    2    7 2
   6    3    4 1
   7    3    6 1
   8    4    5 1
   9    4   24 1
  10    4   25 1
  11    5   12 1
  12    6   14 1
  13    6   18 1
  14    6   26 1
  15    8    9 2
  16    9   10 1
  17    9   27 1
  18   10   11 1
  19   10   19 1
  20   11   28 1
  21   12   13 ar
  22   12   23 ar
  23   13   20 ar
  24   13   29 1
  25   14   15 1
  26   14   30 1
  27   14   31 1
  28   15   16 1
  29   15   32 1
  30   15   33 1
  31   16   17 1
  32   17   18 1
  33   17   34 1
  34   17   35 1
  35   18   36 1
  36   18   37 1
  37   19   38 1
  38   19   39 1
  39   19   40 1
  40   20   21 ar
  41   20   41 1
  42   21   22 ar
  43   21   42 1
  44   22   23 ar
  45   22   43 1
  46   23   44 1

#	End of record

