#	Name: ASD03731762
#	Creating user name:	WinNT
#	Creation time:	15. 06. 2019 20:46

#	Modifying user name:	WinNT
#	Modification time:	15. 06. 2019 20:46

#	Program:	/corina/corina34_cracker 3.40 0067  02.08.2006

@<TRIPOS>MOLECULE
ASD03731762
  37   38    0    0    0
SMALL
NO_CHARGES


@<TRIPOS>ATOM
   1 C1             0.3767     1.0888     1.9846 C.2     
   2 C2             0.2927    -0.2840     1.4570 C.ar    
   3 C3             1.3793    -0.8403     0.7655 C.ar    
   4 C4             1.2920    -2.1324     0.2729 C.ar    
   5 C5             0.1319    -2.8716     0.4645 C.ar    
   6 C6            -0.9457    -2.3198     1.1498 C.ar    
   7 C7            -0.8682    -1.0397     1.6484 C.ar    
   8 O8             1.3894     1.7421     1.8212 O.2     
   9 N9            -0.6707     1.6226     2.6437 N.am    
  10 S10           -0.5762     3.1659     3.2369 S.o2    
  11 O11           -1.8278     3.3723     3.8773 O.2     
  12 O12            0.6369     3.1833     3.9766 O.2     
  13 C13           -0.4366     4.2106     1.7604 C.3     
  14 O14            2.5116    -0.1155     0.5793 O.3     
  15 C15            3.5203    -0.2179     1.5863 C.3     
  16 F16            2.3350    -2.6730    -0.3941 F       
  17 O17            0.0491    -4.1373    -0.0192 O.3     
  18 C18           -1.1393    -4.7868     0.0933 C.ar    
  19 C19           -2.0931    -4.6684    -0.9074 C.ar    
  20 C20           -3.3003    -5.3297    -0.7914 C.ar    
  21 C21           -3.5587    -6.1100     0.3218 C.ar    
  22 C22           -2.6088    -6.2294     1.3208 C.ar    
  23 C23           -1.3983    -5.5739     1.2062 C.ar    
  24 Cl24          -5.0768    -6.9397     0.4654 Cl      
  25 H25           -1.8451    -2.8999     1.2946 H       
  26 H26           -1.7056    -0.6169     2.1837 H       
  27 H27           -1.4798     1.1030     2.7705 H       
  28 H28           -1.3154     4.0696     1.1312 H       
  29 H29           -0.3685     5.2563     2.0604 H       
  30 H30            0.4579     3.9336     1.2026 H       
  31 H31            4.3694     0.4096     1.3152 H       
  32 H32            3.1145     0.1131     2.5422 H       
  33 H33            3.8466    -1.2546     1.6695 H       
  34 H34           -1.8920    -4.0592    -1.7763 H       
  35 H35           -4.0431    -5.2375    -1.5700 H       
  36 H36           -2.8125    -6.8385     2.1891 H       
  37 H37           -0.6554    -5.6709     1.9841 H       
@<TRIPOS>BOND
   1    1    2 1
   2    1    8 2
   3    1    9 am
   4    2    3 ar
   5    2    7 ar
   6    3    4 ar
   7    3   14 1
   8    4    5 ar
   9    4   16 1
  10    5    6 ar
  11    5   17 1
  12    6    7 ar
  13    6   25 1
  14    7   26 1
  15    9   10 am
  16    9   27 1
  17   10   11 2
  18   10   12 2
  19   10   13 1
  20   13   28 1
  21   13   29 1
  22   13   30 1
  23   14   15 1
  24   15   31 1
  25   15   32 1
  26   15   33 1
  27   17   18 1
  28   18   19 ar
  29   18   23 ar
  30   19   20 ar
  31   19   34 1
  32   20   21 ar
  33   20   35 1
  34   21   22 ar
  35   21   24 1
  36   22   23 ar
  37   22   36 1
  38   23   37 1

#	End of record

