#	Name: ASD01917437
#	Creating user name:	WinNT
#	Creation time:	15. 06. 2019 20:09

#	Modifying user name:	WinNT
#	Modification time:	15. 06. 2019 20:09

#	Program:	/corina/corina34_cracker 3.40 0067  02.08.2006

@<TRIPOS>MOLECULE
ASD01917437
  47   51    0    0    0
SMALL
NO_CHARGES


@<TRIPOS>ATOM
   1 C1            -0.0171     1.4090     0.0098 C.ar    
   2 C2             0.0021    -0.0041     0.0020 C.ar    
   3 C3            -1.1906    -0.7245     0.0401 C.ar    
   4 C4            -2.3838    -0.0615     0.0717 C.ar    
   5 C5            -2.4207     1.3388     0.0668 C.ar    
   6 C6            -1.2423     2.0756     0.0362 C.ar    
   7 N7             1.1593     2.0744     0.0021 N.2     
   8 C8             2.3197     1.4676    -0.0393 C.2     
   9 N9             2.4211     0.1197    -0.1563 N.am    
  10 C10            1.3118    -0.6634    -0.0614 C.2     
  11 O11            1.4034    -1.8767    -0.0296 O.2     
  12 C12           -3.7235     2.0388     0.0943 C.2     
  13 C13            3.5351     2.3460     0.1019 C.3     
  14 C14            4.7919     1.6941    -0.4306 C.3     
  15 C15            4.8975     0.2380    -0.0257 C.3     
  16 C16            3.6811    -0.5612    -0.4346 C.3     
  17 C17            6.1362    -0.3716    -0.6852 C.3     
  18 C18            5.0568     0.1561     1.4938 C.3     
  19 N19           -4.9167     1.4773     0.1245 N.2     
  20 C20           -5.7966     2.5000     0.1417 C.2     
  21 N21           -5.1053     3.6103     0.1214 N.2     
  22 O22           -3.9175     3.3666     0.0993 O.3     
  23 C23           -7.2769     2.3861     0.1767 C.ar    
  24 C24           -8.0575     3.5385     0.1911 C.ar    
  25 C25           -9.4369     3.4168     0.2232 C.ar    
  26 C26           -9.9887     2.1445     0.2399 C.ar    
  27 C27           -9.1523     1.0424     0.2241 C.ar    
  28 N28           -7.8440     1.1872     0.1884 N.ar    
  29 H29           -1.1710    -1.8043     0.0442 H       
  30 H30           -3.3070    -0.6213     0.1004 H       
  31 H31           -1.2751     3.1551     0.0333 H       
  32 H32            3.3630     3.2749    -0.4419 H       
  33 H33            3.6796     2.5798     1.1567 H       
  34 H34            4.7905     1.7594    -1.5186 H       
  35 H35            5.6590     2.2316    -0.0468 H       
  36 H36            3.6908    -1.5109     0.1002 H       
  37 H37            3.7398    -0.7647    -1.5039 H       
  38 H38            7.0250     0.1674    -0.3570 H       
  39 H39            6.2210    -1.4201    -0.3997 H       
  40 H40            6.0450    -0.2963    -1.7688 H       
  41 H41            4.1907     0.6104     1.9750 H       
  42 H42            5.1337    -0.8885     1.7953 H       
  43 H43            5.9596     0.6882     1.7937 H       
  44 H44           -7.5941     4.5139     0.1777 H       
  45 H45          -10.0684     4.2928     0.2354 H       
  46 H46          -11.0606     2.0153     0.2654 H       
  47 H47           -9.5784     0.0501     0.2373 H       
@<TRIPOS>BOND
   1    1    2 ar
   2    1    7 1
   3    1    6 ar
   4    2    3 ar
   5    2   10 1
   6    3    4 ar
   7    3   29 1
   8    4    5 ar
   9    4   30 1
  10    5    6 ar
  11    5   12 1
  12    6   31 1
  13    7    8 2
  14    8    9 1
  15    8   13 1
  16    9   10 am
  17    9   16 1
  18   10   11 2
  19   12   19 2
  20   12   22 1
  21   13   14 1
  22   13   32 1
  23   13   33 1
  24   14   15 1
  25   14   34 1
  26   14   35 1
  27   15   16 1
  28   15   17 1
  29   15   18 1
  30   16   36 1
  31   16   37 1
  32   17   38 1
  33   17   39 1
  34   17   40 1
  35   18   41 1
  36   18   42 1
  37   18   43 1
  38   19   20 1
  39   20   23 1
  40   20   21 2
  41   21   22 1
  42   23   24 ar
  43   23   28 ar
  44   24   25 ar
  45   24   44 1
  46   25   26 ar
  47   25   45 1
  48   26   27 ar
  49   26   46 1
  50   27   28 ar
  51   27   47 1

#	End of record

