#	Name: ASD01140041
#	Creating user name:	WinNT
#	Creation time:	15. 06. 2019 18:59

#	Modifying user name:	WinNT
#	Modification time:	15. 06. 2019 18:59

#	Program:	/corina/corina34_cracker 3.40 0067  02.08.2006

@<TRIPOS>MOLECULE
ASD01140041
  44   46    0    0    0
SMALL
NO_CHARGES


@<TRIPOS>ATOM
   1 O1            -0.0009     0.3959     0.1254 O.2     
   2 C2            -0.1615     1.5977     0.0989 C.2     
   3 N3             0.9058     2.4207     0.1141 N.am    
   4 C4             2.2598     1.8634     0.1627 C.3     
   5 C5             0.7119     3.8724     0.0821 C.3     
   6 C6            -1.5541     2.1708     0.0427 C.3     
   7 C7            -2.5592     1.0480     0.0292 C.2     
   8 C8            -3.1376     0.4925    -1.0719 C.2     
   9 C9            -2.8862     0.8896    -2.4795 C.ar    
  10 C10           -1.5882     1.1591    -2.9088 C.ar    
  11 C11           -1.3601     1.5280    -4.2191 C.ar    
  12 C12           -2.4171     1.6304    -5.1055 C.ar    
  13 C13           -2.1618     2.0337    -6.5349 C.3     
  14 C14           -3.7075     1.3636    -4.6847 C.ar    
  15 C15           -3.9465     0.9887    -3.3781 C.ar    
  16 N16           -3.9736    -0.4760    -0.6655 N.2     
  17 C17           -3.9417    -0.5499     0.6567 C.2     
  18 C18           -4.6170    -1.3815     1.5737 C.2     
  19 C19           -4.3843    -1.2322     2.9054 C.2     
  20 C20           -3.4775    -0.2550     3.3483 C.2     
  21 C21           -3.2167    -0.0871     4.8230 C.3     
  22 C22           -2.8385     0.5338     2.4592 C.2     
  23 N23           -3.0578     0.3912     1.1191 N.pl3   
  24 H24            2.6247     1.7065    -0.8524 H       
  25 H25            2.9199     2.5575     0.6828 H       
  26 H26            2.2422     0.9117     0.6937 H       
  27 H27            0.1295     4.1804     0.9505 H       
  28 H28            1.6820     4.3690     0.1005 H       
  29 H29            0.1799     4.1479    -0.8285 H       
  30 H30           -1.7237     2.7998     0.9166 H       
  31 H31           -1.6648     2.7685    -0.8621 H       
  32 H32           -0.7623     1.0797    -2.2175 H       
  33 H33           -0.3546     1.7375    -4.5528 H       
  34 H34           -1.9803     1.1432    -7.1367 H       
  35 H35           -3.0312     2.5640    -6.9236 H       
  36 H36           -1.2893     2.6856    -6.5782 H       
  37 H37           -4.5291     1.4451    -5.3810 H       
  38 H38           -4.9539     0.7766    -3.0517 H       
  39 H39           -5.3123    -2.1293     1.2221 H       
  40 H40           -4.8946    -1.8619     3.6192 H       
  41 H41           -3.8167    -0.8051     5.3821 H       
  42 H42           -2.1600    -0.2595     5.0271 H       
  43 H43           -3.4850     0.9249     5.1265 H       
  44 H44           -2.1434     1.2819     2.8108 H       
@<TRIPOS>BOND
   1    1    2 2
   2    2    3 am
   3    2    6 1
   4    3    4 1
   5    3    5 1
   6    4   24 1
   7    4   25 1
   8    4   26 1
   9    5   27 1
  10    5   28 1
  11    5   29 1
  12    6    7 1
  13    6   30 1
  14    6   31 1
  15    7    8 2
  16    7   23 1
  17    8    9 1
  18    8   16 1
  19    9   10 ar
  20    9   15 ar
  21   10   11 ar
  22   10   32 1
  23   11   12 ar
  24   11   33 1
  25   12   13 1
  26   12   14 ar
  27   13   34 1
  28   13   35 1
  29   13   36 1
  30   14   15 ar
  31   14   37 1
  32   15   38 1
  33   16   17 2
  34   17   18 1
  35   17   23 1
  36   18   19 2
  37   18   39 1
  38   19   20 1
  39   19   40 1
  40   20   21 1
  41   20   22 2
  42   21   41 1
  43   21   42 1
  44   21   43 1
  45   22   23 1
  46   22   44 1

#	End of record

