#	Name: ASD01913881
#	Creating user name:	WinNT
#	Creation time:	15. 06. 2019 20:02

#	Modifying user name:	WinNT
#	Modification time:	15. 06. 2019 20:02

#	Program:	/corina/corina34_cracker 3.40 0067  02.08.2006

@<TRIPOS>MOLECULE
ASD01913881
  48   50    0    0    0
SMALL
NO_CHARGES


@<TRIPOS>ATOM
   1 C1             2.5848     1.2830    -0.4350 C.ar    
   2 C2             2.2613    -0.1119    -0.4454 C.1     
   3 C3             1.9961    -1.2555    -0.4540 C.1     
   4 C4             1.6726    -2.6505    -0.4645 C.ar    
   5 C5             0.3342    -3.0712    -0.4568 C.ar    
   6 C6             1.1363    -5.3244    -0.4851 C.ar    
   7 N7             2.3896    -4.8960    -0.4983 N.ar    
   8 C8             2.6845    -3.6127    -0.4883 C.ar    
   9 C9             0.0730    -4.4266    -0.4673 C.ar    
  10 C10            3.9204     1.6941    -0.4427 C.ar    
  11 C11            4.2243     3.0394    -0.4330 C.ar    
  12 C12            1.5665     2.2399    -0.4228 C.ar    
  13 C13            3.2106     3.9811    -0.4157 C.ar    
  14 C14            1.8857     3.5816    -0.4132 C.ar    
  15 N15            0.8786    -6.6930    -0.4967 N.am    
  16 C16           -0.3378    -7.2538    -0.4922 C.2     
  17 N17           -0.3183    -8.5931    -0.5057 N.am    
  18 C18            1.0774    -9.0558    -0.5219 C.3     
  19 C19            1.8987    -7.7519    -0.5220 C.3     
  20 C20           -1.4998    -9.4593    -0.5046 C.3     
  21 O21           -1.3664    -6.6060    -0.4769 O.2     
  22 C22            1.3817    -9.8882     0.7253 C.3     
  23 C23            0.5994   -11.2017     0.6653 C.3     
  24 C24            2.8806   -10.1895     0.7842 C.3     
  25 C25            0.9695    -9.1057     1.9738 C.3     
  26 H26           -0.4717    -2.3524    -0.4425 H       
  27 H27            3.7186    -3.3014    -0.4989 H       
  28 H28           -0.9453    -4.7864    -0.4615 H       
  29 H29            4.7127     0.9602    -0.4559 H       
  30 H30            5.2561     3.3586    -0.4387 H       
  31 H31            0.5320     1.9295    -0.4212 H       
  32 H32            3.4546     5.0332    -0.4082 H       
  33 H33            1.0997     4.3222    -0.4000 H       
  34 H34            1.2794    -9.6309    -1.4255 H       
  35 H35            2.5073    -7.6832    -1.4237 H       
  36 H36            2.5245    -7.6938     0.3685 H       
  37 H37           -2.3982    -8.8485    -0.5937 H       
  38 H38           -1.4449   -10.1497    -1.3463 H       
  39 H39           -1.5353   -10.0242     0.4269 H       
  40 H40            0.7928   -11.6966    -0.2864 H       
  41 H41            0.9148   -11.8501     1.4827 H       
  42 H42           -0.4667   -10.9941     0.7568 H       
  43 H43            3.4379    -9.2538     0.8270 H       
  44 H44            3.0974   -10.7825     1.6727 H       
  45 H45            3.1743   -10.7470    -0.1052 H       
  46 H46           -0.0984    -8.8910     1.9319 H       
  47 H47            1.1862    -9.6986     2.8623 H       
  48 H48            1.5268    -8.1699     2.0166 H       
@<TRIPOS>BOND
   1    1    2 1
   2    1   10 ar
   3    1   12 ar
   4    2    3 3
   5    3    4 1
   6    4    5 ar
   7    4    8 ar
   8    5    9 ar
   9    5   26 1
  10    6    7 ar
  11    6   15 1
  12    6    9 ar
  13    7    8 ar
  14    8   27 1
  15    9   28 1
  16   10   11 ar
  17   10   29 1
  18   11   13 ar
  19   11   30 1
  20   12   14 ar
  21   12   31 1
  22   13   14 ar
  23   13   32 1
  24   14   33 1
  25   15   16 am
  26   15   19 1
  27   16   17 am
  28   16   21 2
  29   17   18 1
  30   17   20 1
  31   18   19 1
  32   18   22 1
  33   18   34 1
  34   19   35 1
  35   19   36 1
  36   20   37 1
  37   20   38 1
  38   20   39 1
  39   22   23 1
  40   22   24 1
  41   22   25 1
  42   23   40 1
  43   23   41 1
  44   23   42 1
  45   24   43 1
  46   24   44 1
  47   24   45 1
  48   25   46 1
  49   25   47 1
  50   25   48 1

#	End of record

