#	Name: ASD00122060
#	Creating user name:	WinNT
#	Creation time:	15. 06. 2019 18:31

#	Modifying user name:	WinNT
#	Modification time:	15. 06. 2019 18:31

#	Program:	/corina/corina34_cracker 3.40 0067  02.08.2006

@<TRIPOS>MOLECULE
ASD00122060
  39   39    0    0    0
SMALL
NO_CHARGES


@<TRIPOS>ATOM
   1 C1            -0.0166     1.3724     0.0096 C.ar    
   2 C2             0.0021    -0.0041     0.0020 C.ar    
   3 C3             1.2250    -0.6849    -0.0133 C.ar    
   4 C4             2.4232     0.0385    -0.0208 C.ar    
   5 C5             2.3936     1.4148    -0.0132 C.ar    
   6 C6             1.1763     2.0862     0.0020 C.ar    
   7 O7             1.1525     3.4434     0.0095 O.3     
   8 C8            -0.1318     4.0696     0.0251 C.3     
   9 C9             2.4570    -4.2712    -0.0433 C.2     
  10 N10            3.6357    -4.9244    -0.0581 N.am    
  11 O11            1.4137    -4.8982    -0.0363 O.2     
  12 C12            3.6614    -6.3892    -0.0657 C.3     
  13 C13            4.9715    -6.8730    -0.6905 C.3     
  14 C14            3.5587    -6.9085     1.3698 C.3     
  15 C15            2.1953    -6.5307     1.9525 C.3     
  16 C16            5.0176    -6.4597    -2.1629 C.3     
  17 C17            1.2508    -2.1547    -0.0209 C.2     
  18 C18            2.4313    -2.8089    -0.0357 C.2     
  19 H19           -0.9597     1.8987     0.0169 H       
  20 H20           -0.9252    -0.5577     0.0082 H       
  21 H21            3.3694    -0.4821    -0.0323 H       
  22 H22            3.3176     1.9739    -0.0190 H       
  23 H23           -0.0080     5.1525     0.0298 H       
  24 H24           -0.6921     3.7718    -0.8612 H       
  25 H25           -0.6751     3.7622     0.9187 H       
  26 H26            4.4671    -4.4247    -0.0636 H       
  27 H27            2.8204    -6.7643    -0.6489 H       
  28 H28            5.8132    -6.4263    -0.1613 H       
  29 H29            5.0304    -7.9589    -0.6159 H       
  30 H30            3.6669    -7.9932     1.3724 H       
  31 H31            4.3484    -6.4631     1.9747 H       
  32 H32            2.1221    -6.9007     2.9751 H       
  33 H33            2.0871    -5.4461     1.9499 H       
  34 H34            1.4056    -6.9761     1.3475 H       
  35 H35            5.9509    -6.8044    -2.6081 H       
  36 H36            4.1759    -6.9064    -2.6922 H       
  37 H37            4.9587    -5.3739    -2.2375 H       
  38 H38            0.3251    -2.7110    -0.0148 H       
  39 H39            3.3569    -2.2525    -0.0419 H       
@<TRIPOS>BOND
   1    1    2 ar
   2    1    6 ar
   3    1   19 1
   4    2    3 ar
   5    2   20 1
   6    3    4 ar
   7    3   17 1
   8    4    5 ar
   9    4   21 1
  10    5    6 ar
  11    5   22 1
  12    6    7 1
  13    7    8 1
  14    8   23 1
  15    8   24 1
  16    8   25 1
  17    9   10 am
  18    9   11 2
  19    9   18 1
  20   10   12 1
  21   10   26 1
  22   12   13 1
  23   12   14 1
  24   12   27 1
  25   13   16 1
  26   13   28 1
  27   13   29 1
  28   14   15 1
  29   14   30 1
  30   14   31 1
  31   15   32 1
  32   15   33 1
  33   15   34 1
  34   16   35 1
  35   16   36 1
  36   16   37 1
  37   17   18 2
  38   17   38 1
  39   18   39 1

#	End of record

