#	Name: ASD03540345
#	Creating user name:	WinNT
#	Creation time:	15. 06. 2019 20:43

#	Modifying user name:	WinNT
#	Modification time:	15. 06. 2019 20:43

#	Program:	/corina/corina34_cracker 3.40 0067  02.08.2006

@<TRIPOS>MOLECULE
ASD03540345
  56   59    0    0    0
SMALL
NO_CHARGES


@<TRIPOS>ATOM
   1 C1            -0.0161     1.3365     0.0094 C.2     
   2 N2             0.0021    -0.0041     0.0020 N.am    
   3 C3             1.1934    -0.7075    -0.0132 C.2     
   4 C4             2.3927    -0.0052    -0.0209 C.2     
   5 C5             2.3194     1.4731    -0.0123 C.2     
   6 N6             1.1112     2.0659     0.0025 N.am    
   7 C7             3.5132    -0.8389    -0.0357 C.2     
   8 C8             3.2261    -2.1513    -0.0396 C.2     
   9 S9             1.4880    -2.3901    -0.0245 S.3     
  10 C10            4.2202    -3.2270    -0.0552 C.2     
  11 O11            5.4074    -2.9586    -0.0657 O.2     
  12 N12            3.8203    -4.5141    -0.0579 N.am    
  13 C13            4.8145    -5.5900    -0.0735 C.3     
  14 C14            4.1120    -6.9232    -0.0734 C.ar    
  15 C15            3.5922    -7.4332    -1.2549 C.ar    
  16 C16            2.9461    -8.6595    -1.2542 C.ar    
  17 C17            2.8208    -9.3738    -0.0724 C.ar    
  18 C18            3.3422    -8.8598     1.1062 C.ar    
  19 C19            3.9908    -7.6395     1.1018 C.ar    
  20 O20            2.1875   -10.5762    -0.0684 O.3     
  21 C21            2.0952   -11.2567     1.1848 C.3     
  22 O22            3.7161    -6.7305    -2.4116 O.3     
  23 C23            3.1574    -7.3159    -3.5893 C.3     
  24 O24            3.3359     2.1421    -0.0183 O.2     
  25 O25           -1.0880     1.9102     0.0175 O.2     
  26 C26           -1.2652    -0.7390     0.0107 C.3     
  27 C27            1.0247     3.5284     0.0113 C.3     
  28 C28            1.0086     4.0221     1.4350 C.ar    
  29 C29            2.1963     4.3193     2.0769 C.ar    
  30 C30            2.1816     4.7722     3.3829 C.ar    
  31 C31            0.9792     4.9283     4.0468 C.ar    
  32 C32           -0.2085     4.6320     3.4046 C.ar    
  33 C33           -0.1940     4.1833     2.0972 C.ar    
  34 H34            4.5248    -0.4605    -0.0436 H       
  35 H35            2.8742    -4.7281    -0.0495 H       
  36 H36            5.4295    -5.5035    -0.9692 H       
  37 H37            5.4474    -5.5127     0.8106 H       
  38 H38            2.5406    -9.0578    -2.1725 H       
  39 H39            3.2448    -9.4157     2.0269 H       
  40 H40            4.3998    -7.2430     2.0194 H       
  41 H41            1.5681   -12.2008     1.0476 H       
  42 H42            3.0973   -11.4522     1.5667 H       
  43 H43            1.5500   -10.6361     1.8959 H       
  44 H44            3.6343    -8.2777    -3.7784 H       
  45 H45            2.0865    -7.4627    -3.4492 H       
  46 H46            3.3253    -6.6539    -4.4388 H       
  47 H47           -2.0950    -0.0323     0.0228 H       
  48 H48           -1.3306    -1.3610    -0.8820 H       
  49 H49           -1.3129    -1.3705     0.8978 H       
  50 H50            1.8867     3.9464    -0.5086 H       
  51 H51            0.1099     3.8413    -0.4921 H       
  52 H52            3.1357     4.1973     1.5582 H       
  53 H53            3.1095     5.0037     3.8846 H       
  54 H54            0.9677     5.2815     5.0674 H       
  55 H55           -1.1479     4.7537     3.9234 H       
  56 H56           -1.1222     3.9553     1.5942 H       
@<TRIPOS>BOND
   1    1    2 am
   2    1    6 am
   3    1   25 2
   4    2    3 1
   5    2   26 1
   6    3    4 2
   7    3    9 1
   8    4    5 1
   9    4    7 1
  10    5    6 am
  11    5   24 2
  12    6   27 1
  13    7    8 2
  14    7   34 1
  15    8    9 1
  16    8   10 1
  17   10   11 2
  18   10   12 am
  19   12   13 1
  20   12   35 1
  21   13   14 1
  22   13   36 1
  23   13   37 1
  24   14   15 ar
  25   14   19 ar
  26   15   16 ar
  27   15   22 1
  28   16   17 ar
  29   16   38 1
  30   17   18 ar
  31   17   20 1
  32   18   19 ar
  33   18   39 1
  34   19   40 1
  35   20   21 1
  36   21   41 1
  37   21   42 1
  38   21   43 1
  39   22   23 1
  40   23   44 1
  41   23   45 1
  42   23   46 1
  43   26   47 1
  44   26   48 1
  45   26   49 1
  46   27   28 1
  47   27   50 1
  48   27   51 1
  49   28   29 ar
  50   28   33 ar
  51   29   30 ar
  52   29   52 1
  53   30   31 ar
  54   30   53 1
  55   31   32 ar
  56   31   54 1
  57   32   33 ar
  58   32   55 1
  59   33   56 1

#	End of record

