#	Name: ASD01810703
#	Creating user name:	WinNT
#	Creation time:	15. 06. 2019 19:25

#	Modifying user name:	WinNT
#	Modification time:	15. 06. 2019 19:25

#	Program:	/corina/corina34_cracker 3.40 0067  02.08.2006

@<TRIPOS>MOLECULE
ASD01810703
  18   18    0    0    0
SMALL
NO_CHARGES


@<TRIPOS>ATOM
   1 C1            -0.0185     1.5097     0.0103 C.3     
   2 C2             0.0021    -0.0041     0.0020 C.2     
   3 C3             0.8877    -0.6927    -1.0161 C.3     
   4 C4             2.2742    -0.0379    -0.9569 C.3     
   5 C5             2.1156     1.4790    -1.0862 C.3     
   6 O6             1.3341     1.9790    -0.0001 O.3     
   7 O7            -0.6650    -0.6414     0.7812 O.2     
   8 C8             1.0034    -2.1806    -0.6789 C.3     
   9 H9            -0.5406     1.8747    -0.8741 H       
  10 H10           -0.5236     1.8651     0.9084 H       
  11 H11            0.4654    -0.5719    -2.0136 H       
  12 H12            2.7491    -0.2751    -0.0049 H       
  13 H13            2.8891    -0.4114    -1.7758 H       
  14 H14            3.0992     1.9486    -1.0710 H       
  15 H15            1.6185     1.7124    -2.0277 H       
  16 H16            0.0129    -2.6351    -0.6964 H       
  17 H17            1.6413    -2.6712    -1.4141 H       
  18 H18            1.4384    -2.2954     0.3139 H       
@<TRIPOS>BOND
   1    1    2 1
   2    1    6 1
   3    1    9 1
   4    1   10 1
   5    2    3 1
   6    2    7 2
   7    3    4 1
   8    3    8 1
   9    3   11 1
  10    4    5 1
  11    4   12 1
  12    4   13 1
  13    5    6 1
  14    5   14 1
  15    5   15 1
  16    8   16 1
  17    8   17 1
  18    8   18 1

#	End of record

