#	Name: ASD02770010
#	Creating user name:	WinNT
#	Creation time:	15. 06. 2019 20:26

#	Modifying user name:	WinNT
#	Modification time:	15. 06. 2019 20:26

#	Program:	/corina/corina34_cracker 3.40 0067  02.08.2006

@<TRIPOS>MOLECULE
ASD02770010
  46   48    0    0    0
SMALL
NO_CHARGES


@<TRIPOS>ATOM
   1 C1            -1.3805     0.9570     0.1836 C.2     
   2 C2            -1.0737    -0.5185     0.1850 C.3     
   3 O3            -0.4825     1.7629     0.0609 O.2     
   4 N4            -2.6533     1.3807     0.3132 N.am    
   5 O5             0.3334    -0.7126     0.0287 O.3     
   6 C6             0.7816    -1.9976     0.0092 C.ar    
   7 C7             0.8733    -2.6817    -1.1933 C.ar    
   8 C8             1.3279    -3.9875    -1.2143 C.ar    
   9 C9             1.6939    -4.6158    -0.0310 C.ar    
  10 C10            1.6034    -3.9328     1.1745 C.ar    
  11 C11            1.1529    -2.6228     1.1950 C.ar    
  12 C12            1.4260    -4.7296    -2.5223 C.3     
  13 C13            2.8114    -4.5072    -3.1322 C.3     
  14 N14            2.1533    -5.9372    -0.0536 N.pl3   
  15 C15            1.6324    -8.0938     5.4007 C.2     
  16 N16            0.9597    -7.2819     4.5638 N.am    
  17 C17            1.6722    -7.1923     3.3703 C.ar    
  18 C18            2.8108    -7.9876     3.5190 C.ar    
  19 N19            2.7535    -8.5361     4.8006 N.am    
  20 C20            1.4547    -6.5113     2.1832 C.ar    
  21 C21            2.3702    -6.6230     1.1465 C.ar    
  22 C22            3.5025    -7.4156     1.2978 C.ar    
  23 C23            3.7217    -8.0952     2.4796 C.ar    
  24 O24            1.2828    -8.3804     6.5306 O.2     
  25 O25            1.0685    -1.9506     2.3742 O.3     
  26 C26            1.4665    -2.6547     3.5523 C.3     
  27 Cl27           0.4165    -1.8984    -2.6737 Cl      
  28 H28           -1.3982    -0.9562     1.1291 H       
  29 H29           -1.6006    -0.9999    -0.6388 H       
  30 H30           -3.3719     0.7360     0.4074 H       
  31 H31           -2.8508     2.3304     0.3123 H       
  32 H32            1.8875    -4.4211     2.0950 H       
  33 H33            1.2723    -5.7945    -2.3482 H       
  34 H34            0.6635    -4.3598    -3.2079 H       
  35 H35            2.8823    -5.0439    -4.0783 H       
  36 H36            2.9650    -3.4422    -3.3063 H       
  37 H37            3.5738    -4.8770    -2.4467 H       
  38 H38            2.3215    -6.3778    -0.9012 H       
  39 H39            0.1211    -6.8351     4.7588 H       
  40 H40            3.4095    -9.1338     5.1924 H       
  41 H41            0.5751    -5.8959     2.0651 H       
  42 H42            4.2127    -7.4999     0.4886 H       
  43 H43            4.6024    -8.7097     2.5942 H       
  44 H44            1.3502    -2.0056     4.4202 H       
  45 H45            0.8426    -3.5401     3.6746 H       
  46 H46            2.5102    -2.9554     3.4607 H       
@<TRIPOS>BOND
   1    1    2 1
   2    1    3 2
   3    1    4 am
   4    2    5 1
   5    2   28 1
   6    2   29 1
   7    4   30 1
   8    4   31 1
   9    5    6 1
  10    6    7 ar
  11    6   11 ar
  12    7    8 ar
  13    7   27 1
  14    8    9 ar
  15    8   12 1
  16    9   10 ar
  17    9   14 1
  18   10   11 ar
  19   10   32 1
  20   11   25 1
  21   12   13 1
  22   12   33 1
  23   12   34 1
  24   13   35 1
  25   13   36 1
  26   13   37 1
  27   14   21 1
  28   14   38 1
  29   15   16 am
  30   15   19 am
  31   15   24 2
  32   16   17 1
  33   16   39 1
  34   17   18 ar
  35   17   20 ar
  36   18   19 1
  37   18   23 ar
  38   19   40 1
  39   20   21 ar
  40   20   41 1
  41   21   22 ar
  42   22   23 ar
  43   22   42 1
  44   23   43 1
  45   25   26 1
  46   26   44 1
  47   26   45 1
  48   26   46 1

#	End of record

