#	Name: ASD03430512
#	Creating user name:	WinNT
#	Creation time:	15. 06. 2019 20:41

#	Modifying user name:	WinNT
#	Modification time:	15. 06. 2019 20:41

#	Program:	/corina/corina34_cracker 3.40 0067  02.08.2006

@<TRIPOS>MOLECULE
ASD03430512
  39   42    0    0    0
SMALL
NO_CHARGES


@<TRIPOS>ATOM
   1 N1            -0.0045     1.3511     0.0035 N.am    
   2 C2             0.0011     0.0075    -0.0082 C.2     
   3 C3             1.4498    -0.4319    -0.0140 C.3     
   4 C4             2.2268     0.8644    -0.0038 C.ar    
   5 C5             3.5750     1.1488    -0.0036 C.ar    
   6 C6             4.0024     2.4664     0.0069 C.ar    
   7 C7             3.0733     3.4905     0.0170 C.ar    
   8 C8             1.7231     3.2077     0.0172 C.ar    
   9 C9             1.2847     1.8847     0.0063 C.ar    
  10 O10           -0.9716    -0.7171    -0.0128 O.2     
  11 C11            1.7652    -1.2558     1.2361 C.3     
  12 O12            0.9530    -2.4314     1.2492 O.3     
  13 C13           -1.2242     2.1626     0.0065 C.3     
  14 O14           -1.8179     2.1254     1.3057 O.3     
  15 O15            2.6856    -3.5775    -4.5097 O.3     
  16 C16            2.8050    -4.8362    -3.8208 C.3     
  17 O17            3.1318    -4.4575    -2.4706 O.3     
  18 C18            2.5948    -3.2130    -2.3010 C.ar    
  19 C19            2.3206    -2.6724    -3.5552 C.ar    
  20 C20            2.3109    -2.4846    -1.1579 C.ar    
  21 C21            1.7571    -1.2219    -1.2600 C.ar    
  22 C22            1.4835    -0.6817    -2.5073 C.ar    
  23 C23            1.7657    -1.4075    -3.6551 C.ar    
  24 O24            0.9379     0.5599    -2.6054 O.3     
  25 Cl25           4.7360    -0.1418    -0.0157 Cl      
  26 H26            5.0584     2.6932     0.0074 H       
  27 H27            3.4066     4.5177     0.0251 H       
  28 H28            1.0040     4.0134     0.0259 H       
  29 H29            2.8172    -1.5410     1.2275 H       
  30 H30            1.5574    -0.6607     2.1254 H       
  31 H31            1.1000    -3.0026     2.0155 H       
  32 H32           -0.9760     3.1925    -0.2502 H       
  33 H33           -1.9270     1.7650    -0.7257 H       
  34 H34           -2.6317     2.6423     1.3813 H       
  35 H35            1.8601    -5.3790    -3.8483 H       
  36 H36            3.6051    -5.4359    -4.2547 H       
  37 H37            2.5234    -2.9032    -0.1852 H       
  38 H38            1.5527    -0.9863    -4.6265 H       
  39 H39            1.5861     1.2772    -2.5832 H       
@<TRIPOS>BOND
   1    1    2 am
   2    1    9 1
   3    1   13 1
   4    2    3 1
   5    2   10 2
   6    3    4 1
   7    3   11 1
   8    3   21 1
   9    4    5 ar
  10    4    9 ar
  11    5    6 ar
  12    5   25 1
  13    6    7 ar
  14    6   26 1
  15    7    8 ar
  16    7   27 1
  17    8    9 ar
  18    8   28 1
  19   11   12 1
  20   11   29 1
  21   11   30 1
  22   12   31 1
  23   13   14 1
  24   13   32 1
  25   13   33 1
  26   14   34 1
  27   15   16 1
  28   15   19 1
  29   16   17 1
  30   16   35 1
  31   16   36 1
  32   17   18 1
  33   18   19 ar
  34   18   20 ar
  35   19   23 ar
  36   20   21 ar
  37   20   37 1
  38   21   22 ar
  39   22   23 ar
  40   22   24 1
  41   23   38 1
  42   24   39 1

#	End of record

