#	Name: ASD01000043
#	Creating user name:	WinNT
#	Creation time:	15. 06. 2019 18:54

#	Modifying user name:	WinNT
#	Modification time:	15. 06. 2019 18:54

#	Program:	/corina/corina34_cracker 3.40 0067  02.08.2006

@<TRIPOS>MOLECULE
ASD01000043
  36   38    0    0    0
SMALL
NO_CHARGES


@<TRIPOS>ATOM
   1 C1            -0.5336     1.9714    -1.1316 C.ar    
   2 C2            -0.3462     0.6540    -0.7399 C.ar    
   3 C3            -1.4385    -0.1682    -0.5401 C.ar    
   4 C4            -2.7174     0.3212    -0.7304 C.ar    
   5 C5            -2.9068     1.6340    -1.1213 C.ar    
   6 C6            -1.8184     2.4617    -1.3163 C.ar    
   7 C7            -1.2356    -1.5996    -0.1150 C.3     
   8 N8            -2.1729    -1.8839     0.9847 N.am    
   9 C9            -1.3406    -2.4729    -1.3490 C.2     
  10 C10           -2.2810    -3.4450    -1.3536 C.2     
  11 N11           -3.1054    -3.6316    -0.2829 N.am    
  12 C12           -3.0564    -2.8899     0.8307 C.2     
  13 C13           -0.4846    -2.2777    -2.4584 C.2     
  14 S14           -4.1506    -3.2323     2.1021 S.2     
  15 O15           -0.9438    -1.9083    -3.5243 O.2     
  16 O16            0.5392     2.7820    -1.3288 O.3     
  17 C17            0.9677    -2.5222    -2.3238 C.ar    
  18 C18            1.8292    -2.2234    -3.3813 C.ar    
  19 C19            1.4824    -3.0470    -1.1370 C.ar    
  20 C20            2.8391    -3.2728    -1.0168 C.ar    
  21 C21            3.6897    -2.9784    -2.0739 C.ar    
  22 C22            3.1824    -2.4523    -3.2517 C.ar    
  23 F23            3.3397    -3.7802     0.1309 F       
  24 F24            5.0167    -3.2008    -1.9524 F       
  25 H25            0.6527     0.2711    -0.5915 H       
  26 H26           -3.5699    -0.3230    -0.5737 H       
  27 H27           -3.9069     2.0138    -1.2700 H       
  28 H28           -1.9669     3.4871    -1.6212 H       
  29 H29           -0.2220    -1.6908     0.2753 H       
  30 H30           -2.1547    -1.3597     1.8006 H       
  31 H31           -2.3806    -4.0839    -2.2186 H       
  32 H32           -3.7647    -4.3415    -0.3312 H       
  33 H33            0.8810     2.7691    -2.2333 H       
  34 H34            1.4358    -1.8137    -4.2999 H       
  35 H35            0.8208    -3.2756    -0.3146 H       
  36 H36            3.8482    -2.2251    -4.0711 H       
@<TRIPOS>BOND
   1    1    2 ar
   2    1   16 1
   3    1    6 ar
   4    2    3 ar
   5    2   25 1
   6    3    4 ar
   7    3    7 1
   8    4    5 ar
   9    4   26 1
  10    5    6 ar
  11    5   27 1
  12    6   28 1
  13    7    8 1
  14    7    9 1
  15    7   29 1
  16    8   12 am
  17    8   30 1
  18    9   10 2
  19    9   13 1
  20   10   11 1
  21   10   31 1
  22   11   12 am
  23   11   32 1
  24   12   14 2
  25   13   15 2
  26   13   17 1
  27   16   33 1
  28   17   18 ar
  29   17   19 ar
  30   18   22 ar
  31   18   34 1
  32   19   20 ar
  33   19   35 1
  34   20   21 ar
  35   20   23 1
  36   21   22 ar
  37   21   24 1
  38   22   36 1

#	End of record

