#	Name: ASD05792003
#	Creating user name:	WinNT
#	Creation time:	15. 06. 2019 21:03

#	Modifying user name:	WinNT
#	Modification time:	15. 06. 2019 21:03

#	Program:	/corina/corina34_cracker 3.40 0067  02.08.2006

@<TRIPOS>MOLECULE
ASD05792003
  75   78    0    0    0
SMALL
NO_CHARGES


@<TRIPOS>ATOM
   1 C1            -0.1904   -12.1739   -10.9189 C.3     
   2 C2            -1.3595   -11.3852   -11.5113 C.3     
   3 C3            -1.4619   -10.0246   -10.8159 C.3     
   4 C4            -1.5715   -10.2580    -9.3185 C.2     
   5 C5            -0.5518   -11.1468    -8.6706 C.3     
   6 C6            -0.4626   -12.4666    -9.4420 C.3     
   7 C7            -2.5386    -9.6742    -8.6736 C.2     
   8 C8            -2.7517    -9.8359    -7.1967 C.3     
   9 C9            -1.4138   -10.1683    -6.5267 C.3     
  10 C10           -0.8375   -11.4198    -7.2033 C.3     
  11 C11           -1.6483   -10.5035    -5.0648 C.3     
  12 C12           -0.2623   -10.7992    -4.4317 C.3     
  13 C13            0.2172   -12.1189    -5.0058 C.3     
  14 C14            0.4337   -11.9046    -6.5120 C.3     
  15 C15           -2.1504    -9.3504    -4.1888 C.3     
  16 C16           -1.7350    -9.7937    -2.7594 C.3     
  17 C17           -0.5491   -10.7748    -2.9337 C.3     
  18 C18            0.7229    -9.6865    -4.7954 C.3     
  19 H19           -0.7226    -9.3317    -6.6297 H       
  20 C20            0.8091   -10.4529    -8.7564 C.3     
  21 O21           -1.1422   -11.1901   -12.9102 O.3     
  22 C22            0.6748   -10.2684    -2.1679 C.3     
  23 C23            1.8867   -11.1369    -2.5113 C.3     
  24 C24            3.0795   -10.7103    -1.6533 C.3     
  25 C25            4.2913   -11.5788    -1.9968 C.3     
  26 C26            5.4841   -11.1522    -1.1388 C.3     
  27 C27            6.6588   -12.0995    -1.3914 C.3     
  28 C28            5.8922    -9.7243    -1.5067 C.3     
  29 H29           -1.5783   -12.2168    -7.1402 H       
  30 H30           -2.3117   -11.3637    -4.9756 H       
  31 H31           -0.8278   -11.7697    -2.5863 H       
  32 C32            0.4028   -10.3441    -0.6642 C.3     
  33 O33            0.9401    -8.9134    -2.5363 O.3     
  34 H34           -0.0755   -13.1133   -11.4597 H       
  35 H35            0.7249   -11.5892   -11.0101 H       
  36 H36           -2.2854   -11.9405   -11.3614 H       
  37 H37           -0.5711    -9.4344   -11.0312 H       
  38 H38           -2.3471    -9.4967   -11.1708 H       
  39 H39           -1.4036   -13.0082    -9.3461 H       
  40 H40            0.3483   -13.0711    -9.0357 H       
  41 H41           -3.2195    -9.0438    -9.2262 H       
  42 H42           -3.1459    -8.9081    -6.7821 H       
  43 H43           -3.4595   -10.6452    -7.0175 H       
  44 H44            1.1553   -12.4106    -4.5334 H       
  45 H45           -0.5363   -12.8898    -4.8448 H       
  46 H46            0.7466   -12.8461    -6.9634 H       
  47 H47            1.2208   -11.1643    -6.6559 H       
  48 H48           -1.6586    -8.4166    -4.4613 H       
  49 H49           -3.2335    -9.2530    -4.2630 H       
  50 H50           -1.4219    -8.9282    -2.1755 H       
  51 H51           -2.5673   -10.2965    -2.2670 H       
  52 H52            0.4330    -8.7652    -4.2903 H       
  53 H53            1.7265    -9.9729    -4.4811 H       
  54 H54            0.7110    -9.5289    -5.8739 H       
  55 H55            0.8033    -9.5627    -8.1275 H       
  56 H56            1.5870   -11.1351    -8.4135 H       
  57 H57            1.0064   -10.1666    -9.7895 H       
  58 H58           -1.8461   -10.6959   -13.3523 H       
  59 H59            1.6520   -12.1827    -2.3130 H       
  60 H60            2.1349   -11.0138    -3.5655 H       
  61 H61            3.3141    -9.6645    -1.8516 H       
  62 H62            2.8313   -10.8334    -0.5991 H       
  63 H63            4.0567   -12.6246    -1.7985 H       
  64 H64            4.5395   -11.4557    -3.0510 H       
  65 H65            5.2063   -11.1907    -0.0855 H       
  66 H66            6.9366   -12.0610    -2.4447 H       
  67 H67            7.5085   -11.7956    -0.7801 H       
  68 H68            6.3680   -13.1168    -1.1293 H       
  69 H69            6.1700    -9.6858    -2.5600 H       
  70 H70            5.0554    -9.0494    -1.3267 H       
  71 H71            6.7420    -9.4204    -0.8954 H       
  72 H72            0.3060   -11.3876    -0.3646 H       
  73 H73            1.2297    -9.8856    -0.1218 H       
  74 H74           -0.5210    -9.8130    -0.4348 H       
  75 H75            1.5721    -8.8197    -3.2622 H       
@<TRIPOS>BOND
   1    1    2 1
   2    1    6 1
   3    1   34 1
   4    1   35 1
   5    2    3 1
   6    2   21 1
   7    2   36 1
   8    3    4 1
   9    3   37 1
  10    3   38 1
  11    4    5 1
  12    4    7 2
  13    5    6 1
  14    5   10 1
  15    5   20 1
  16    6   39 1
  17    6   40 1
  18    7    8 1
  19    7   41 1
  20    8    9 1
  21    8   42 1
  22    8   43 1
  23    9   10 1
  24    9   19 1
  25    9   11 1
  26   10   29 1
  27   10   14 1
  28   11   15 1
  29   11   30 1
  30   11   12 1
  31   12   13 1
  32   12   18 1
  33   12   17 1
  34   13   14 1
  35   13   44 1
  36   13   45 1
  37   14   46 1
  38   14   47 1
  39   15   16 1
  40   15   48 1
  41   15   49 1
  42   16   17 1
  43   16   50 1
  44   16   51 1
  45   17   22 1
  46   17   31 1
  47   18   52 1
  48   18   53 1
  49   18   54 1
  50   20   55 1
  51   20   56 1
  52   20   57 1
  53   21   58 1
  54   22   23 1
  55   22   32 1
  56   22   33 1
  57   23   24 1
  58   23   59 1
  59   23   60 1
  60   24   25 1
  61   24   61 1
  62   24   62 1
  63   25   26 1
  64   25   63 1
  65   25   64 1
  66   26   27 1
  67   26   28 1
  68   26   65 1
  69   27   66 1
  70   27   67 1
  71   27   68 1
  72   28   69 1
  73   28   70 1
  74   28   71 1
  75   32   72 1
  76   32   73 1
  77   32   74 1
  78   33   75 1

#	End of record

