#	Name: ASD09750001
#	Creating user name:	WinNT
#	Creation time:	15. 06. 2019 21:23

#	Modifying user name:	WinNT
#	Modification time:	15. 06. 2019 21:23

#	Program:	/corina/corina34_cracker 3.40 0067  02.08.2006

@<TRIPOS>MOLECULE
ASD09750001
  52   55    0    0    0
SMALL
NO_CHARGES


@<TRIPOS>ATOM
   1 C1            -0.0394     1.3986     0.2103 C.ar    
   2 C2            -0.0157     0.0230    -0.0443 C.ar    
   3 C3             1.1964    -0.6042    -0.3506 C.ar    
   4 C4             2.3617     0.1401    -0.3995 C.ar    
   5 C5             2.3267     1.5052    -0.1446 C.ar    
   6 C6             1.1297     2.1283     0.1582 C.ar    
   7 C7            -1.2590    -0.7598     0.0105 C.2     
   8 C8            -2.3281    -0.2868     0.6971 C.2     
   9 S9            -2.4065     1.1419     1.7472 S.3     
  10 C10           -4.1190     0.9276     2.1502 C.2     
  11 N11           -4.5376    -0.1655     1.5023 N.am    
  12 C12           -3.6907    -0.8352     0.7385 C.2     
  13 O13           -4.7862     1.6385     2.8773 O.2     
  14 O14           -4.0126    -1.8354     0.1249 O.2     
  15 C15           -5.9264    -0.6134     1.6324 C.3     
  16 C16           -6.7653     0.0331     0.5603 C.ar    
  17 C17           -6.9218    -0.5900    -0.6638 C.ar    
  18 C18           -7.6913     0.0017    -1.6475 C.ar    
  19 C19           -8.3054     1.2190    -1.4067 C.ar    
  20 C20           -8.1479     1.8421    -0.1803 C.ar    
  21 C21           -7.3823     1.2460     0.8037 C.ar    
  22 F22           -9.0575     1.7986    -2.3678 F       
  23 O23            3.5417    -0.4650    -0.6967 O.3     
  24 C24            4.7054     0.3637    -0.7300 C.3     
  25 C25            5.9096    -0.4748    -1.0736 C.ar    
  26 C26            6.2767    -0.6465    -2.3964 C.ar    
  27 C27            7.3813    -1.4152    -2.7191 C.ar    
  28 C28            8.1227    -2.0148    -1.7222 C.ar    
  29 C29            7.7573    -1.8452    -0.3875 C.ar    
  30 C30            6.6473    -1.0654    -0.0679 C.ar    
  31 B31            8.5970    -2.5249     0.7517 Du      
  32 O32            9.7309    -3.3141     0.4235 O.3     
  33 O33            8.2226    -2.3504     2.1103 O.3     
  34 H34           -0.9730     1.8892     0.4431 H       
  35 H35            1.2226    -1.6657    -0.5479 H       
  36 H36            3.2386     2.0827    -0.1830 H       
  37 H37            1.1104     3.1901     0.3548 H       
  38 H38           -1.3208    -1.7115    -0.4963 H       
  39 H39           -5.9703    -1.6971     1.5240 H       
  40 H40           -6.3090    -0.3306     2.6131 H       
  41 H41           -6.4424    -1.5394    -0.8515 H       
  42 H42           -7.8131    -0.4851    -2.6039 H       
  43 H43           -8.6265     2.7917     0.0086 H       
  44 H44           -7.2593     1.7318     1.7604 H       
  45 H45            4.5768     1.1407    -1.4835 H       
  46 H46            4.8508     0.8252     0.2467 H       
  47 H47            5.6988    -0.1792    -3.1801 H       
  48 H48            7.6632    -1.5463    -3.7534 H       
  49 H49            8.9843    -2.6148    -1.9751 H       
  50 H50            6.3601    -0.9304     0.9644 H       
  51 H51           10.1833    -3.6909     1.1906 H       
  52 H52            8.7989    -2.8064     2.7388 H       
@<TRIPOS>BOND
   1    1    2 ar
   2    1    6 ar
   3    1   34 1
   4    2    3 ar
   5    2    7 1
   6    3    4 ar
   7    3   35 1
   8    4    5 ar
   9    4   23 1
  10    5    6 ar
  11    5   36 1
  12    6   37 1
  13    7    8 2
  14    7   38 1
  15    8    9 1
  16    8   12 1
  17    9   10 1
  18   10   11 am
  19   10   13 2
  20   11   12 am
  21   11   15 1
  22   12   14 2
  23   15   16 1
  24   15   39 1
  25   15   40 1
  26   16   17 ar
  27   16   21 ar
  28   17   18 ar
  29   17   41 1
  30   18   19 ar
  31   18   42 1
  32   19   20 ar
  33   19   22 1
  34   20   21 ar
  35   20   43 1
  36   21   44 1
  37   23   24 1
  38   24   25 1
  39   24   45 1
  40   24   46 1
  41   25   26 ar
  42   25   30 ar
  43   26   27 ar
  44   26   47 1
  45   27   28 ar
  46   27   48 1
  47   28   29 ar
  48   28   49 1
  49   29   30 ar
  50   29   31 1
  51   30   50 1
  52   31   32 1
  53   31   33 1
  54   32   51 1
  55   33   52 1

#	End of record

