#	Name: ASD07930948
#	Creating user name:	WinNT
#	Creation time:	15. 06. 2019 21:13

#	Modifying user name:	WinNT
#	Modification time:	15. 06. 2019 21:13

#	Program:	/corina/corina34_cracker 3.40 0067  02.08.2006

@<TRIPOS>MOLECULE
ASD07930948
  48   53    0    0    0
SMALL
NO_CHARGES


@<TRIPOS>ATOM
   1 C1            -0.4761     1.3690     0.0112 C.ar    
   2 N2            -0.3283    -0.0238     0.0031 N.am    
   3 N3            -0.1433    -0.8135     1.1407 N.2     
   4 C4            -0.0370    -2.0721     0.8245 C.2     
   5 C5            -0.1572    -2.1684    -0.6482 C.2     
   6 C6            -0.3500    -0.7956    -1.1050 C.2     
   7 O7            -0.4940    -0.4199    -2.2570 O.2     
   8 C8             0.1636    -3.3305     1.5682 C.ar    
   9 C9             0.2274    -4.5305     0.8404 C.ar    
  10 N10            0.1049    -4.5233    -0.5384 N.pl3   
  11 C11           -0.0798    -3.3997    -1.2501 C.2     
  12 C12            0.2883    -3.3441     2.9534 C.ar    
  13 C13            0.4753    -4.5425     3.6114 C.ar    
  14 C14            0.5387    -5.7277     2.8965 C.ar    
  15 C15            0.4159    -5.7273     1.5225 C.ar    
  16 C16            0.1790    -5.7997    -1.2536 C.3     
  17 C17           -1.0401    -5.9808    -2.1323 C.ar    
  18 C18            0.6263     2.1869    -0.1946 C.ar    
  19 C19            0.4773     3.5605    -0.1865 C.ar    
  20 C20           -0.7680     4.1219     0.0261 C.ar    
  21 C21           -1.8698     3.3114     0.2316 C.ar    
  22 C22           -1.7293     1.9360     0.2197 C.ar    
  23 F23           -2.8053     1.1441     0.4204 F       
  24 C24            1.3798    -5.8013    -2.2233 C.3     
  25 C25            0.7435    -5.3058    -3.5393 C.3     
  26 C26           -0.7157    -5.6971    -3.4456 C.ar    
  27 C27           -1.6833    -5.7966    -4.4316 C.ar    
  28 C28           -2.9703    -6.1776    -4.1065 C.ar    
  29 C29           -3.2947    -6.4614    -2.7929 C.ar    
  30 C30           -2.3311    -6.3637    -1.8085 C.ar    
  31 H31           -0.1677    -3.4663    -2.3244 H       
  32 H32            0.2394    -2.4208     3.5116 H       
  33 H33            0.5729    -4.5567     4.6869 H       
  34 H34            0.6856    -6.6608     3.4201 H       
  35 H35            0.4670    -6.6575     0.9760 H       
  36 H36            0.2612    -6.6247    -0.5460 H       
  37 H37            1.5999     1.7499    -0.3605 H       
  38 H38            1.3353     4.1967    -0.3463 H       
  39 H39           -0.8808     5.1960     0.0321 H       
  40 H40           -2.8412     3.7532     0.3978 H       
  41 H41            2.1532    -5.1125    -1.8834 H       
  42 H42            1.7808    -6.8079    -2.3417 H       
  43 H43            0.8402    -4.2233    -3.6220 H       
  44 H44            1.2121    -5.7946    -4.3934 H       
  45 H45           -1.4305    -5.5751    -5.4580 H       
  46 H46           -3.7226    -6.2535    -4.8776 H       
  47 H47           -4.3007    -6.7596    -2.5369 H       
  48 H48           -2.5853    -6.5859    -0.7826 H       
@<TRIPOS>BOND
   1    1    2 1
   2    1   18 ar
   3    1   22 ar
   4    2    3 1
   5    2    6 am
   6    3    4 2
   7    4    5 1
   8    4    8 1
   9    5    6 1
  10    5   11 2
  11    6    7 2
  12    8    9 ar
  13    8   12 ar
  14    9   10 1
  15    9   15 ar
  16   10   11 1
  17   10   16 1
  18   11   31 1
  19   12   13 ar
  20   12   32 1
  21   13   14 ar
  22   13   33 1
  23   14   15 ar
  24   14   34 1
  25   15   35 1
  26   16   17 1
  27   16   24 1
  28   16   36 1
  29   17   26 ar
  30   17   30 ar
  31   18   19 ar
  32   18   37 1
  33   19   20 ar
  34   19   38 1
  35   20   21 ar
  36   20   39 1
  37   21   22 ar
  38   21   40 1
  39   22   23 1
  40   24   25 1
  41   24   41 1
  42   24   42 1
  43   25   26 1
  44   25   43 1
  45   25   44 1
  46   26   27 ar
  47   27   28 ar
  48   27   45 1
  49   28   29 ar
  50   28   46 1
  51   29   30 ar
  52   29   47 1
  53   30   48 1

#	End of record

