#	Name: ASD01152421
#	Creating user name:	WinNT
#	Creation time:	15. 06. 2019 19:05

#	Modifying user name:	WinNT
#	Modification time:	15. 06. 2019 19:05

#	Program:	/corina/corina34_cracker 3.40 0067  02.08.2006

@<TRIPOS>MOLECULE
ASD01152421
  53   55    0    0    0
SMALL
NO_CHARGES


@<TRIPOS>ATOM
   1 C1            -0.4386     1.3776     0.1184 C.2     
   2 N2            -0.3479     0.0885    -0.0770 N.2     
   3 N3            -1.3483    -0.7616     0.4091 N.am    
   4 C4            -2.4071    -0.2717     1.0777 C.2     
   5 N5            -2.5385     1.0493     1.3002 N.am    
   6 C6            -1.5964     1.9065     0.8552 C.2     
   7 O7            -1.7079     3.1022     1.0525 O.2     
   8 O8            -3.2606    -1.0349     1.4877 O.2     
   9 C9            -1.2451    -2.1406     0.1960 C.ar    
  10 C10           -3.7023     1.5561     2.0316 C.3     
  11 C11           -3.3916     1.5943     3.5057 C.ar    
  12 C12           -2.3299    -2.8499    -0.2998 C.ar    
  13 C13           -0.0543    -2.8005     0.4750 C.ar    
  14 C14            0.0484    -4.1617     0.2643 C.ar    
  15 C15           -1.0317    -4.8717    -0.2247 C.ar    
  16 C16           -2.2232    -4.2173    -0.5102 C.ar    
  17 C17           -2.8354     2.7306     4.0641 C.ar    
  18 C18           -3.6688     0.4953     4.2976 C.ar    
  19 C19           -3.3865     0.5263     5.6497 C.ar    
  20 C20           -2.8231     1.6627     6.2141 C.ar    
  21 C21           -2.5497     2.7688     5.4165 C.ar    
  22 N22           -2.5363     1.6971     7.5824 N.3     
  23 F23           -2.0011     3.8767     5.9612 F       
  24 C24           -3.7539     1.5017     8.3807 C.3     
  25 C25           -1.5130     0.7025     7.9309 C.3     
  26 N26           -3.3163    -4.9371    -1.0054 N.am    
  27 C27           -3.5425    -6.1960    -0.5806 C.2     
  28 O28           -2.7524    -6.7356     0.1648 O.2     
  29 C29           -4.7771    -6.9330    -1.0317 C.3     
  30 O30            0.5244     2.2153    -0.3469 O.3     
  31 C31            1.6188     1.6204    -1.0472 C.3     
  32 H32           -3.9401     2.5615     1.6842 H       
  33 H33           -4.5551     0.9001     1.8568 H       
  34 H34           -3.2552    -2.3389    -0.5210 H       
  35 H35            0.7918    -2.2484     0.8566 H       
  36 H36            0.9749    -4.6723     0.4819 H       
  37 H37           -0.9479    -5.9358    -0.3890 H       
  38 H38           -2.6236     3.5887     3.4434 H       
  39 H39           -4.1071    -0.3888     3.8586 H       
  40 H40           -3.6042    -0.3326     6.2671 H       
  41 H41           -4.1945     0.5342     8.1402 H       
  42 H42           -3.5022     1.5329     9.4407 H       
  43 H43           -4.4683     2.2929     8.1533 H       
  44 H44           -0.5983     0.9127     7.3766 H       
  45 H45           -1.3088     0.7506     9.0005 H       
  46 H46           -1.8725    -0.2940     7.6741 H       
  47 H47           -3.9112    -4.5299    -1.6545 H       
  48 H48           -5.3617    -6.2925    -1.6921 H       
  49 H49           -4.4855    -7.8368    -1.5667 H       
  50 H50           -5.3771    -7.2028    -0.1627 H       
  51 H51            2.3136     2.3983    -1.3636 H       
  52 H52            2.1330     0.9195    -0.3895 H       
  53 H53            1.2445     1.0894    -1.9225 H       
@<TRIPOS>BOND
   1    1    2 2
   2    1   30 1
   3    1    6 1
   4    2    3 1
   5    3    4 am
   6    3    9 1
   7    4    5 am
   8    4    8 2
   9    5    6 am
  10    5   10 1
  11    6    7 2
  12    9   12 ar
  13    9   13 ar
  14   10   11 1
  15   10   32 1
  16   10   33 1
  17   11   17 ar
  18   11   18 ar
  19   12   16 ar
  20   12   34 1
  21   13   14 ar
  22   13   35 1
  23   14   15 ar
  24   14   36 1
  25   15   16 ar
  26   15   37 1
  27   16   26 1
  28   17   21 ar
  29   17   38 1
  30   18   19 ar
  31   18   39 1
  32   19   20 ar
  33   19   40 1
  34   20   21 ar
  35   20   22 1
  36   21   23 1
  37   22   24 1
  38   22   25 1
  39   24   41 1
  40   24   42 1
  41   24   43 1
  42   25   44 1
  43   25   45 1
  44   25   46 1
  45   26   27 am
  46   26   47 1
  47   27   28 2
  48   27   29 1
  49   29   48 1
  50   29   49 1
  51   29   50 1
  52   30   31 1
  53   31   51 1
  54   31   52 1
  55   31   53 1

#	End of record

