#	Name: ASD01901025
#	Creating user name:	WinNT
#	Creation time:	15. 06. 2019 19:53

#	Modifying user name:	WinNT
#	Modification time:	15. 06. 2019 19:53

#	Program:	/corina/corina34_cracker 3.40 0067  02.08.2006

@<TRIPOS>MOLECULE
ASD01901025
  26   27    0    0    0
SMALL
NO_CHARGES


@<TRIPOS>ATOM
   1 C1            -0.0159     1.3190     0.0093 C.ar    
   2 N2             0.0021    -0.0041     0.0020 N.ar    
   3 C3             1.1602    -0.6667    -0.0126 C.ar    
   4 C4             2.3578     0.0620    -0.0202 C.ar    
   5 C5             2.2878     1.4420    -0.0121 C.ar    
   6 N6             1.1017     2.0314     0.0024 N.ar    
   7 N7            -1.2340     1.9764     0.0186 N.pl3   
   8 C8             1.1800    -2.1386    -0.0203 C.2     
   9 C9             0.0253    -2.8262    -0.0124 C.2     
  10 C10            0.0450    -4.2989    -0.0200 C.ar    
  11 C11           -1.1557    -5.0189    -0.0119 C.ar    
  12 C12           -1.1274    -6.4003    -0.0197 C.ar    
  13 C13            0.0828    -7.0701    -0.0353 C.ar    
  14 C14            1.2731    -6.3640    -0.0430 C.ar    
  15 C15            1.2622    -4.9849    -0.0413 C.ar    
  16 F16           -2.3379    -4.3652     0.0038 F       
  17 H17            3.3124    -0.4431    -0.0317 H       
  18 H18            3.1911     2.0341    -0.0173 H       
  19 H19           -2.0597     1.4674     0.0197 H       
  20 H20           -1.2618     2.9460     0.0240 H       
  21 H21            2.1224    -2.6659    -0.0321 H       
  22 H22           -0.9172    -2.2988    -0.0006 H       
  23 H23           -2.0521    -6.9582    -0.0131 H       
  24 H24            0.0989    -8.1500    -0.0413 H       
  25 H25            2.2136    -6.8948    -0.0545 H       
  26 H26            2.1925    -4.4364    -0.0522 H       
@<TRIPOS>BOND
   1    1    2 ar
   2    1    6 ar
   3    1    7 1
   4    2    3 ar
   5    3    4 ar
   6    3    8 1
   7    4    5 ar
   8    4   17 1
   9    5    6 ar
  10    5   18 1
  11    7   19 1
  12    7   20 1
  13    8    9 2
  14    8   21 1
  15    9   10 1
  16    9   22 1
  17   10   11 ar
  18   10   15 ar
  19   11   12 ar
  20   11   16 1
  21   12   13 ar
  22   12   23 1
  23   13   14 ar
  24   13   24 1
  25   14   15 ar
  26   14   25 1
  27   15   26 1

#	End of record

