#	Name: ASD02560120
#	Creating user name:	WinNT
#	Creation time:	15. 06. 2019 20:24

#	Modifying user name:	WinNT
#	Modification time:	15. 06. 2019 20:24

#	Program:	/corina/corina34_cracker 3.40 0067  02.08.2006

@<TRIPOS>MOLECULE
ASD02560120
  57   61    0    0    0
SMALL
NO_CHARGES


@<TRIPOS>ATOM
   1 N1             0.0591     1.3279     0.0629 N.2     
   2 N2             0.0147     0.0952     0.0043 N.2     
   3 C3             1.4462     1.8104     0.0599 C.3     
   4 N4             2.2634     0.6146     0.3866 N.3     
   5 C5             1.3636    -0.4831    -0.0492 C.3     
   6 S6             1.4919    -1.8930     1.0849 S.3     
   7 C7             0.9881    -1.1836     2.6766 C.3     
   8 C8             1.0428    -2.2488     3.7412 C.2     
   9 O9             1.3877    -3.3755     3.4545 O.2     
  10 N10            0.7084    -1.9492     5.0120 N.am    
  11 Br11           1.9262     2.5032    -1.7163 Br      
  12 C12            3.4513     0.6065    -0.3435 C.ar    
  13 C13            0.6807    -2.9521     5.9807 C.ar    
  14 C14           -0.1403    -2.8168     7.0975 C.ar    
  15 C15           -0.1698    -3.8056     8.0557 C.ar    
  16 C16            0.6257    -4.9458     7.9058 C.ar    
  17 C17            1.4482    -5.0775     6.7834 C.ar    
  18 C18            1.4686    -4.0878     5.8263 C.ar    
  19 Cl19          -1.1268    -1.4003     7.2822 Cl      
  20 C20            0.5974    -6.0065     8.9298 C.2     
  21 O21           -0.1178    -5.8904     9.9052 O.2     
  22 O22            1.3646    -7.1046     8.7838 O.3     
  23 C23            3.4254     0.4308    -1.7432 C.ar    
  24 C24            4.6623     0.7760     0.2955 C.ar    
  25 C25            5.8536     0.7704    -0.4248 C.ar    
  26 C26            5.8573     0.5976    -1.7756 C.ar    
  27 C27            4.6449     0.4264    -2.4647 C.ar    
  28 C28            4.6191     0.2456    -3.8586 C.ar    
  29 C29            3.4271     0.0823    -4.4947 C.ar    
  30 C30            2.2280     0.0914    -3.7846 C.ar    
  31 C31            2.2152     0.2599    -2.4337 C.ar    
  32 C32            7.1609     0.5961    -2.5318 C.3     
  33 Cl33           4.7009     0.9992     2.0167 Cl      
  34 C34            7.9552     1.9055    -2.3927 C.3     
  35 C35            9.2199     1.0361    -2.2960 C.3     
  36 C36            8.3109    -0.0899    -1.7756 C.3     
  37 H37            1.5816     2.5814     0.8183 H       
  38 H38            1.6048    -0.7903    -1.0668 H       
  39 H39            1.6632    -0.3699     2.9417 H       
  40 H40           -0.0294    -0.8005     2.5979 H       
  41 H41            0.4871    -1.0360     5.2529 H       
  42 H42           -0.8062    -3.7004     8.9219 H       
  43 H43            2.0641    -5.9568     6.6648 H       
  44 H44            2.1041    -4.1894     4.9590 H       
  45 H45            1.3122    -7.7727     9.4809 H       
  46 H46            6.7900     0.9056     0.0960 H       
  47 H47            5.5406     0.2367    -4.4219 H       
  48 H48            3.4101    -0.0561    -5.5657 H       
  49 H49            1.2955    -0.0404    -4.3133 H       
  50 H50            1.2785     0.2649    -1.8962 H       
  51 H51            7.0519     0.2589    -3.5626 H       
  52 H52            7.9234     2.5323    -3.2839 H       
  53 H53            7.7329     2.4561    -1.4786 H       
  54 H54            9.6751     0.8184    -3.2622 H       
  55 H55            9.9394     1.3923    -1.5587 H       
  56 H56            8.1858    -0.0848    -0.6929 H       
  57 H57            8.5662    -1.0740    -2.1687 H       
@<TRIPOS>BOND
   1    1    2 2
   2    1    3 1
   3    2    5 1
   4    3    4 1
   5    3   11 1
   6    3   37 1
   7    4    5 1
   8    4   12 1
   9    5    6 1
  10    5   38 1
  11    6    7 1
  12    7    8 1
  13    7   39 1
  14    7   40 1
  15    8    9 2
  16    8   10 am
  17   10   13 1
  18   10   41 1
  19   12   23 ar
  20   12   24 ar
  21   13   14 ar
  22   13   18 ar
  23   14   15 ar
  24   14   19 1
  25   15   16 ar
  26   15   42 1
  27   16   17 ar
  28   16   20 1
  29   17   18 ar
  30   17   43 1
  31   18   44 1
  32   20   21 2
  33   20   22 1
  34   22   45 1
  35   23   27 ar
  36   23   31 ar
  37   24   25 ar
  38   24   33 1
  39   25   26 ar
  40   25   46 1
  41   26   27 ar
  42   26   32 1
  43   27   28 ar
  44   28   29 ar
  45   28   47 1
  46   29   30 ar
  47   29   48 1
  48   30   31 ar
  49   30   49 1
  50   31   50 1
  51   32   34 1
  52   32   36 1
  53   32   51 1
  54   34   35 1
  55   34   52 1
  56   34   53 1
  57   35   36 1
  58   35   54 1
  59   35   55 1
  60   36   56 1
  61   36   57 1

#	End of record

