#	Name: ASD01410511
#	Creating user name:	WinNT
#	Creation time:	15. 06. 2019 19:18

#	Modifying user name:	WinNT
#	Modification time:	15. 06. 2019 19:18

#	Program:	/corina/corina34_cracker 3.40 0067  02.08.2006

@<TRIPOS>MOLECULE
ASD01410511
  75   79    0    0    0
SMALL
NO_CHARGES


@<TRIPOS>ATOM
   1 C1            -0.0205    -0.8505     2.9461 C.ar    
   2 C2             0.7689    -1.2505     4.0152 C.ar    
   3 C3             2.1170    -1.4727     3.8138 C.ar    
   4 N4             2.6586    -1.3093     2.6220 N.ar    
   5 C5             1.9392    -0.9291     1.5788 C.ar    
   6 C6             0.5775    -0.6879     1.7084 C.ar    
   7 O7             2.5372    -0.7733     0.3710 O.3     
   8 C8             3.8839    -0.9463     0.2985 C.ar    
   9 C9             4.4197    -2.2284     0.3218 C.ar    
  10 C10            5.7852    -2.4153     0.2487 C.ar    
  11 C11            6.6341    -1.3215     0.1518 C.ar    
  12 C12            6.0994    -0.0243     0.1278 C.ar    
  13 C13            4.7155     0.1539     0.1961 C.ar    
  14 N14            8.0133    -1.5109     0.0789 N.am    
  15 C15            8.6063    -1.6924    -1.1177 C.2     
  16 C16            8.8181    -1.5125     1.3031 C.3     
  17 O17            9.7939    -1.9313    -1.1759 O.2     
  18 C18            7.7937    -1.5987    -2.3833 C.3     
  19 C19            8.3882    -2.5304    -3.4413 C.3     
  20 C20            7.5631    -2.4353    -4.7263 C.3     
  21 C21            7.5880    -0.9953    -5.2428 C.3     
  22 C22            6.9935    -0.0636    -4.1849 C.3     
  23 C23            7.8185    -0.1588    -2.8999 C.3     
  24 C24            6.7630    -0.9001    -6.5278 C.3     
  25 C25            8.9077    -2.9164     1.8434 C.ar    
  26 C26            9.9375    -3.7465     1.4406 C.ar    
  27 C27           10.0218    -5.0340     1.9340 C.ar    
  28 C28            9.0720    -5.4939     2.8351 C.ar    
  29 C29            8.0399    -4.6586     3.2380 C.ar    
  30 C30            7.9632    -3.3703     2.7455 C.ar    
  31 O31            9.1523    -6.7601     3.3216 O.3     
  32 C32           10.1678    -7.5490     2.8825 C.ar    
  33 C33           11.4531    -7.3639     3.3716 C.ar    
  34 C34           12.4836    -8.1672     2.9235 C.ar    
  35 C35           12.2353    -9.1552     1.9885 C.ar    
  36 C36           10.9556    -9.3414     1.4992 C.ar    
  37 C37            9.9203    -8.5449     1.9485 C.ar    
  38 C38           -0.2380    -0.2549     0.5173 C.3     
  39 F39           -1.5708    -0.0780     0.9041 F       
  40 F40            0.2672     0.9511     0.0197 F       
  41 F41           -0.1675    -1.2359    -0.4776 F       
  42 C42            6.9927     1.1436     0.0255 C.2     
  43 O43            8.1957     0.9845    -0.0382 O.2     
  44 O44            6.4754     2.3876     0.0028 O.3     
  45 H45           -1.0781    -0.6744     3.0759 H       
  46 H46            0.3337    -1.3862     4.9943 H       
  47 H47            2.7357    -1.7837     4.6425 H       
  48 H48            3.7640    -3.0832     0.3978 H       
  49 H49            6.1941    -3.4147     0.2674 H       
  50 H50            4.2965     1.1492     0.1782 H       
  51 H51            9.8195    -1.1444     1.0800 H       
  52 H52            8.3507    -0.8664     2.0461 H       
  53 H53            6.7646    -1.8930    -2.1770 H       
  54 H54            9.4172    -2.2362    -3.6476 H       
  55 H55            8.3704    -3.5563    -3.0733 H       
  56 H56            7.9867    -3.0990    -5.4800 H       
  57 H57            6.5341    -2.7295    -4.5199 H       
  58 H58            8.6171    -0.7011    -5.4492 H       
  59 H59            7.0112     0.9622    -4.5529 H       
  60 H60            5.9644    -0.3579    -3.9785 H       
  61 H61            7.3950     0.5050    -2.1462 H       
  62 H62            8.8476     0.1355    -3.1062 H       
  63 H63            5.7339    -1.1944    -6.3215 H       
  64 H64            6.7807     0.1257    -6.8958 H       
  65 H65            7.1865    -1.5639    -7.2815 H       
  66 H66           10.6765    -3.3881     0.7392 H       
  67 H67           10.8259    -5.6822     1.6185 H       
  68 H68            7.2994    -5.0141     3.9393 H       
  69 H69            7.1603    -2.7197     3.0591 H       
  70 H70           11.6476    -6.5922     4.1016 H       
  71 H71           13.4843    -8.0233     3.3036 H       
  72 H72           13.0424    -9.7822     1.6395 H       
  73 H73           10.7644   -10.1133     0.7684 H       
  74 H74            8.9208    -8.6910     1.5663 H       
  75 H75            7.1008     3.1220    -0.0652 H       
@<TRIPOS>BOND
   1    1    2 ar
   2    1    6 ar
   3    1   45 1
   4    2    3 ar
   5    2   46 1
   6    3    4 ar
   7    3   47 1
   8    4    5 ar
   9    5    6 ar
  10    5    7 1
  11    6   38 1
  12    7    8 1
  13    8    9 ar
  14    8   13 ar
  15    9   10 ar
  16    9   48 1
  17   10   11 ar
  18   10   49 1
  19   11   12 ar
  20   11   14 1
  21   12   13 ar
  22   12   42 1
  23   13   50 1
  24   14   15 am
  25   14   16 1
  26   15   17 2
  27   15   18 1
  28   16   25 1
  29   16   51 1
  30   16   52 1
  31   18   19 1
  32   18   23 1
  33   18   53 1
  34   19   20 1
  35   19   54 1
  36   19   55 1
  37   20   21 1
  38   20   56 1
  39   20   57 1
  40   21   22 1
  41   21   24 1
  42   21   58 1
  43   22   23 1
  44   22   59 1
  45   22   60 1
  46   23   61 1
  47   23   62 1
  48   24   63 1
  49   24   64 1
  50   24   65 1
  51   25   26 ar
  52   25   30 ar
  53   26   27 ar
  54   26   66 1
  55   27   28 ar
  56   27   67 1
  57   28   29 ar
  58   28   31 1
  59   29   30 ar
  60   29   68 1
  61   30   69 1
  62   31   32 1
  63   32   33 ar
  64   32   37 ar
  65   33   34 ar
  66   33   70 1
  67   34   35 ar
  68   34   71 1
  69   35   36 ar
  70   35   72 1
  71   36   37 ar
  72   36   73 1
  73   37   74 1
  74   38   39 1
  75   38   40 1
  76   38   41 1
  77   42   43 2
  78   42   44 1
  79   44   75 1

#	End of record

