#	Name: ASD08150647
#	Creating user name:	WinNT
#	Creation time:	15. 06. 2019 21:16

#	Modifying user name:	WinNT
#	Modification time:	15. 06. 2019 21:16

#	Program:	/corina/corina34_cracker 3.40 0067  02.08.2006

@<TRIPOS>MOLECULE
ASD08150647
  65   71    0    0    0
SMALL
NO_CHARGES


@<TRIPOS>ATOM
   1 N1             0.5576     2.3593    -1.4567 N.am    
   2 C2             0.7930     1.4046    -2.3775 C.2     
   3 C3             2.0055     0.6853    -2.3806 C.2     
   4 C4             2.9575     0.9472    -1.4491 C.2     
   5 C5             2.7132     1.9511    -0.4788 C.ar    
   6 C6             3.6671     2.2623     0.5090 C.ar    
   7 N7             3.4391     3.1888     1.4029 N.ar    
   8 C8             2.2965     3.8912     1.4330 C.ar    
   9 C9             1.2805     3.6454     0.4768 C.ar    
  10 C10            1.4959     2.6488    -0.5039 C.ar    
  11 C11            0.0929     4.3823     0.5173 C.ar    
  12 C12           -0.0775     5.3483     1.4958 C.ar    
  13 C13            0.9327     5.5863     2.4384 C.ar    
  14 C14            2.0931     4.8778     2.4119 C.ar    
  15 O15           -0.0540     1.1589    -3.2193 O.2     
  16 C16           -1.3340     6.1345     1.5460 C.ar    
  17 C17           -0.6520     3.0634    -1.4784 C.ar    
  18 C18           -0.6989     4.3501    -1.9989 C.ar    
  19 C19           -1.8939     5.0422    -2.0188 C.ar    
  20 C20           -3.0428     4.4555    -1.5208 C.ar    
  21 C21           -2.9993     3.1746    -1.0013 C.ar    
  22 C22           -1.8089     2.4747    -0.9846 C.ar    
  23 C23           -2.5214     5.6047     1.0162 C.ar    
  24 N24           -3.6446     6.2759     1.0466 N.ar    
  25 C25           -3.7177     7.4986     1.5832 C.ar    
  26 C26           -2.5615     8.1023     2.1389 C.ar    
  27 C27           -1.3460     7.3967     2.1219 C.ar    
  28 N28           -5.2340     5.1228    -3.0465 N.am    
  29 C29           -4.9333     8.2043     1.6062 C.ar    
  30 C30           -6.1434     3.9973    -3.3101 C.3     
  31 C31           -4.9391     6.0519    -4.1479 C.3     
  32 C32           -6.2645     6.5184    -4.7592 C.3     
  33 N33           -7.0670     5.3463    -5.1334 N.3     
  34 C34           -7.4214     4.5448    -3.9545 C.3     
  35 C35           -4.9833     9.4477     2.1573 C.ar    
  36 C36           -3.8455    10.0394     2.7027 C.ar    
  37 C37           -2.6503     9.3877     2.6997 C.ar    
  38 S38           -4.5653     5.3421    -1.5475 S.o2    
  39 O39           -5.4262     4.6890    -0.6246 O.2     
  40 O40           -4.2291     6.7197    -1.4557 O.2     
  41 H41            2.1774    -0.0767    -3.1263 H       
  42 H42            3.8875     0.3982    -1.4472 H       
  43 H43            4.6041     1.7256     0.5288 H       
  44 H44           -0.6855     4.2002    -0.2089 H       
  45 H45            0.7874     6.3427     3.1955 H       
  46 H46            2.8604     5.0738     3.1462 H       
  47 H47            0.1982     4.8092    -2.3874 H       
  48 H48           -1.9311     6.0428    -2.4235 H       
  49 H49           -3.8982     2.7194    -0.6124 H       
  50 H50           -1.7765     1.4726    -0.5832 H       
  51 H51           -2.5075     4.6200     0.5727 H       
  52 H52           -0.4469     7.8274     2.5371 H       
  53 H53           -5.8248     7.7613     1.1874 H       
  54 H54           -5.6648     3.2911    -3.9886 H       
  55 H55           -6.3904     3.4989    -2.3728 H       
  56 H56           -4.3899     6.9118    -3.7644 H       
  57 H57           -4.3448     5.5431    -4.9069 H       
  58 H58           -6.8113     7.1157    -4.0296 H       
  59 H59           -6.0643     7.1202    -5.6458 H       
  60 H60           -7.8921     5.6213    -5.6450 H       
  61 H61           -8.0602     3.7151    -4.2573 H       
  62 H62           -7.9521     5.1695    -3.2360 H       
  63 H63           -5.9201     9.9848     2.1720 H       
  64 H64           -3.9129    11.0274     3.1335 H       
  65 H65           -1.7753     9.8561     3.1256 H       
@<TRIPOS>BOND
   1    1    2 am
   2    1   10 1
   3    1   17 1
   4    2    3 1
   5    2   15 2
   6    3    4 2
   7    3   41 1
   8    4    5 1
   9    4   42 1
  10    5    6 ar
  11    5   10 ar
  12    6    7 ar
  13    6   43 1
  14    7    8 ar
  15    8    9 ar
  16    8   14 ar
  17    9   10 ar
  18    9   11 ar
  19   11   12 ar
  20   11   44 1
  21   12   13 ar
  22   12   16 1
  23   13   14 ar
  24   13   45 1
  25   14   46 1
  26   16   23 ar
  27   16   27 ar
  28   17   18 ar
  29   17   22 ar
  30   18   19 ar
  31   18   47 1
  32   19   20 ar
  33   19   48 1
  34   20   21 ar
  35   20   38 1
  36   21   22 ar
  37   21   49 1
  38   22   50 1
  39   23   24 ar
  40   23   51 1
  41   24   25 ar
  42   25   26 ar
  43   25   29 ar
  44   26   27 ar
  45   26   37 ar
  46   27   52 1
  47   28   30 1
  48   28   31 1
  49   28   38 am
  50   29   35 ar
  51   29   53 1
  52   30   34 1
  53   30   54 1
  54   30   55 1
  55   31   32 1
  56   31   56 1
  57   31   57 1
  58   32   33 1
  59   32   58 1
  60   32   59 1
  61   33   34 1
  62   33   60 1
  63   34   61 1
  64   34   62 1
  65   35   36 ar
  66   35   63 1
  67   36   37 ar
  68   36   64 1
  69   37   65 1
  70   38   39 2
  71   38   40 2

#	End of record

