#	Name: ASD01815628
#	Creating user name:	WinNT
#	Creation time:	15. 06. 2019 19:33

#	Modifying user name:	WinNT
#	Modification time:	15. 06. 2019 19:33

#	Program:	/corina/corina34_cracker 3.40 0067  02.08.2006

@<TRIPOS>MOLECULE
ASD01815628
  34   36    0    0    0
SMALL
NO_CHARGES


@<TRIPOS>ATOM
   1 C1             1.1547     2.2506    -0.5136 C.ar    
   2 C2             0.7785     0.9153    -0.4985 C.ar    
   3 C3             1.7213    -0.0803    -0.3465 C.ar    
   4 C4             3.0683     0.2526    -0.2066 C.ar    
   5 C5             3.4446     1.6059    -0.2230 C.ar    
   6 C6             2.4796     2.6013    -0.3770 C.ar    
   7 N7             4.0209    -0.7324    -0.0534 N.pl3   
   8 C8             5.3253    -0.4648     0.0854 C.2     
   9 C9             5.8155     0.8258     0.0848 C.2     
  10 C10            4.8724     1.9445    -0.0740 C.2     
  11 O11            5.2549     3.1014    -0.0815 O.2     
  12 C12            7.2550     1.0784     0.2403 C.2     
  13 O13            8.0250     0.1468     0.3708 O.2     
  14 O14            7.7215     2.3432     0.2382 O.3     
  15 C15            3.5871    -2.1316    -0.0416 C.3     
  16 C16            3.4443    -2.6253    -1.4583 C.ar    
  17 C17            4.5251    -2.5727    -2.3212 C.ar    
  18 C18            4.3934    -3.0273    -3.6241 C.ar    
  19 C19            3.1792    -3.5336    -4.0599 C.ar    
  20 C20            2.1005    -3.5845    -3.1935 C.ar    
  21 C21            2.2354    -3.1356    -1.8934 C.ar    
  22 F22            1.3400    -1.3763    -0.3328 F       
  23 F23            5.7076    -2.0782    -1.8942 F       
  24 F24            5.4471    -2.9764    -4.4681 F       
  25 F25            3.0482    -3.9769    -5.3293 F       
  26 H26            0.4055     3.0186    -0.6375 H       
  27 H27           -0.2634     0.6525    -0.6065 H       
  28 H28            2.7700     3.6415    -0.3898 H       
  29 H29            6.0171    -1.2859     0.2020 H       
  30 H30            8.6757     2.4593     0.3436 H       
  31 H31            4.3274    -2.7371     0.4813 H       
  32 H32            2.6273    -2.2101     0.4690 H       
  33 H33            1.1541    -3.9790    -3.5327 H       
  34 H34            1.3930    -3.1763    -1.2187 H       
@<TRIPOS>BOND
   1    1    2 ar
   2    1    6 ar
   3    1   26 1
   4    2    3 ar
   5    2   27 1
   6    3    4 ar
   7    3   22 1
   8    4    5 ar
   9    4    7 1
  10    5    6 ar
  11    5   10 1
  12    6   28 1
  13    7    8 1
  14    7   15 1
  15    8    9 2
  16    8   29 1
  17    9   10 1
  18    9   12 1
  19   10   11 2
  20   12   13 2
  21   12   14 1
  22   14   30 1
  23   15   16 1
  24   15   31 1
  25   15   32 1
  26   16   17 ar
  27   16   21 ar
  28   17   18 ar
  29   17   23 1
  30   18   19 ar
  31   18   24 1
  32   19   20 ar
  33   19   25 1
  34   20   21 ar
  35   20   33 1
  36   21   34 1

#	End of record

