#	Name: ASD01917098
#	Creating user name:	WinNT
#	Creation time:	15. 06. 2019 20:08

#	Modifying user name:	WinNT
#	Modification time:	15. 06. 2019 20:08

#	Program:	/corina/corina34_cracker 3.40 0067  02.08.2006

@<TRIPOS>MOLECULE
ASD01917098
  43   45    0    0    0
SMALL
NO_CHARGES


@<TRIPOS>ATOM
   1 C1            -0.0184     1.5028     0.0103 C.3     
   2 C2             0.0021    -0.0041     0.0020 C.2     
   3 N3             0.5336    -0.7573    -0.9243 N.2     
   4 C4             0.3686    -2.0488    -0.6084 C.2     
   5 N5            -0.2770    -2.1240     0.5348 N.2     
   6 N6            -0.5186    -0.8043     0.9496 N.pl3   
   7 C7            -1.2105    -0.3820     2.1700 C.3     
   8 C8            -0.2108    -0.2311     3.2876 C.2     
   9 O9            -0.6205     0.1503     4.5076 O.3     
  10 O10            0.9595    -0.4534     3.0854 O.2     
  11 C11            0.8360    -3.2031    -1.4154 C.ar    
  12 C12            1.4170     2.0324    -0.0006 C.3     
  13 C13            1.5112    -2.9891    -2.6151 C.ar    
  14 C14            1.9441    -4.0655    -3.3624 C.ar    
  15 C15            1.7081    -5.3572    -2.9212 C.ar    
  16 C16            1.0366    -5.5746    -1.7288 C.ar    
  17 C17            0.6058    -4.5043    -0.9724 C.ar    
  18 C18            0.7824    -6.9821    -1.2541 C.3     
  19 C19            1.3963     3.5622     0.0079 C.3     
  20 C20            0.6563     4.0690    -1.2317 C.3     
  21 C21           -0.7791     3.5394    -1.2208 C.3     
  22 C22           -0.7584     2.0096    -1.2292 C.3     
  23 F23            2.1336    -6.4082    -3.6559 F       
  24 H24           -0.5286     1.8543     0.9071 H       
  25 H25           -1.7064     0.5727     1.9947 H       
  26 H26           -1.9524    -1.1317     2.4449 H       
  27 H27            0.0573     0.2334     5.1922 H       
  28 H28            1.9442     1.6713     0.8825 H       
  29 H29            1.9272     1.6808    -0.8974 H       
  30 H30            1.6952    -1.9824    -2.9600 H       
  31 H31            2.4672    -3.9005    -4.2927 H       
  32 H32            0.0825    -4.6746    -0.0431 H       
  33 H33            1.6158    -7.3126    -0.6342 H       
  34 H34           -0.1375    -7.0081    -0.6700 H       
  35 H35            0.6851    -7.6438    -2.1148 H       
  36 H36            0.8861     3.9137     0.9047 H       
  37 H37            2.4189     3.9395     0.0001 H       
  38 H38            0.6415     5.1589    -1.2257 H       
  39 H39            1.1665     3.7175    -2.1285 H       
  40 H40           -1.2893     3.8910    -0.3240 H       
  41 H41           -1.3063     3.9005    -2.1039 H       
  42 H42           -0.2482     1.6581    -2.1260 H       
  43 H43           -1.7809     1.6323    -1.2215 H       
@<TRIPOS>BOND
   1    1    2 1
   2    1   12 1
   3    1   22 1
   4    1   24 1
   5    2    3 2
   6    2    6 1
   7    3    4 1
   8    4    5 2
   9    4   11 1
  10    5    6 1
  11    6    7 1
  12    7    8 1
  13    7   25 1
  14    7   26 1
  15    8    9 1
  16    8   10 2
  17    9   27 1
  18   11   13 ar
  19   11   17 ar
  20   12   19 1
  21   12   28 1
  22   12   29 1
  23   13   14 ar
  24   13   30 1
  25   14   15 ar
  26   14   31 1
  27   15   16 ar
  28   15   23 1
  29   16   17 ar
  30   16   18 1
  31   17   32 1
  32   18   33 1
  33   18   34 1
  34   18   35 1
  35   19   20 1
  36   19   36 1
  37   19   37 1
  38   20   21 1
  39   20   38 1
  40   20   39 1
  41   21   22 1
  42   21   40 1
  43   21   41 1
  44   22   42 1
  45   22   43 1

#	End of record

