#	Name: ASD06680001
#	Creating user name:	WinNT
#	Creation time:	15. 06. 2019 21:08

#	Modifying user name:	WinNT
#	Modification time:	15. 06. 2019 21:08

#	Program:	/corina/corina34_cracker 3.40 0067  02.08.2006

@<TRIPOS>MOLECULE
ASD06680001
  19   19    0    0    0
SMALL
NO_CHARGES


@<TRIPOS>ATOM
   1 O1            -0.0161     1.3381     0.0094 O.3     
   2 C2             0.0021    -0.0041     0.0020 C.2     
   3 O3             1.0565    -0.5939    -0.0112 O.2     
   4 C4            -1.2926    -0.7753     0.0102 C.3     
   5 C5            -0.9972    -2.2530    -0.0005 C.ar    
   6 C6            -0.8505    -2.9359     1.1923 C.ar    
   7 C7            -0.5796    -4.2910     1.1858 C.ar    
   8 C8            -0.4547    -4.9664    -0.0189 C.ar    
   9 C9            -0.6024    -4.2786    -1.2161 C.ar    
  10 C10           -0.8789    -2.9244    -1.2037 C.ar    
  11 Cl11          -0.4470    -5.1200    -2.7265 Cl      
  12 O12           -0.1878    -6.2991    -0.0278 O.3     
  13 H13            0.8394     1.7888     0.0037 H       
  14 H14           -1.8592    -0.5245     0.9070 H       
  15 H15           -1.8762    -0.5150    -0.8728 H       
  16 H16           -0.9474    -2.4098     2.1305 H       
  17 H17           -0.4648    -4.8237     2.1183 H       
  18 H18           -0.9940    -2.3886    -2.1343 H       
  19 H19           -0.9767    -6.8583    -0.0228 H       
@<TRIPOS>BOND
   1    1    2 1
   2    1   13 1
   3    2    3 2
   4    2    4 1
   5    4    5 1
   6    4   14 1
   7    4   15 1
   8    5    6 ar
   9    5   10 ar
  10    6    7 ar
  11    6   16 1
  12    7    8 ar
  13    7   17 1
  14    8    9 ar
  15    8   12 1
  16    9   10 ar
  17    9   11 1
  18   10   18 1
  19   12   19 1

#	End of record

