#	Name: ASD00841886
#	Creating user name:	WinNT
#	Creation time:	15. 06. 2019 18:43

#	Modifying user name:	WinNT
#	Modification time:	15. 06. 2019 18:43

#	Program:	/corina/corina34_cracker 3.40 0067  02.08.2006

@<TRIPOS>MOLECULE
ASD00841886
  97  102    0    0    0
SMALL
NO_CHARGES


@<TRIPOS>ATOM
   1 C1             1.0736     1.5483    -0.5427 C.ar    
   2 C2             1.3596     0.2040    -0.7302 C.ar    
   3 C3             1.2615    -0.6790     0.3356 C.ar    
   4 C4             0.8795    -0.2176     1.5802 C.ar    
   5 C5             0.5945     1.1229     1.7644 C.ar    
   6 C6             0.6919     2.0048     0.7042 C.ar    
   7 C7             1.5709    -2.1402     0.1353 C.3     
   8 C8             1.2685    -2.9239     1.3947 C.2     
   9 C9             0.7760    -2.6979    -1.0470 C.3     
  10 C10           -0.6914    -2.4241    -0.8396 C.2     
  11 N11           -1.5974    -2.9110    -1.7105 N.am    
  12 O12           -1.0569    -1.7655     0.1109 O.2     
  13 C13           -3.0216    -2.5634    -1.5914 C.3     
  14 C14           -3.5161    -2.0634    -2.9529 C.3     
  15 N15           -3.2051    -3.0652    -3.9814 N.3     
  16 C16           -1.7550    -3.2553    -4.1188 C.3     
  17 C17           -1.1874    -3.7992    -2.8088 C.3     
  18 C18           -3.8131    -2.7041    -5.2689 C.3     
  19 C19           -3.3668    -3.7001    -6.3428 C.3     
  20 C20           -4.0509    -3.3551    -7.6676 C.3     
  21 N21           -5.5083    -3.4125    -7.4968 N.3     
  22 C22           -5.9656    -2.4315    -6.5044 C.3     
  23 C23           -5.3386    -2.7489    -5.1449 C.3     
  24 C24           -6.1967    -3.2227    -8.7806 C.3     
  25 O25            0.1866    -3.0347     1.9318 O.2     
  26 N26            2.4236    -3.4733     1.8060 N.am    
  27 C27            3.0536    -2.3432    -0.0770 C.ar    
  28 C28            3.4903    -3.1522     0.9648 C.ar    
  29 C29            3.9308    -1.8961    -1.0392 C.ar    
  30 C30            5.2673    -2.2529    -0.9752 C.ar    
  31 C31            5.7157    -3.0593     0.0588 C.ar    
  32 C32            4.8356    -3.5083     1.0248 C.ar    
  33 Cl33           6.3773    -1.6921    -2.1865 Cl      
  34 F34            7.0193    -3.4082     0.1226 F       
  35 C35            2.2909    -6.0885     2.6529 C.ar    
  36 C36            1.0481    -6.4723     2.1710 C.ar    
  37 C37            3.3150    -7.0126     2.7330 C.ar    
  38 C38            3.1019    -8.3186     2.3330 C.ar    
  39 C39            1.8638    -8.7037     1.8522 C.ar    
  40 C40            0.8367    -7.7839     1.7706 C.ar    
  41 H41            1.6999    -9.7246     1.5403 H       
  42 O42            0.0391    -5.5654     2.0917 O.3     
  43 C43           -1.2135    -6.0312     1.5858 C.3     
  44 C44           -2.2183    -4.8774     1.5709 C.3     
  45 C45           -7.6852    -3.5340    -8.6120 C.3     
  46 C46           -8.4021    -3.3364    -9.9491 C.3     
  47 O47            1.7348    -0.2475    -1.9559 O.3     
  48 C48            2.2553     0.0368    -4.2987 C.3     
  49 C49            1.7055     0.6935    -3.0309 C.3     
  50 S50            2.5655    -4.4222     3.1557 S.o2    
  51 O51            3.9255    -4.3440     3.5600 O.2     
  52 O52            1.4808    -4.0756     4.0057 O.2     
  53 H53            1.1536     2.2383    -1.3697 H       
  54 H54            0.8029    -0.9045     2.4101 H       
  55 H55            0.2952     1.4816     2.7382 H       
  56 H56            0.4688     3.0513     0.8507 H       
  57 H57            1.1086    -2.2179    -1.9674 H       
  58 H58            0.9382    -3.7734    -1.1190 H       
  59 H59           -3.5903    -3.4453    -1.2966 H       
  60 H60           -3.1457    -1.7781    -0.8458 H       
  61 H61           -4.5939    -1.9057    -2.9129 H       
  62 H62           -3.0196    -1.1245    -3.1978 H       
  63 H63           -1.5555    -3.9619    -4.9244 H       
  64 H64           -1.2830    -2.2997    -4.3475 H       
  65 H65           -0.0995    -3.8335    -2.8673 H       
  66 H66           -1.5789    -4.8003    -2.6278 H       
  67 H67           -3.4990    -1.6992    -5.5510 H       
  68 H68           -2.2853    -3.6422    -6.4659 H       
  69 H69           -3.6458    -4.7097    -6.0413 H       
  70 H70           -3.7606    -2.3506    -7.9755 H       
  71 H71           -3.7463    -4.0711    -8.4309 H       
  72 H72           -5.6663    -1.4313    -6.8177 H       
  73 H73           -7.0517    -2.4766    -6.4229 H       
  74 H74           -5.6487    -3.7435    -4.8245 H       
  75 H75           -5.6660    -2.0114    -4.4121 H       
  76 H76           -6.0763    -2.1901    -9.1082 H       
  77 H77           -5.7674    -3.8927    -9.5255 H       
  78 H78            3.5769    -1.2681    -1.8434 H       
  79 H79            5.1916    -4.1363     1.8282 H       
  80 H80            4.2828    -6.7142     3.1082 H       
  81 H81            3.9039    -9.0393     2.3957 H       
  82 H82           -0.1302    -8.0853     1.3957 H       
  83 H83           -1.0784    -6.4083     0.5721 H       
  84 H84           -1.5884    -6.8312     2.2241 H       
  85 H85           -2.3535    -4.5003     2.5846 H       
  86 H86           -1.8435    -4.0774     0.9325 H       
  87 H87           -3.1738    -5.2327     1.1850 H       
  88 H88           -7.8056    -4.5666    -8.2844 H       
  89 H89           -8.1144    -2.8640    -7.8671 H       
  90 H90           -8.2817    -2.3038   -10.2768 H       
  91 H91           -7.9729    -4.0064   -10.6941 H       
  92 H92           -9.4625    -3.5582    -9.8291 H       
  93 H93            2.3149     0.7783    -5.0954 H       
  94 H94            3.2497    -0.3627    -4.0990 H       
  95 H95            1.5932    -0.7731    -4.6048 H       
  96 H96            0.6786     1.0151    -3.2043 H       
  97 H97            2.3184     1.5576    -2.7742 H       
@<TRIPOS>BOND
   1    1    2 ar
   2    1    6 ar
   3    1   53 1
   4    2    3 ar
   5    2   47 1
   6    3    4 ar
   7    3    7 1
   8    4    5 ar
   9    4   54 1
  10    5    6 ar
  11    5   55 1
  12    6   56 1
  13    7    8 1
  14    7    9 1
  15    7   27 1
  16    8   25 2
  17    8   26 am
  18    9   10 1
  19    9   57 1
  20    9   58 1
  21   10   11 am
  22   10   12 2
  23   11   13 1
  24   11   17 1
  25   13   14 1
  26   13   59 1
  27   13   60 1
  28   14   15 1
  29   14   61 1
  30   14   62 1
  31   15   16 1
  32   15   18 1
  33   16   17 1
  34   16   63 1
  35   16   64 1
  36   17   65 1
  37   17   66 1
  38   18   19 1
  39   18   23 1
  40   18   67 1
  41   19   20 1
  42   19   68 1
  43   19   69 1
  44   20   21 1
  45   20   70 1
  46   20   71 1
  47   21   22 1
  48   21   24 1
  49   22   23 1
  50   22   72 1
  51   22   73 1
  52   23   74 1
  53   23   75 1
  54   24   45 1
  55   24   76 1
  56   24   77 1
  57   26   50 am
  58   26   28 1
  59   27   28 ar
  60   27   29 ar
  61   28   32 ar
  62   29   30 ar
  63   29   78 1
  64   30   31 ar
  65   30   33 1
  66   31   32 ar
  67   31   34 1
  68   32   79 1
  69   35   36 ar
  70   35   37 ar
  71   35   50 1
  72   36   42 1
  73   36   40 ar
  74   37   38 ar
  75   37   80 1
  76   38   39 ar
  77   38   81 1
  78   39   40 ar
  79   39   41 1
  80   40   82 1
  81   42   43 1
  82   43   44 1
  83   43   83 1
  84   43   84 1
  85   44   85 1
  86   44   86 1
  87   44   87 1
  88   45   46 1
  89   45   88 1
  90   45   89 1
  91   46   90 1
  92   46   91 1
  93   46   92 1
  94   47   49 1
  95   48   49 1
  96   48   93 1
  97   48   94 1
  98   48   95 1
  99   49   96 1
 100   49   97 1
 101   50   51 2
 102   50   52 2

#	End of record

