#	Name: ASD01913757
#	Creating user name:	WinNT
#	Creation time:	15. 06. 2019 20:02

#	Modifying user name:	WinNT
#	Modification time:	15. 06. 2019 20:02

#	Program:	/corina/corina34_cracker 3.40 0067  02.08.2006

@<TRIPOS>MOLECULE
ASD01913757
  47   48    0    0    0
SMALL
NO_CHARGES


@<TRIPOS>ATOM
   1 O1            -0.0163     1.3508     0.0095 O.3     
   2 C2             0.0021    -0.0041     0.0020 C.ar    
   3 N3             1.1632    -0.6406    -0.0125 N.ar    
   4 C4             1.2332    -1.9564    -0.0202 C.ar    
   5 C5             0.0696    -2.7305    -0.0133 C.ar    
   6 C6            -1.1755    -2.0855     0.0021 C.ar    
   7 C7            -1.1992    -0.7058     0.0154 C.ar    
   8 C8             0.1499    -4.2036    -0.0279 C.2     
   9 N9            -0.9788    -4.9400    -0.0266 N.am    
  10 O10            1.2344    -4.7532    -0.0412 O.2     
  11 C11            1.2480     2.0168     0.0010 C.3     
  12 C12            1.0303     3.5079     0.0111 C.ar    
  13 C13            0.9420     4.1849     1.2124 C.ar    
  14 C14            0.7419     5.5551     1.2214 C.ar    
  15 C15            0.6307     6.2451     0.0264 C.ar    
  16 C16            0.7194     5.5659    -1.1741 C.ar    
  17 C17            0.9247     4.1990    -1.1819 C.ar    
  18 F18            0.6550     6.2179     2.3954 F       
  19 C19           -0.8991    -6.4028    -0.0412 C.3     
  20 C20           -2.1812    -6.9774    -0.6469 C.3     
  21 C21           -2.3451    -6.4613    -2.0778 C.3     
  22 C22           -2.0979    -8.5051    -0.6621 C.3     
  23 C23           -3.3827    -6.5405     0.1936 C.3     
  24 Cl24           2.7846    -2.7353    -0.0398 Cl      
  25 C25           -0.7352    -6.9189     1.3898 C.3     
  26 H26           -2.0934    -2.6546     0.0031 H       
  27 H27           -2.1403    -0.1764     0.0320 H       
  28 H28           -1.8440    -4.5015    -0.0160 H       
  29 H29            1.8174     1.7267     0.8840 H       
  30 H30            1.8004     1.7363    -0.8958 H       
  31 H31            1.0285     3.6455     2.1440 H       
  32 H32            0.4743     7.3137     0.0322 H       
  33 H33            0.6326     6.1040    -2.1065 H       
  34 H34            0.9942     3.6691    -2.1204 H       
  35 H35           -0.0431    -6.7141    -0.6400 H       
  36 H36           -1.4891    -6.7726    -2.6766 H       
  37 H37           -3.2585    -6.8707    -2.5093 H       
  38 H38           -2.4044    -5.3730    -2.0670 H       
  39 H39           -1.9812    -8.8728     0.3574 H       
  40 H40           -3.0113    -8.9145    -1.0936 H       
  41 H41           -1.2420    -8.8164    -1.2608 H       
  42 H42           -3.4420    -5.4522     0.2044 H       
  43 H43           -4.2961    -6.9499    -0.2379 H       
  44 H44           -3.2659    -6.9082     1.2131 H       
  45 H45            0.1782    -6.5095     1.8213 H       
  46 H46           -1.5912    -6.6076     1.9886 H       
  47 H47           -0.6759    -8.0072     1.3790 H       
@<TRIPOS>BOND
   1    1    2 1
   2    1   11 1
   3    2    3 ar
   4    2    7 ar
   5    3    4 ar
   6    4   24 1
   7    4    5 ar
   8    5    6 ar
   9    5    8 1
  10    6    7 ar
  11    6   26 1
  12    7   27 1
  13    8    9 am
  14    8   10 2
  15    9   19 1
  16    9   28 1
  17   11   12 1
  18   11   29 1
  19   11   30 1
  20   12   13 ar
  21   12   17 ar
  22   13   14 ar
  23   13   31 1
  24   14   15 ar
  25   14   18 1
  26   15   16 ar
  27   15   32 1
  28   16   17 ar
  29   16   33 1
  30   17   34 1
  31   19   20 1
  32   19   25 1
  33   19   35 1
  34   20   21 1
  35   20   22 1
  36   20   23 1
  37   21   36 1
  38   21   37 1
  39   21   38 1
  40   22   39 1
  41   22   40 1
  42   22   41 1
  43   23   42 1
  44   23   43 1
  45   23   44 1
  46   25   45 1
  47   25   46 1
  48   25   47 1

#	End of record

