#	Name: ASD01882291
#	Creating user name:	WinNT
#	Creation time:	15. 06. 2019 19:44

#	Modifying user name:	WinNT
#	Modification time:	15. 06. 2019 19:44

#	Program:	/corina/corina34_cracker 3.40 0067  02.08.2006

@<TRIPOS>MOLECULE
ASD01882291
  27   28    0    0    0
SMALL
NO_CHARGES


@<TRIPOS>ATOM
   1 C1            -0.0171     1.4117     0.0098 C.2     
   2 C2             0.0021    -0.0041     0.0020 C.2     
   3 C3             1.2404    -0.6613    -0.0133 C.2     
   4 C4             2.4147     0.1090    -0.0204 C.2     
   5 C5             2.3384     1.4591    -0.0120 C.2     
   6 N6             1.1408     2.0982     0.0024 N.am    
   7 C7            -1.2200    -0.7504     0.0101 C.1     
   8 N8            -2.1895    -1.3425     0.0166 N.1     
   9 O9            -1.0806     2.0080     0.0181 O.2     
  10 O10            1.3029    -2.0121    -0.0207 O.3     
  11 C11            1.1079     3.5628     0.0101 C.3     
  12 C12            1.1099     4.0654     1.4552 C.3     
  13 C13            1.0756     5.5950     1.4632 C.3     
  14 C14            0.9541     6.2918     2.8199 C.3     
  15 C15            2.2809     6.3255     2.0587 C.3     
  16 H16            3.3791    -0.3771    -0.0322 H       
  17 H17            3.2485     2.0406    -0.0168 H       
  18 H18            2.2035    -2.3641    -0.0313 H       
  19 H19            1.9847     3.9486    -0.5100 H       
  20 H20            0.2052     3.9086    -0.4936 H       
  21 H21            0.2332     3.6795     1.9753 H       
  22 H22            2.0126     3.7196     1.9589 H       
  23 H23            0.5755     6.0584     0.6129 H       
  24 H24            0.3744     7.2139     2.8620 H       
  25 H25            0.8987     5.6605     3.7068 H       
  26 H26            3.0983     5.7165     2.4446 H       
  27 H27            2.5740     7.2698     1.5999 H       
@<TRIPOS>BOND
   1    1    2 1
   2    1    6 am
   3    1    9 2
   4    2    3 2
   5    2    7 1
   6    3    4 1
   7    3   10 1
   8    4    5 2
   9    4   16 1
  10    5    6 1
  11    5   17 1
  12    6   11 1
  13    7    8 3
  14   10   18 1
  15   11   12 1
  16   11   19 1
  17   11   20 1
  18   12   13 1
  19   12   21 1
  20   12   22 1
  21   13   14 1
  22   13   15 1
  23   13   23 1
  24   14   15 1
  25   14   24 1
  26   14   25 1
  27   15   26 1
  28   15   27 1

#	End of record

