#	Name: ASD03240378
#	Creating user name:	WinNT
#	Creation time:	15. 06. 2019 20:34

#	Modifying user name:	WinNT
#	Modification time:	15. 06. 2019 20:34

#	Program:	/corina/corina34_cracker 3.40 0067  02.08.2006

@<TRIPOS>MOLECULE
ASD03240378
  44   44    0    0    0
SMALL
NO_CHARGES


@<TRIPOS>ATOM
   1 C1            -0.0187     1.5258     0.0104 C.3     
   2 C2             0.0021    -0.0041     0.0020 C.3     
   3 C3             0.7421    -0.5109     1.2415 C.3     
   4 C4             0.7628    -2.0407     1.2331 C.3     
   5 C5             1.5028    -2.5476     2.4727 C.3     
   6 C6             1.5232    -4.0544     2.4644 C.2     
   7 C7             2.6845    -4.7065     2.5505 C.2     
   8 C8             2.7043    -6.1689     2.5425 C.2     
   9 O9             1.6651    -6.7893     2.4575 O.2     
  10 C10            4.0156    -6.9053     2.6398 C.3     
  11 C11            3.7573    -8.4130     2.6098 C.3     
  12 C12            5.0685    -9.1493     2.7070 C.ar    
  13 C13            5.5755    -9.4941     3.9457 C.ar    
  14 C14            6.7783   -10.1698     4.0403 C.ar    
  15 C15            7.4779   -10.5026     2.8919 C.ar    
  16 C16            6.9673   -10.1554     1.6444 C.ar    
  17 C17            5.7591    -9.4836     1.5565 C.ar    
  18 O18            7.6504   -10.4800     0.5141 O.3     
  19 C19            7.0662   -10.0919    -0.7309 C.3     
  20 O20            8.6611   -11.1667     2.9832 O.3     
  21 H21            1.0039     1.9031     0.0027 H       
  22 H22           -0.5459     1.8868    -0.8726 H       
  23 H23           -0.5289     1.8773     0.9072 H       
  24 H24           -1.0205    -0.3814     0.0098 H       
  25 H25            0.5123    -0.3556    -0.8948 H       
  26 H26            1.7647    -0.1336     1.2338 H       
  27 H27            0.2319    -0.1594     2.1383 H       
  28 H28           -0.2598    -2.4180     1.2409 H       
  29 H29            1.2730    -2.3923     0.3363 H       
  30 H30            2.5254    -2.1703     2.4649 H       
  31 H31            0.9926    -2.1961     3.3695 H       
  32 H32            0.5982    -4.6066     2.3887 H       
  33 H33            3.6096    -4.1543     2.6262 H       
  34 H34            4.6509    -6.6287     1.7983 H       
  35 H35            4.5127    -6.6403     3.5729 H       
  36 H36            3.1220    -8.6896     3.4512 H       
  37 H37            3.2601    -8.6780     1.6766 H       
  38 H38            5.0312    -9.2348     4.8418 H       
  39 H39            7.1725   -10.4377     5.0094 H       
  40 H40            5.3607    -9.2130     0.5898 H       
  41 H41            7.7111   -10.4107    -1.5498 H       
  42 H42            6.0878   -10.5609    -0.8351 H       
  43 H43            6.9542    -9.0080    -0.7575 H       
  44 H44            8.5736   -12.1297     2.9712 H       
@<TRIPOS>BOND
   1    1    2 1
   2    1   21 1
   3    1   22 1
   4    1   23 1
   5    2    3 1
   6    2   24 1
   7    2   25 1
   8    3    4 1
   9    3   26 1
  10    3   27 1
  11    4    5 1
  12    4   28 1
  13    4   29 1
  14    5    6 1
  15    5   30 1
  16    5   31 1
  17    6    7 2
  18    6   32 1
  19    7    8 1
  20    7   33 1
  21    8    9 2
  22    8   10 1
  23   10   11 1
  24   10   34 1
  25   10   35 1
  26   11   12 1
  27   11   36 1
  28   11   37 1
  29   12   13 ar
  30   12   17 ar
  31   13   14 ar
  32   13   38 1
  33   14   15 ar
  34   14   39 1
  35   15   16 ar
  36   15   20 1
  37   16   17 ar
  38   16   18 1
  39   17   40 1
  40   18   19 1
  41   19   41 1
  42   19   42 1
  43   19   43 1
  44   20   44 1

#	End of record

