#	Name: ASD03092940
#	Creating user name:	WinNT
#	Creation time:	15. 06. 2019 20:33

#	Modifying user name:	WinNT
#	Modification time:	15. 06. 2019 20:33

#	Program:	/corina/corina34_cracker 3.40 0067  02.08.2006

@<TRIPOS>MOLECULE
ASD03092940
  49   51    0    0    0
SMALL
NO_CHARGES


@<TRIPOS>ATOM
   1 C1            -1.0137     1.6951     1.0363 C.3     
   2 C2            -1.2706     0.2125     1.3136 C.3     
   3 C3            -1.4125    -0.5256     0.0074 C.2     
   4 O4            -1.4124     0.0889    -1.0407 O.2     
   5 C5            -1.5453    -1.9289     0.0017 C.2     
   6 C6            -2.7328    -2.6459     0.1499 C.2     
   7 C7            -2.3858    -4.0177     0.0799 C.2     
   8 C8            -1.0356    -4.0905    -0.1036 C.2     
   9 C9            -0.2404    -5.3641    -0.2332 C.3     
  10 N10           -0.5261    -2.8440    -0.1575 N.pl3   
  11 C11            0.8879    -2.5134    -0.3513 C.3     
  12 C12           -3.3196    -5.1652     0.1874 C.ar    
  13 C13           -4.0071    -5.3981     1.3770 C.ar    
  14 C14           -4.8751    -6.4671     1.4729 C.ar    
  15 C15           -5.0641    -7.3074     0.3912 C.ar    
  16 C16           -4.3837    -7.0817    -0.7947 C.ar    
  17 F17           -4.5723    -7.9061    -1.8482 F       
  18 C18           -3.5167    -6.0107    -0.9026 C.ar    
  19 C19           -4.0881    -2.0841     0.3432 C.ar    
  20 C20           -4.7736    -2.3034     1.5387 C.ar    
  21 C21           -6.0369    -1.7770     1.7125 C.ar    
  22 C22           -6.6242    -1.0329     0.7047 C.ar    
  23 C23           -5.9498    -0.8118    -0.4830 C.ar    
  24 C24           -4.6837    -1.3279    -0.6671 C.ar    
  25 S25           -8.2382    -0.3645     0.9346 S.o2    
  26 N26           -8.0553     1.1394     1.6033 N.am    
  27 O27           -8.7778    -0.1630    -0.3644 O.2     
  28 O28           -8.8687    -1.1687     1.9220 O.2     
  29 H29           -0.9111     2.2289     1.9811 H       
  30 H30           -0.0969     1.8028     0.4567 H       
  31 H31           -1.8501     2.1097     0.4737 H       
  32 H32           -0.4341    -0.2021     1.8762 H       
  33 H33           -2.1873     0.1048     1.8933 H       
  34 H34           -0.1862    -5.6534    -1.2828 H       
  35 H35            0.7666    -5.2045     0.1522 H       
  36 H36           -0.7266    -6.1556     0.3371 H       
  37 H37            1.3622    -2.3634     0.6186 H       
  38 H38            1.3836    -3.3303    -0.8757 H       
  39 H39            0.9701    -1.6003    -0.9409 H       
  40 H40           -3.8606    -4.7431     2.2231 H       
  41 H41           -5.4076    -6.6478     2.3949 H       
  42 H42           -5.7439    -8.1428     0.4710 H       
  43 H43           -2.9898    -5.8320    -1.8283 H       
  44 H44           -4.3163    -2.8844     2.3259 H       
  45 H45           -6.5686    -1.9463     2.6372 H       
  46 H46           -6.4139    -0.2304    -1.2659 H       
  47 H47           -4.1565    -1.1509    -1.5929 H       
  48 H48           -8.7090     1.8331     1.4233 H       
  49 H49           -7.2945     1.3267     2.1751 H       
@<TRIPOS>BOND
   1    1    2 1
   2    1   29 1
   3    1   30 1
   4    1   31 1
   5    2    3 1
   6    2   32 1
   7    2   33 1
   8    3    4 2
   9    3    5 1
  10    5   10 1
  11    5    6 2
  12    6    7 1
  13    6   19 1
  14    7    8 2
  15    7   12 1
  16    8    9 1
  17    8   10 1
  18    9   34 1
  19    9   35 1
  20    9   36 1
  21   10   11 1
  22   11   37 1
  23   11   38 1
  24   11   39 1
  25   12   18 ar
  26   12   13 ar
  27   13   14 ar
  28   13   40 1
  29   14   15 ar
  30   14   41 1
  31   15   16 ar
  32   15   42 1
  33   16   17 1
  34   16   18 ar
  35   18   43 1
  36   19   24 ar
  37   19   20 ar
  38   20   21 ar
  39   20   44 1
  40   21   22 ar
  41   21   45 1
  42   22   23 ar
  43   22   25 1
  44   23   24 ar
  45   23   46 1
  46   24   47 1
  47   25   26 am
  48   25   27 2
  49   25   28 2
  50   26   48 1
  51   26   49 1

#	End of record

