#	Name: ASD08390022
#	Creating user name:	WinNT
#	Creation time:	15. 06. 2019 21:19

#	Modifying user name:	WinNT
#	Modification time:	15. 06. 2019 21:19

#	Program:	/corina/corina34_cracker 3.40 0067  02.08.2006

@<TRIPOS>MOLECULE
ASD08390022
  37   39    0    0    0
SMALL
NO_CHARGES


@<TRIPOS>ATOM
   1 N1            -0.0179     1.4651     0.0101 N.2     
   2 C2             0.0021    -0.0041     0.0020 C.3     
   3 C3             1.5024    -0.3580    -0.0142 C.3     
   4 N4             2.1606     0.9592    -0.0134 N.pl3   
   5 C5             1.1890     1.9264     0.0011 C.2     
   6 C6             1.8775    -1.1405     1.2179 C.ar    
   7 C7             2.0028    -2.5155     1.1519 C.ar    
   8 C8             2.3467    -3.2333     2.2821 C.ar    
   9 C9             2.5658    -2.5759     3.4783 C.ar    
  10 C10            2.4414    -1.2007     3.5441 C.ar    
  11 C11            2.1017    -0.4826     2.4128 C.ar    
  12 C12            1.4963     3.3750     0.0059 C.ar    
  13 C13            0.4618     4.3101     0.0208 C.ar    
  14 C14            0.7545     5.6586     0.0257 C.ar    
  15 C15            2.0709     6.0835     0.0155 C.ar    
  16 C16            3.1015     5.1607     0.0007 C.ar    
  17 C17            2.8215     3.8095     0.0014 C.ar    
  18 C18           -0.6654    -0.5563     1.2631 C.3     
  19 C19           -0.6820    -0.5347    -1.2315 C.2     
  20 O20           -0.2591    -1.5260    -1.7776 O.2     
  21 O21           -1.7611     0.0940    -1.7234 O.3     
  22 H22            1.7566    -0.9143    -0.9164 H       
  23 H23            3.1178     1.1158    -0.0217 H       
  24 H24            1.8316    -3.0291     0.2174 H       
  25 H25            2.4439    -4.3077     2.2307 H       
  26 H26            2.8339    -3.1367     4.3615 H       
  27 H27            2.6122    -0.6872     4.4787 H       
  28 H28            2.0081     0.5922     2.4634 H       
  29 H29           -0.5664     3.9795     0.0281 H       
  30 H30           -0.0458     6.3837     0.0373 H       
  31 H31            2.2951     7.1400     0.0186 H       
  32 H32            4.1272     5.4985    -0.0073 H       
  33 H33            3.6268     3.0900    -0.0056 H       
  34 H34           -1.7075    -0.2379     1.2918 H       
  35 H35           -0.6184    -1.6452     1.2520 H       
  36 H36           -0.1460    -0.1791     2.1440 H       
  37 H37           -2.1658    -0.2837    -2.5163 H       
@<TRIPOS>BOND
   1    1    2 1
   2    1    5 2
   3    2   18 1
   4    2   19 1
   5    2    3 1
   6    3    4 1
   7    3    6 1
   8    3   22 1
   9    4    5 1
  10    4   23 1
  11    5   12 1
  12    6    7 ar
  13    6   11 ar
  14    7    8 ar
  15    7   24 1
  16    8    9 ar
  17    8   25 1
  18    9   10 ar
  19    9   26 1
  20   10   11 ar
  21   10   27 1
  22   11   28 1
  23   12   13 ar
  24   12   17 ar
  25   13   14 ar
  26   13   29 1
  27   14   15 ar
  28   14   30 1
  29   15   16 ar
  30   15   31 1
  31   16   17 ar
  32   16   32 1
  33   17   33 1
  34   18   34 1
  35   18   35 1
  36   18   36 1
  37   19   20 2
  38   19   21 1
  39   21   37 1

#	End of record

