#	Name: ASD04590438
#	Creating user name:	WinNT
#	Creation time:	15. 06. 2019 20:50

#	Modifying user name:	WinNT
#	Modification time:	15. 06. 2019 20:50

#	Program:	/corina/corina34_cracker 3.40 0067  02.08.2006

@<TRIPOS>MOLECULE
ASD04590438
  52   56    0    0    0
SMALL
NO_CHARGES


@<TRIPOS>ATOM
   1 C1            -0.0167     1.3832     0.0096 C.ar    
   2 C2             0.0021    -0.0041     0.0020 C.ar    
   3 C3             2.4020     0.0223    -0.0203 C.ar    
   4 C4             2.3769     1.4283    -0.0129 C.ar    
   5 C5             1.1624     2.0986     0.0022 C.ar    
   6 N6             3.7040    -0.3552    -0.0352 N.2     
   7 C7             4.4709     0.7083    -0.0376 C.2     
   8 N8             3.6969     1.8375    -0.0242 N.pl3   
   9 C9             5.9482     0.6906    -0.0525 C.2     
  10 C10            6.7657    -0.4631    -0.0670 C.2     
  11 C11            8.0578    -0.0540    -0.0786 C.2     
  12 N12            8.0646     1.3050    -0.0718 N.pl3   
  13 N13            6.7360     1.7480    -0.0605 N.2     
  14 N14            6.3188    -1.7944    -0.0684 N.am    
  15 C15            7.2108    -2.8047    -0.0830 C.2     
  16 O16            8.4028    -2.5633    -0.0951 O.2     
  17 C17            6.7417    -4.2022    -0.0844 C.ar    
  18 C18            1.1969    -0.6870    -0.0126 C.ar    
  19 C19            6.5312    -4.8747     1.1251 C.ar    
  20 C20           -1.2962    -0.7693     0.0103 C.3     
  21 N21           -1.7312    -1.0105    -1.3719 N.3     
  22 C22           -2.8597    -1.9518    -1.4124 C.3     
  23 C23           -0.6167    -1.4976    -2.1976 C.3     
  24 C24           -1.0980    -1.6784    -3.6397 C.3     
  25 O25           -2.2146    -2.5718    -3.6558 O.3     
  26 C26           -3.3186    -2.1280    -2.8624 C.3     
  27 C27            6.0917    -6.1838     1.1158 C.ar    
  28 C28            5.8595    -6.8320    -0.0871 C.ar    
  29 C29            6.0656    -6.1726    -1.2887 C.ar    
  30 C30            6.4989    -4.8614    -1.2952 C.ar    
  31 F31            5.4304    -8.1130    -0.0884 F       
  32 F32            6.6993    -4.2202    -2.4674 F       
  33 F33            6.7580    -4.2447     2.2985 F       
  34 H34           -0.9614     1.9066     0.0169 H       
  35 H35            1.1403     3.1784     0.0079 H       
  36 H36            4.0155     2.7537    -0.0232 H       
  37 H37            8.9275    -0.6942    -0.0905 H       
  38 H38            8.8529     1.8702    -0.0769 H       
  39 H39            5.3681    -1.9869    -0.0588 H       
  40 H40            1.2037    -1.7669    -0.0177 H       
  41 H41           -1.1524    -1.7232     0.5176 H       
  42 H42           -2.0561    -0.1898     0.5345 H       
  43 H43           -2.5450    -2.9149    -1.0107 H       
  44 H44           -3.6828    -1.5591    -0.8154 H       
  45 H45            0.1976    -0.7734    -2.1738 H       
  46 H46           -0.2660    -2.4535    -1.8084 H       
  47 H47           -1.3984    -0.7129    -4.0469 H       
  48 H48           -0.2909    -2.0935    -4.2434 H       
  49 H49           -4.1175    -2.8683    -2.9039 H       
  50 H50           -3.6836    -1.1756    -3.2469 H       
  51 H51            5.9289    -6.7040     2.0482 H       
  52 H52            5.8828    -6.6842    -2.2221 H       
@<TRIPOS>BOND
   1    1    2 ar
   2    1    5 ar
   3    1   34 1
   4    2   18 ar
   5    2   20 1
   6    3    4 ar
   7    3    6 1
   8    3   18 ar
   9    4    5 ar
  10    4    8 1
  11    5   35 1
  12    6    7 2
  13    7    8 1
  14    7    9 1
  15    8   36 1
  16    9   10 1
  17    9   13 2
  18   10   11 2
  19   10   14 1
  20   11   12 1
  21   11   37 1
  22   12   13 1
  23   12   38 1
  24   14   15 am
  25   14   39 1
  26   15   16 2
  27   15   17 1
  28   17   19 ar
  29   17   30 ar
  30   18   40 1
  31   19   27 ar
  32   19   33 1
  33   20   21 1
  34   20   41 1
  35   20   42 1
  36   21   22 1
  37   21   23 1
  38   22   26 1
  39   22   43 1
  40   22   44 1
  41   23   24 1
  42   23   45 1
  43   23   46 1
  44   24   25 1
  45   24   47 1
  46   24   48 1
  47   25   26 1
  48   26   49 1
  49   26   50 1
  50   27   28 ar
  51   27   51 1
  52   28   29 ar
  53   28   31 1
  54   29   30 ar
  55   29   52 1
  56   30   32 1

#	End of record

