#	Name: ASD03930271
#	Creating user name:	WinNT
#	Creation time:	15. 06. 2019 20:47

#	Modifying user name:	WinNT
#	Modification time:	15. 06. 2019 20:47

#	Program:	/corina/corina34_cracker 3.40 0067  02.08.2006

@<TRIPOS>MOLECULE
ASD03930271
  43   47    0    0    0
SMALL
NO_CHARGES


@<TRIPOS>ATOM
   1 C1            -0.0053     1.4571     0.3904 C.ar    
   2 C2             0.0289     0.0648     0.1528 C.ar    
   3 C3            -1.1513    -0.6482    -0.0456 C.ar    
   4 C4            -2.3610     0.0143    -0.0080 C.ar    
   5 C5            -2.4015     1.4027     0.2288 C.ar    
   6 C6            -1.2348     2.1202     0.4316 C.ar    
   7 N7             1.1584     2.1284     0.5807 N.2     
   8 N8             2.2972     1.5377     0.5526 N.2     
   9 N9             2.4372     0.1661     0.3256 N.am    
  10 C10            1.3422    -0.6035     0.1222 C.2     
  11 O11           -3.5310    -0.6465    -0.1956 O.3     
  12 C12           -4.6707    -0.1736     0.5219 C.3     
  13 N13           -4.8210     1.2737     0.3688 N.am    
  14 C14           -3.7273     2.0629     0.2587 C.2     
  15 O15            1.4385    -1.8002    -0.0777 O.2     
  16 C16            3.7708    -0.4399     0.3073 C.3     
  17 C17            4.6092     0.2057    -0.7977 C.3     
  18 C18            4.4509    -0.2171     1.6596 C.3     
  19 N19            4.0226    -0.1089    -2.1028 N.pl3   
  20 N20            3.1320     0.5963    -2.7115 N.2     
  21 C21            2.8539     0.0025    -3.8461 C.2     
  22 N22            3.6106    -1.0935    -3.9055 N.2     
  23 N23            4.3184    -1.1313    -2.8277 N.2     
  24 O24           -3.8292     3.2720     0.1865 O.2     
  25 C25           -6.1588     1.8699     0.3341 C.3     
  26 C26           -7.1478     1.3263    -0.6989 C.3     
  27 C27           -7.3327     0.9978     0.7839 C.3     
  28 H28           -1.1196    -1.7123    -0.2278 H       
  29 H29           -1.2740     3.1842     0.6124 H       
  30 H30           -5.5642    -0.6687     0.1416 H       
  31 H31           -4.5527    -0.4117     1.5790 H       
  32 H32            3.6813    -1.5095     0.1175 H       
  33 H33            4.6249     1.2865    -0.6574 H       
  34 H34            5.6274    -0.1811    -0.7543 H       
  35 H35            4.5404     0.8525     1.8494 H       
  36 H36            3.8536    -0.6771     2.4469 H       
  37 H37            5.4431    -0.6680     1.6460 H       
  38 H38            2.1469     0.3370    -4.5907 H       
  39 H39           -6.2051     2.9344     0.5638 H       
  40 H40           -7.8452     2.0331    -1.1486 H       
  41 H41           -6.8032     0.5251    -1.3527 H       
  42 H42           -7.1097    -0.0194     1.1057 H       
  43 H43           -8.1516     1.4886     1.3098 H       
@<TRIPOS>BOND
   1    1    2 ar
   2    1    7 1
   3    1    6 ar
   4    2    3 ar
   5    2   10 1
   6    3    4 ar
   7    3   28 1
   8    4    5 ar
   9    4   11 1
  10    5    6 ar
  11    5   14 1
  12    6   29 1
  13    7    8 2
  14    8    9 1
  15    9   10 am
  16    9   16 1
  17   10   15 2
  18   11   12 1
  19   12   13 1
  20   12   30 1
  21   12   31 1
  22   13   14 am
  23   13   25 1
  24   14   24 2
  25   16   17 1
  26   16   18 1
  27   16   32 1
  28   17   19 1
  29   17   33 1
  30   17   34 1
  31   18   35 1
  32   18   36 1
  33   18   37 1
  34   19   20 1
  35   19   23 1
  36   20   21 2
  37   21   22 1
  38   21   38 1
  39   22   23 2
  40   25   26 1
  41   25   27 1
  42   25   39 1
  43   26   27 1
  44   26   40 1
  45   26   41 1
  46   27   42 1
  47   27   43 1

#	End of record

