#	Name: ASD01840348
#	Creating user name:	WinNT
#	Creation time:	15. 06. 2019 19:37

#	Modifying user name:	WinNT
#	Modification time:	15. 06. 2019 19:37

#	Program:	/corina/corina34_cracker 3.40 0067  02.08.2006

@<TRIPOS>MOLECULE
ASD01840348
  46   49    0    0    0
SMALL
NO_CHARGES


@<TRIPOS>ATOM
   1 C1             0.0043     1.2333    -0.0399 C.3     
   2 O2            -0.0781    -0.1902    -0.1346 O.3     
   3 C3             0.4582    -0.7666    -1.2415 C.ar    
   4 N4             1.0296    -0.0127    -2.1694 N.ar    
   5 N5             1.5507    -0.5031    -3.2313 N.ar    
   6 C6             1.5587    -1.8124    -3.4858 C.ar    
   7 S7             2.2044    -2.7079    -4.8541 S.3     
   8 C8             1.6955    -4.2466    -4.1865 C.2     
   9 C9             1.9148    -5.5407    -4.8307 C.2     
  10 O10            1.5268    -6.5619    -4.2931 O.2     
  11 N11            2.5463    -5.6032    -6.0197 N.am    
  12 C12            2.7660    -6.8999    -6.6652 C.3     
  13 C13            1.8848    -7.1315    -7.9060 C.3     
  14 N14            2.9916    -6.5299    -8.6820 N.3     
  15 C15            3.9623    -6.9151    -7.6338 C.3     
  16 C16            3.2183    -7.2351    -9.8512 C.ar    
  17 N17            2.4667    -8.2913   -10.1254 N.ar    
  18 C18            2.6569    -8.9869   -11.2343 C.ar    
  19 C19            3.6560    -8.5987   -12.1130 C.ar    
  20 C20            4.4236    -7.4892   -11.7952 C.ar    
  21 N21            4.1781    -6.8349   -10.6722 N.ar    
  22 C22            3.9028    -9.3665   -13.3860 C.3     
  23 F23            3.1206    -8.8291   -14.4139 F       
  24 F24            5.2552    -9.2737   -13.7319 F       
  25 F25            3.5617   -10.7097   -13.1940 F       
  26 C26            1.0726    -4.0793    -2.9939 C.2     
  27 N27            0.5694    -5.1374    -2.2489 N.pl3   
  28 C28            0.9785    -2.6957    -2.5651 C.ar    
  29 C29            0.4123    -2.1407    -1.3960 C.ar    
  30 C30           -0.2273    -3.0183    -0.3512 C.3     
  31 H31            1.0507     1.5382    -0.0511 H       
  32 H32           -0.5147     1.6844    -0.8857 H       
  33 H33           -0.4604     1.5631     0.8893 H       
  34 H34            2.8555    -4.7897    -6.4481 H       
  35 H35            2.7615    -7.7314    -5.9605 H       
  36 H36            1.7117    -8.1838    -8.1314 H       
  37 H37            0.9706    -6.5380    -7.9124 H       
  38 H38            4.7080    -6.1486    -7.4228 H       
  39 H39            4.3968    -7.9041    -7.7796 H       
  40 H40            2.0413    -9.8471   -11.4522 H       
  41 H41            5.2103    -7.1608   -12.4583 H       
  42 H42            0.8784    -6.0409    -2.4196 H       
  43 H43           -0.0912    -4.9731    -1.5579 H       
  44 H44           -1.2560    -3.2352    -0.6390 H       
  45 H45            0.3311    -3.9508    -0.2686 H       
  46 H46           -0.2197    -2.5039     0.6097 H       
@<TRIPOS>BOND
   1    1    2 1
   2    1   31 1
   3    1   32 1
   4    1   33 1
   5    2    3 1
   6    3   29 ar
   7    3    4 ar
   8    4    5 ar
   9    5    6 ar
  10    6   28 ar
  11    6    7 1
  12    7    8 1
  13    8    9 1
  14    8   26 2
  15    9   10 2
  16    9   11 am
  17   11   12 1
  18   11   34 1
  19   12   15 1
  20   12   13 1
  21   12   35 1
  22   13   14 1
  23   13   36 1
  24   13   37 1
  25   14   15 1
  26   14   16 1
  27   15   38 1
  28   15   39 1
  29   16   21 ar
  30   16   17 ar
  31   17   18 ar
  32   18   19 ar
  33   18   40 1
  34   19   20 ar
  35   19   22 1
  36   20   21 ar
  37   20   41 1
  38   22   23 1
  39   22   24 1
  40   22   25 1
  41   26   27 1
  42   26   28 1
  43   27   42 1
  44   27   43 1
  45   28   29 ar
  46   29   30 1
  47   30   44 1
  48   30   45 1
  49   30   46 1

#	End of record

