#	Name: ASD01900618
#	Creating user name:	WinNT
#	Creation time:	15. 06. 2019 19:52

#	Modifying user name:	WinNT
#	Modification time:	15. 06. 2019 19:52

#	Program:	/corina/corina34_cracker 3.40 0067  02.08.2006

@<TRIPOS>MOLECULE
ASD01900618
  41   43    0    0    0
SMALL
NO_CHARGES


@<TRIPOS>ATOM
   1 C1             0.0592     1.5205     0.5826 C.ar    
   2 C2             0.1589     0.2612     1.1770 C.ar    
   3 C3             1.3786    -0.4029     1.1468 C.ar    
   4 C4             2.4513     0.2146     0.5253 C.ar    
   5 C5             2.2792     1.4668    -0.0442 C.ar    
   6 N6             1.1145     2.0749    -0.0025 N.ar    
   7 C7            -1.2335     2.2402     0.5994 C.2     
   8 O8            -2.2036     1.7348     1.1294 O.2     
   9 N9            -1.3353     3.4562     0.0272 N.am    
  10 F10           -0.9145    -0.3028     1.7727 F       
  11 C11           -2.5802     4.0877    -0.0561 C.ar    
  12 C12           -2.6691     5.4689     0.0609 C.ar    
  13 C13           -3.9001     6.0895    -0.0222 C.ar    
  14 C14           -5.0433     5.3375    -0.2217 C.ar    
  15 C15           -4.9582     3.9622    -0.3386 C.ar    
  16 C16           -3.7297     3.3358    -0.2617 C.ar    
  17 S17           -6.6118     6.1332    -0.3267 S.o2    
  18 O18           -7.5379     5.1383     0.0878 O.2     
  19 O19           -6.4459     7.3340     0.4148 O.2     
  20 C20           -6.8171     6.4982    -2.0917 C.3     
  21 C21           -8.1386     7.1883    -2.3116 C.ar    
  22 C22           -8.2165     8.5686    -2.2541 C.ar    
  23 C23           -9.4299     9.2013    -2.4566 C.ar    
  24 C24          -10.5638     8.4544    -2.7161 C.ar    
  25 C25          -10.4854     7.0756    -2.7729 C.ar    
  26 C26           -9.2718     6.4429    -2.5763 C.ar    
  27 Cl27          -6.7923     9.5059    -1.9276 Cl      
  28 H28            1.4881    -1.3780     1.5980 H       
  29 H29            3.4132    -0.2748     0.4850 H       
  30 H30            3.1146     1.9500    -0.5290 H       
  31 H31           -0.5451     3.8933    -0.3270 H       
  32 H32           -1.7767     6.0568     0.2171 H       
  33 H33           -3.9700     7.1634     0.0690 H       
  34 H34           -5.8529     3.3777    -0.4944 H       
  35 H35           -3.6634     2.2621    -0.3576 H       
  36 H36           -6.0079     7.1482    -2.4248 H       
  37 H37           -6.7936     5.5684    -2.6601 H       
  38 H38           -9.4914    10.2786    -2.4115 H       
  39 H39          -11.5111     8.9483    -2.8742 H       
  40 H40          -11.3717     6.4925    -2.9750 H       
  41 H41           -9.2103     5.3658    -2.6252 H       
@<TRIPOS>BOND
   1    1    2 ar
   2    1    6 ar
   3    1    7 1
   4    2    3 ar
   5    2   10 1
   6    3    4 ar
   7    3   28 1
   8    4    5 ar
   9    4   29 1
  10    5    6 ar
  11    5   30 1
  12    7    8 2
  13    7    9 am
  14    9   11 1
  15    9   31 1
  16   11   12 ar
  17   11   16 ar
  18   12   13 ar
  19   12   32 1
  20   13   14 ar
  21   13   33 1
  22   14   15 ar
  23   14   17 1
  24   15   16 ar
  25   15   34 1
  26   16   35 1
  27   17   18 2
  28   17   19 2
  29   17   20 1
  30   20   21 1
  31   20   36 1
  32   20   37 1
  33   21   22 ar
  34   21   26 ar
  35   22   23 ar
  36   22   27 1
  37   23   24 ar
  38   23   38 1
  39   24   25 ar
  40   24   39 1
  41   25   26 ar
  42   25   40 1
  43   26   41 1

#	End of record

