#	Name: ASD09116148
#	Creating user name:	WinNT
#	Creation time:	15. 06. 2019 21:20

#	Modifying user name:	WinNT
#	Modification time:	15. 06. 2019 21:20

#	Program:	/corina/corina34_cracker 3.40 0067  02.08.2006

@<TRIPOS>MOLECULE
ASD09116148
  85   92    0    0    0
SMALL
NO_CHARGES


@<TRIPOS>ATOM
   1 N1            -0.1407     1.7808     0.6253 N.2     
   2 C2            -0.1674     0.3452     0.9568 C.3     
   3 C3             1.1179     2.1227     0.5688 C.2     
   4 N4             1.9515     1.0931     0.8217 N.2     
   5 C5             1.3015    -0.0148     1.0662 C.2     
   6 N6             1.5496     3.4017     0.2808 N.pl3   
   7 C7             2.9134     3.7135     0.3528 C.ar    
   8 C8             3.4479     4.6859    -0.4814 C.ar    
   9 C9             3.7294     3.0537     1.2627 C.ar    
  10 C10            5.0748     3.3615     1.3336 C.ar    
  11 C11            5.6106     4.3319     0.4934 C.ar    
  12 C12            4.7930     4.9938    -0.4115 C.ar    
  13 N13            1.8312    -1.2333     1.3570 N.pl3   
  14 C14           -0.8702     0.1158     2.2700 C.ar    
  15 C15           -1.4894     1.1776     2.8972 C.ar    
  16 N16           -0.8836    -1.1031     2.7931 N.ar    
  17 C17           -1.4809    -1.3353     3.9246 C.ar    
  18 C18           -2.1292    -0.3171     4.6335 C.ar    
  19 C19           -2.1450     0.9703     4.1207 C.ar    
  20 C20           -1.5660    -2.6809     4.6212 C.3     
  21 C21           -0.9696    -2.4732     6.0287 C.3     
  22 C22           -1.6777    -1.3017     6.7126 C.3     
  23 N23           -2.7172    -0.7382     5.8289 N.3     
  24 C24           -3.7199    -1.7819     5.5386 C.3     
  25 C25           -3.0688    -2.9662     4.8209 C.3     
  26 C26           -2.8190     2.0806     4.8360 C.ar    
  27 N27            6.9744     4.6451     0.5647 N.3     
  28 C28            7.6399     4.3935    -0.7199 C.3     
  29 C29            9.1475     4.6063    -0.5651 C.3     
  30 C30            9.4107     6.0429    -0.1054 C.3     
  31 C31            8.6672     6.2940     1.2094 C.3     
  32 C32            7.1735     6.0323     1.0032 C.3     
  33 N33           10.8522     6.2359     0.1012 N.3     
  34 F34            5.8691     2.7205     2.2186 F       
  35 C35           11.1463     7.6256     0.5365 C.3     
  36 C36           12.5305     7.5362     1.2143 C.3     
  37 C37           12.6630     6.0662     1.6627 C.3     
  38 C38           11.3478     5.3910     1.2182 C.3     
  39 C39           -2.1463     3.2813     5.0564 C.ar    
  40 C40           -4.1298     1.9296     5.2855 C.ar    
  41 C41           -4.7522     2.9665     5.9502 C.ar    
  42 C42           -4.0780     4.1542     6.1704 C.ar    
  43 C43           -2.7788     4.3114     5.7223 C.ar    
  44 C44           11.2024     8.5484    -0.6536 C.2     
  45 O45           11.4568     9.8546    -0.4786 O.3     
  46 O46           11.0184     8.1124    -1.7653 O.2     
  47 H47           -0.6472    -0.2243     0.1608 H       
  48 H48            0.9086     4.0847     0.0285 H       
  49 H49            2.8121     5.2017    -1.1857 H       
  50 H50            3.3125     2.3005     1.9150 H       
  51 H51            5.2089     5.7473    -1.0639 H       
  52 H52            2.7937    -1.3461     1.3996 H       
  53 H53            1.2466    -1.9895     1.5219 H       
  54 H54           -1.4694     2.1606     2.4502 H       
  55 H55           -1.0545    -3.4677     4.0667 H       
  56 H56           -1.1096    -3.3781     6.6200 H       
  57 H57            0.0950    -2.2551     5.9439 H       
  58 H58           -2.1409    -1.6507     7.6356 H       
  59 H59           -0.9472    -0.5276     6.9478 H       
  60 H60           -4.1614    -2.1265     6.4737 H       
  61 H61           -4.5019    -1.3631     4.9051 H       
  62 H62           -3.5438    -3.1089     3.8503 H       
  63 H63           -3.1911    -3.8673     5.4218 H       
  64 H64            7.4483     3.3672    -1.0334 H       
  65 H65            7.2513     5.0811    -1.4711 H       
  66 H66            9.5392     3.9095     0.1760 H       
  67 H67            9.6395     4.4347    -1.5225 H       
  68 H68            9.0541     6.7393    -0.8643 H       
  69 H69            9.0513     5.6238     1.9784 H       
  70 H70            8.8160     7.3282     1.5198 H       
  71 H71            6.7871     6.7122     0.2439 H       
  72 H72            6.6432     6.1964     1.9412 H       
  73 H73           10.3956     7.9677     1.2489 H       
  74 H74           13.3172     7.7875     0.5030 H       
  75 H75           12.5730     8.2006     2.0774 H       
  76 H76           13.5149     5.5959     1.1715 H       
  77 H77           12.7706     6.0090     2.7459 H       
  78 H78           10.6286     5.3834     2.0372 H       
  79 H79           11.5402     4.3760     0.8706 H       
  80 H80           -1.1319     3.4051     4.7071 H       
  81 H81           -4.6573     1.0030     5.1135 H       
  82 H82           -5.7678     2.8506     6.2989 H       
  83 H83           -4.5692     4.9631     6.6907 H       
  84 H84           -2.2571     5.2407     5.8973 H       
  85 H85           11.4828    10.4070    -1.2719 H       
@<TRIPOS>BOND
   1    1    2 1
   2    1    3 2
   3    2   14 1
   4    2    5 1
   5    2   47 1
   6    3    4 1
   7    3    6 1
   8    4    5 2
   9    5   13 1
  10    6    7 1
  11    6   48 1
  12    7    8 ar
  13    7    9 ar
  14    8   12 ar
  15    8   49 1
  16    9   10 ar
  17    9   50 1
  18   10   11 ar
  19   10   34 1
  20   11   12 ar
  21   11   27 1
  22   12   51 1
  23   13   52 1
  24   13   53 1
  25   14   15 ar
  26   14   16 ar
  27   15   19 ar
  28   15   54 1
  29   16   17 ar
  30   17   18 ar
  31   17   20 1
  32   18   19 ar
  33   18   23 1
  34   19   26 1
  35   20   21 1
  36   20   25 1
  37   20   55 1
  38   21   22 1
  39   21   56 1
  40   21   57 1
  41   22   23 1
  42   22   58 1
  43   22   59 1
  44   23   24 1
  45   24   25 1
  46   24   60 1
  47   24   61 1
  48   25   62 1
  49   25   63 1
  50   26   39 ar
  51   26   40 ar
  52   27   28 1
  53   27   32 1
  54   28   29 1
  55   28   64 1
  56   28   65 1
  57   29   30 1
  58   29   66 1
  59   29   67 1
  60   30   31 1
  61   30   33 1
  62   30   68 1
  63   31   32 1
  64   31   69 1
  65   31   70 1
  66   32   71 1
  67   32   72 1
  68   33   35 1
  69   33   38 1
  70   35   36 1
  71   35   44 1
  72   35   73 1
  73   36   37 1
  74   36   74 1
  75   36   75 1
  76   37   38 1
  77   37   76 1
  78   37   77 1
  79   38   78 1
  80   38   79 1
  81   39   43 ar
  82   39   80 1
  83   40   41 ar
  84   40   81 1
  85   41   42 ar
  86   41   82 1
  87   42   43 ar
  88   42   83 1
  89   43   84 1
  90   44   45 1
  91   44   46 2
  92   45   85 1

#	End of record

