#	Name: ASD00310314
#	Creating user name:	WinNT
#	Creation time:	15. 06. 2019 18:34

#	Modifying user name:	WinNT
#	Modification time:	15. 06. 2019 18:34

#	Program:	/corina/corina34_cracker 3.40 0067  02.08.2006

@<TRIPOS>MOLECULE
ASD00310314
  23   23    0    0    0
SMALL
NO_CHARGES


@<TRIPOS>ATOM
   1 C1            -0.0184     1.5028     0.0103 C.2     
   2 C2             0.0021    -0.0041     0.0020 C.3     
   3 O3             1.0236     2.1234     0.0037 O.2     
   4 N4            -1.1946     2.1607     0.0195 N.am    
   5 C5            -1.2145     3.6256     0.0275 C.3     
   6 O6             1.3556    -0.4620    -0.0134 O.3     
   7 C7             1.5520    -1.8069    -0.0225 C.ar    
   8 C8             2.8405    -2.3206    -0.0375 C.ar    
   9 C9             3.0379    -3.6878    -0.0468 C.ar    
  10 C10            1.9516    -4.5446    -0.0415 C.ar    
  11 C11            0.6658    -4.0343    -0.0265 C.ar    
  12 C12            0.4642    -2.6677    -0.0110 C.ar    
  13 Br13           2.2248    -6.4157    -0.0555 Br      
  14 H14           -0.4983    -0.3791     0.8948 H       
  15 H15           -0.5153    -0.3696    -0.8850 H       
  16 H16           -2.0280     1.6644     0.0207 H       
  17 H17           -2.2469     3.9749     0.0343 H       
  18 H18           -0.7014     3.9910     0.9171 H       
  19 H19           -0.7098     4.0007    -0.8628 H       
  20 H20            3.6887    -1.6522    -0.0424 H       
  21 H21            4.0408    -4.0882    -0.0585 H       
  22 H22           -0.1808    -4.7048    -0.0224 H       
  23 H23           -0.5397    -2.2698     0.0052 H       
@<TRIPOS>BOND
   1    1    2 1
   2    1    3 2
   3    1    4 am
   4    2    6 1
   5    2   14 1
   6    2   15 1
   7    4    5 1
   8    4   16 1
   9    5   17 1
  10    5   18 1
  11    5   19 1
  12    6    7 1
  13    7    8 ar
  14    7   12 ar
  15    8    9 ar
  16    8   20 1
  17    9   10 ar
  18    9   21 1
  19   10   11 ar
  20   10   13 1
  21   11   12 ar
  22   11   22 1
  23   12   23 1

#	End of record

