#	Name: ASD03731759
#	Creating user name:	WinNT
#	Creation time:	15. 06. 2019 20:46

#	Modifying user name:	WinNT
#	Modification time:	15. 06. 2019 20:46

#	Program:	/corina/corina34_cracker 3.40 0067  02.08.2006

@<TRIPOS>MOLECULE
ASD03731759
  37   38    0    0    0
SMALL
NO_CHARGES


@<TRIPOS>ATOM
   1 C1             0.3759     1.0882     1.9842 C.2     
   2 C2             0.2923    -0.2846     1.4566 C.ar    
   3 C3             1.3791    -0.8407     0.7652 C.ar    
   4 C4             1.2919    -2.1325     0.2723 C.ar    
   5 C5             0.1319    -2.8719     0.4633 C.ar    
   6 C6            -0.9458    -2.3205     1.1489 C.ar    
   7 C7            -0.8685    -1.0406     1.6479 C.ar    
   8 O8             1.3884     1.7418     1.8209 O.2     
   9 N9            -0.6717     1.6218     2.6432 N.am    
  10 S10           -0.5778     3.1651     3.2364 S.o2    
  11 O11           -1.8295     3.3712     3.8767 O.2     
  12 O12            0.6353     3.1829     3.9762 O.2     
  13 C13           -0.4383     4.2097     1.7600 C.3     
  14 O14            2.5114    -0.1157     0.5796 O.3     
  15 C15            3.5199    -0.2184     1.5868 C.3     
  16 O16            0.0491    -4.1373    -0.0212 O.3     
  17 C17           -1.1396    -4.7870     0.0908 C.ar    
  18 C18           -2.0931    -4.6676    -0.9099 C.ar    
  19 C19           -3.3007    -5.3285    -0.7947 C.ar    
  20 C20           -3.5597    -6.1096     0.3188 C.ar    
  21 C21           -2.6092    -6.2293     1.3185 C.ar    
  22 C22           -1.3983    -5.5746     1.2032 C.ar    
  23 F23           -4.7411    -6.7553     0.4301 F       
  24 F24            2.3352    -2.6729    -0.3947 F       
  25 H25           -1.8451    -2.9008     1.2936 H       
  26 H26           -1.7059    -0.6182     2.1834 H       
  27 H27           -1.4808     1.1019     2.7700 H       
  28 H28           -1.3170     4.0685     1.1306 H       
  29 H29           -0.3705     5.2555     2.0599 H       
  30 H30            0.4563     3.9330     1.2022 H       
  31 H31            3.1137     0.1123     2.5427 H       
  32 H32            3.8462    -1.2551     1.6698 H       
  33 H33            4.3689     0.4092     1.3161 H       
  34 H34           -1.8914    -4.0581    -1.7784 H       
  35 H35           -4.0432    -5.2355    -1.5734 H       
  36 H36           -2.8129    -6.8384     2.1868 H       
  37 H37           -0.6551    -5.6722     1.9807 H       
@<TRIPOS>BOND
   1    1    2 1
   2    1    8 2
   3    1    9 am
   4    2    3 ar
   5    2    7 ar
   6    3    4 ar
   7    3   14 1
   8    4    5 ar
   9    4   24 1
  10    5    6 ar
  11    5   16 1
  12    6    7 ar
  13    6   25 1
  14    7   26 1
  15    9   10 am
  16    9   27 1
  17   10   11 2
  18   10   12 2
  19   10   13 1
  20   13   28 1
  21   13   29 1
  22   13   30 1
  23   14   15 1
  24   15   31 1
  25   15   32 1
  26   15   33 1
  27   16   17 1
  28   17   18 ar
  29   17   22 ar
  30   18   19 ar
  31   18   34 1
  32   19   20 ar
  33   19   35 1
  34   20   21 ar
  35   20   23 1
  36   21   22 ar
  37   21   36 1
  38   22   37 1

#	End of record

