#	Name: ASD01915469
#	Creating user name:	WinNT
#	Creation time:	15. 06. 2019 20:05

#	Modifying user name:	WinNT
#	Modification time:	15. 06. 2019 20:05

#	Program:	/corina/corina34_cracker 3.40 0067  02.08.2006

@<TRIPOS>MOLECULE
ASD01915469
  53   56    0    0    0
SMALL
NO_CHARGES


@<TRIPOS>ATOM
   1 C1            -0.0167     1.3780     0.0096 C.ar    
   2 C2             0.0021    -0.0041     0.0020 C.ar    
   3 C3             1.2080    -0.6794    -0.0131 C.ar    
   4 C4             2.3969     0.0266    -0.0202 C.ar    
   5 C5             2.3806     1.4083    -0.0122 C.ar    
   6 C6             1.1730     2.0859     0.0021 C.ar    
   7 F7             1.1559     3.4368     0.0095 F       
   8 C8             3.7109    -0.7111    -0.0362 C.3     
   9 O9             4.1138    -0.9370    -1.3885 O.3     
  10 C10            5.2835    -1.5937    -1.5803 C.ar    
  11 C11            5.7235    -1.8404    -2.8769 C.ar    
  12 N12            5.9898    -1.9843    -0.5297 N.ar    
  13 C13            7.1312    -2.6247    -0.6645 C.ar    
  14 C14            7.6319    -2.9133    -1.9365 C.ar    
  15 C15            6.9166    -2.5110    -3.0676 C.ar    
  16 C16            7.9198    -3.0575     0.5445 C.3     
  17 C17            8.6284    -4.3790     0.2577 C.3     
  18 N18            9.3880    -4.3080    -0.9877 N.am    
  19 C19            8.9128    -3.6354    -2.0556 C.2     
  20 O20            9.5315    -3.6244    -3.1022 O.2     
  21 C21           10.6878    -4.9778    -1.0781 C.3     
  22 C22           10.4923    -6.3896    -1.5676 C.ar    
  23 C23           10.5181    -6.6597    -2.9231 C.ar    
  24 C24           10.3392    -7.9533    -3.3745 C.ar    
  25 C25           10.1335    -8.9813    -2.4662 C.ar    
  26 C26           10.1081    -8.7076    -1.1062 C.ar    
  27 C27           10.2931    -7.4136    -0.6598 C.ar    
  28 O28            9.9569   -10.2544    -2.9077 O.3     
  29 C29            9.9948   -10.4621    -4.3210 C.3     
  30 C30            9.8849    -9.8221    -0.1167 C.3     
  31 F31            9.9008    -9.3026     1.1822 F       
  32 F32            8.6460   -10.4234    -0.3633 F       
  33 F33           10.9006   -10.7748    -0.2504 F       
  34 H34           -0.9591     1.9054     0.0169 H       
  35 H35           -0.9259    -0.5565     0.0083 H       
  36 H36            1.2217    -1.7592    -0.0191 H       
  37 H37            3.3093     1.9595    -0.0170 H       
  38 H38            4.4681    -0.1157     0.4739 H       
  39 H39            3.5967    -1.6678     0.4735 H       
  40 H40            5.1395    -1.5121    -3.7240 H       
  41 H41            7.2833    -2.7216    -4.0614 H       
  42 H42            8.6602    -2.2947     0.7858 H       
  43 H43            7.2446    -3.1850     1.3906 H       
  44 H44            9.3081    -4.6061     1.0789 H       
  45 H45            7.8860    -5.1732     0.1790 H       
  46 H46           11.3276    -4.4368    -1.7752 H       
  47 H47           11.1563    -4.9960    -0.0941 H       
  48 H48           10.6779    -5.8589    -3.6299 H       
  49 H49           10.3591    -8.1637    -4.4336 H       
  50 H50           10.2734    -7.2000     0.3987 H       
  51 H51            9.8406   -11.5192    -4.5372 H       
  52 H52            9.2081    -9.8756    -4.7957 H       
  53 H53           10.9647   -10.1498    -4.7083 H       
@<TRIPOS>BOND
   1    1    2 ar
   2    1    6 ar
   3    1   34 1
   4    2    3 ar
   5    2   35 1
   6    3    4 ar
   7    3   36 1
   8    4    5 ar
   9    4    8 1
  10    5    6 ar
  11    5   37 1
  12    6    7 1
  13    8    9 1
  14    8   38 1
  15    8   39 1
  16    9   10 1
  17   10   11 ar
  18   10   12 ar
  19   11   15 ar
  20   11   40 1
  21   12   13 ar
  22   13   14 ar
  23   13   16 1
  24   14   15 ar
  25   14   19 1
  26   15   41 1
  27   16   17 1
  28   16   42 1
  29   16   43 1
  30   17   18 1
  31   17   44 1
  32   17   45 1
  33   18   19 am
  34   18   21 1
  35   19   20 2
  36   21   22 1
  37   21   46 1
  38   21   47 1
  39   22   23 ar
  40   22   27 ar
  41   23   24 ar
  42   23   48 1
  43   24   25 ar
  44   24   49 1
  45   25   26 ar
  46   25   28 1
  47   26   27 ar
  48   26   30 1
  49   27   50 1
  50   28   29 1
  51   29   51 1
  52   29   52 1
  53   29   53 1
  54   30   31 1
  55   30   32 1
  56   30   33 1

#	End of record

