#	Name: ASD03180019
#	Creating user name:	WinNT
#	Creation time:	15. 06. 2019 20:33

#	Modifying user name:	WinNT
#	Modification time:	15. 06. 2019 20:33

#	Program:	/corina/corina34_cracker 3.40 0067  02.08.2006

@<TRIPOS>MOLECULE
ASD03180019
  51   53    0    0    0
SMALL
NO_CHARGES


@<TRIPOS>ATOM
   1 C1             7.4426     3.6369     1.7850 C.ar    
   2 C2             7.2008     4.9766     2.0318 C.ar    
   3 C3             5.9913     5.5397     1.6652 C.ar    
   4 C4             5.0255     4.7636     1.0527 C.ar    
   5 C5             5.2677     3.4250     0.8064 C.ar    
   6 C6             6.4760     2.8619     1.1725 C.ar    
   7 S7             4.0357     2.4362     0.0260 S.o2    
   8 O8             2.7828     3.0146     0.3652 O.2     
   9 N9             4.2135     2.6313    -1.6088 N.am    
  10 O10            4.3690     1.0838     0.3074 O.2     
  11 C11            3.4080     3.6274    -2.3195 C.3     
  12 C12            5.1763     1.8077    -2.3443 C.3     
  13 C13            4.4585     0.6490    -2.9871 C.ar    
  14 C14            4.1901     4.9095    -2.4445 C.2     
  15 N15            3.6450     5.9734    -3.0668 N.am    
  16 C16            4.4065     7.1317    -3.2707 C.ar    
  17 O17            5.3102     4.9838    -1.9851 O.2     
  18 C18            4.0082     0.7518    -4.2900 C.ar    
  19 C19            3.3497    -0.3111    -4.8795 C.ar    
  20 C20            3.1420    -1.4769    -4.1664 C.ar    
  21 C21            3.5931    -1.5800    -2.8638 C.ar    
  22 C22            4.2554    -0.5187    -2.2756 C.ar    
  23 C23            4.2298     7.8852    -4.4235 C.ar    
  24 C24            4.9803     9.0269    -4.6236 C.ar    
  25 C25            5.9107     9.4212    -3.6731 C.ar    
  26 C26            6.0881     8.6686    -2.5214 C.ar    
  27 C27            5.3342     7.5298    -2.3174 C.ar    
  28 O28            6.6493    10.5455    -3.8708 O.3     
  29 C29            7.5885    10.8922    -2.8511 C.3     
  30 Cl30           8.4142     5.9506     2.8016 Cl      
  31 H31            8.3882     3.1979     2.0669 H       
  32 H32            5.8019     6.5853     1.8579 H       
  33 H33            4.0812     5.2029     0.7668 H       
  34 H34            6.6646     1.8161     0.9798 H       
  35 H35            3.1619     3.2536    -3.3134 H       
  36 H36            2.4891     3.8150    -1.7641 H       
  37 H37            5.6560     2.4108    -3.1153 H       
  38 H38            5.9322     1.4301    -1.6557 H       
  39 H39            2.7255     5.9373    -3.3735 H       
  40 H40            4.1705     1.6626    -4.8471 H       
  41 H41            2.9972    -0.2306    -5.8972 H       
  42 H42            2.6269    -2.3071    -4.6267 H       
  43 H43            3.4305    -2.4907    -2.3065 H       
  44 H44            4.6111    -0.6006    -1.2592 H       
  45 H45            3.5058     7.5781    -5.1637 H       
  46 H46            4.8432     9.6128    -5.5204 H       
  47 H47            6.8131     8.9758    -1.7821 H       
  48 H48            5.4690     6.9467    -1.4184 H       
  49 H49            7.0615    11.0497    -1.9101 H       
  50 H50            8.3107    10.0845    -2.7324 H       
  51 H51            8.1098    11.8071    -3.1331 H       
@<TRIPOS>BOND
   1    1    2 ar
   2    1    6 ar
   3    1   31 1
   4    2    3 ar
   5    2   30 1
   6    3    4 ar
   7    3   32 1
   8    4    5 ar
   9    4   33 1
  10    5    6 ar
  11    5    7 1
  12    6   34 1
  13    7    8 2
  14    7    9 am
  15    7   10 2
  16    9   11 1
  17    9   12 1
  18   11   14 1
  19   11   35 1
  20   11   36 1
  21   12   13 1
  22   12   37 1
  23   12   38 1
  24   13   18 ar
  25   13   22 ar
  26   14   15 am
  27   14   17 2
  28   15   16 1
  29   15   39 1
  30   16   23 ar
  31   16   27 ar
  32   18   19 ar
  33   18   40 1
  34   19   20 ar
  35   19   41 1
  36   20   21 ar
  37   20   42 1
  38   21   22 ar
  39   21   43 1
  40   22   44 1
  41   23   24 ar
  42   23   45 1
  43   24   25 ar
  44   24   46 1
  45   25   26 ar
  46   25   28 1
  47   26   27 ar
  48   26   47 1
  49   27   48 1
  50   28   29 1
  51   29   49 1
  52   29   50 1
  53   29   51 1

#	End of record

