#	Name: ASD04590190
#	Creating user name:	WinNT
#	Creation time:	15. 06. 2019 20:50

#	Modifying user name:	WinNT
#	Modification time:	15. 06. 2019 20:50

#	Program:	/corina/corina34_cracker 3.40 0067  02.08.2006

@<TRIPOS>MOLECULE
ASD04590190
  48   50    0    0    0
SMALL
NO_CHARGES


@<TRIPOS>ATOM
   1 N1            -0.0153     1.2802     0.0091 N.pl3   
   2 N2             0.0021    -0.0041     0.0020 N.2     
   3 C3             1.2456    -0.4440    -0.0122 C.2     
   4 C4             2.0903     0.6961    -0.0142 C.2     
   5 C5             1.2523     1.7667    -0.0004 C.2     
   6 C6             1.6765    -1.8546    -0.0235 C.2     
   7 N7             0.7571    -2.8402    -0.0200 N.am    
   8 N8             3.4930     0.7146    -0.0271 N.am    
   9 O9             2.8611    -2.1284    -0.0359 O.2     
  10 C10            4.1514     1.8906    -0.0271 C.2     
  11 C11            5.6250     1.9101    -0.0406 C.ar    
  12 O12            3.5295     2.9358    -0.0159 O.2     
  13 C13            1.1851    -4.2412    -0.0312 C.3     
  14 C14            0.0782    -5.1078    -0.6351 C.3     
  15 C15            0.5252    -6.5710    -0.6468 C.3     
  16 C16            0.8077    -7.0294     0.7853 C.3     
  17 C17            1.9146    -6.1628     1.3892 C.3     
  18 C18            1.4677    -4.6996     1.4009 C.3     
  19 O19           -0.3797    -6.9003     1.5698 O.3     
  20 C20            6.3416     1.9132     1.1644 C.ar    
  21 C21            7.7275     1.9311     1.1399 C.ar    
  22 C22            8.4001     1.9463    -0.0666 C.ar    
  23 C23            7.6992     1.9433    -1.2602 C.ar    
  24 C24            6.3181     1.9198    -1.2566 C.ar    
  25 F25            5.6379     1.9165    -2.4239 F       
  26 O26            5.6815     1.8991     2.3494 O.3     
  27 C27            6.4780     1.9033     3.5358 C.3     
  28 H28           -0.8184     1.8242     0.0160 H       
  29 H29            1.5406     2.8076     0.0024 H       
  30 H30           -0.1879    -2.6218    -0.0102 H       
  31 H31            3.9890    -0.1189    -0.0359 H       
  32 H32            2.0909    -4.3397    -0.6296 H       
  33 H33           -0.8275    -5.0094    -0.0367 H       
  34 H34           -0.1231    -4.7812    -1.6554 H       
  35 H35           -0.2634    -7.1884    -1.0770 H       
  36 H36            1.4309    -6.6695    -1.2451 H       
  37 H37            1.1262    -8.0718     0.7770 H       
  38 H38            2.1159    -6.4894     2.4095 H       
  39 H39            2.8204    -6.2613     0.7908 H       
  40 H40            2.2562    -4.0822     1.8311 H       
  41 H41            0.5619    -4.6012     1.9993 H       
  42 H42           -0.2740    -7.1738     2.4913 H       
  43 H43            8.2827     1.9335     2.0662 H       
  44 H44            9.4800     1.9609    -0.0787 H       
  45 H45            8.2345     1.9557    -2.1982 H       
  46 H46            7.1182     1.0212     3.5468 H       
  47 H47            7.0960     2.8010     3.5554 H       
  48 H48            5.8274     1.8909     4.4103 H       
@<TRIPOS>BOND
   1    1    2 1
   2    1    5 1
   3    1   28 1
   4    2    3 2
   5    3    4 1
   6    3    6 1
   7    4    5 2
   8    4    8 1
   9    5   29 1
  10    6    7 am
  11    6    9 2
  12    7   13 1
  13    7   30 1
  14    8   10 am
  15    8   31 1
  16   10   11 1
  17   10   12 2
  18   11   20 ar
  19   11   24 ar
  20   13   14 1
  21   13   18 1
  22   13   32 1
  23   14   15 1
  24   14   33 1
  25   14   34 1
  26   15   16 1
  27   15   35 1
  28   15   36 1
  29   16   17 1
  30   16   19 1
  31   16   37 1
  32   17   18 1
  33   17   38 1
  34   17   39 1
  35   18   40 1
  36   18   41 1
  37   19   42 1
  38   20   21 ar
  39   20   26 1
  40   21   22 ar
  41   21   43 1
  42   22   23 ar
  43   22   44 1
  44   23   24 ar
  45   23   45 1
  46   24   25 1
  47   26   27 1
  48   27   46 1
  49   27   47 1
  50   27   48 1

#	End of record

