#	Name: ASD01916536
#	Creating user name:	WinNT
#	Creation time:	15. 06. 2019 20:07

#	Modifying user name:	WinNT
#	Modification time:	15. 06. 2019 20:07

#	Program:	/corina/corina34_cracker 3.40 0067  02.08.2006

@<TRIPOS>MOLECULE
ASD01916536
  44   47    0    0    0
SMALL
NO_CHARGES


@<TRIPOS>ATOM
   1 C1            -0.0171     1.4108     0.0098 C.ar    
   2 C2             0.0021    -0.0041     0.0020 C.ar    
   3 C3            -1.1918    -0.7261     0.0414 C.ar    
   4 C4            -2.3839    -0.0654     0.0741 C.ar    
   5 C5            -2.4218     1.3384     0.0663 C.ar    
   6 C6            -1.2395     2.0769     0.0357 C.ar    
   7 N7             1.1601     2.0762     0.0021 N.2     
   8 C8             2.3197     1.4680    -0.0398 C.2     
   9 N9             2.4191     0.1197    -0.1576 N.am    
  10 C10            1.3092    -0.6623    -0.0625 C.2     
  11 C11           -3.6831     2.0160     0.0900 C.1     
  12 O12            1.4003    -1.8761    -0.0314 O.2     
  13 C13           -4.7172     2.5715     0.1095 C.1     
  14 C14           -5.9785     3.2490     0.1332 C.2     
  15 C15            3.5361     2.3447     0.1019 C.3     
  16 C16            4.7922     1.6915    -0.4311 C.3     
  17 C17            4.8957     0.2350    -0.0274 C.3     
  18 C18            3.6783    -0.5623    -0.4372 C.3     
  19 S19           -6.2220     4.9942     0.1278 S.3     
  20 C20           -7.9159     4.7699     0.1660 C.2     
  21 N21           -8.2083     3.5117     0.1800 N.2     
  22 C22           -7.2113     2.6586     0.1580 C.2     
  23 C23            6.1336    -0.3757    -0.6873 C.3     
  24 C24            5.0547     0.1516     1.4920 C.3     
  25 C25           -8.9286     5.8858     0.1811 C.3     
  26 H26           -1.1713    -1.8059     0.0456 H       
  27 H27           -3.3064    -0.6261     0.1060 H       
  28 H28           -1.2716     3.1564     0.0320 H       
  29 H29            3.3652     3.2742    -0.4413 H       
  30 H30            3.6811     2.5777     1.1568 H       
  31 H31            4.7909     1.7578    -1.5191 H       
  32 H32            5.6600     2.2276    -0.0468 H       
  33 H33            3.6870    -1.5128     0.0964 H       
  34 H34            3.7365    -0.7643    -1.5067 H       
  35 H35           -7.3518     1.5879     0.1668 H       
  36 H36            7.0231     0.1618    -0.3585 H       
  37 H37            6.2170    -1.4246    -0.4027 H       
  38 H38            6.0428    -0.2993    -1.7708 H       
  39 H39            4.1891     0.6066     1.9735 H       
  40 H40            5.1301    -0.8934     1.7926 H       
  41 H41            5.9582     0.6822     1.7924 H       
  42 H42           -9.1951     6.1486    -0.8426 H       
  43 H43           -9.8204     5.5599     0.7165 H       
  44 H44           -8.5028     6.7561     0.6806 H       
@<TRIPOS>BOND
   1    1    2 ar
   2    1    7 1
   3    1    6 ar
   4    2    3 ar
   5    2   10 1
   6    3    4 ar
   7    3   26 1
   8    4    5 ar
   9    4   27 1
  10    5    6 ar
  11    5   11 1
  12    6   28 1
  13    7    8 2
  14    8    9 1
  15    8   15 1
  16    9   10 am
  17    9   18 1
  18   10   12 2
  19   11   13 3
  20   13   14 1
  21   14   19 1
  22   14   22 2
  23   15   16 1
  24   15   29 1
  25   15   30 1
  26   16   17 1
  27   16   31 1
  28   16   32 1
  29   17   18 1
  30   17   23 1
  31   17   24 1
  32   18   33 1
  33   18   34 1
  34   19   20 1
  35   20   21 2
  36   20   25 1
  37   21   22 1
  38   22   35 1
  39   23   36 1
  40   23   37 1
  41   23   38 1
  42   24   39 1
  43   24   40 1
  44   24   41 1
  45   25   42 1
  46   25   43 1
  47   25   44 1

#	End of record

