#	Name: ASD01811769
#	Creating user name:	WinNT
#	Creation time:	15. 06. 2019 19:27

#	Modifying user name:	WinNT
#	Modification time:	15. 06. 2019 19:27

#	Program:	/corina/corina34_cracker 3.40 0067  02.08.2006

@<TRIPOS>MOLECULE
ASD01811769
  58   62    0    0    0
SMALL
NO_CHARGES


@<TRIPOS>ATOM
   1 C1            -0.0222     1.3656     0.0068 C.ar    
   2 C2            -0.0340    -0.0273     0.0124 C.ar    
   3 C3            -1.2422    -0.7128    -0.0127 C.ar    
   4 C4            -2.4329    -0.0213    -0.0433 C.ar    
   5 C5            -2.4280     1.3764    -0.0485 C.ar    
   6 C6            -1.2084     2.0603    -0.0179 C.ar    
   7 F7             1.1525     2.0326     0.0313 F       
   8 O8             1.1359    -0.7156     0.0420 O.3     
   9 C9             1.7258    -0.9374     1.3245 C.3     
  10 C10           -3.5144     2.3710    -0.0778 C.2     
  11 N11           -3.0085     3.6162    -0.0708 N.am    
  12 C12           -1.5441     3.5307    -0.0327 C.3     
  13 C13           -1.2498    -2.2198    -0.0071 C.3     
  14 C14           -1.1158    -2.7281    -1.4194 C.ar    
  15 C15            0.1289    -3.0728    -1.9135 C.ar    
  16 C16            0.2550    -3.5385    -3.2076 C.ar    
  17 C17           -0.8696    -3.6609    -4.0125 C.ar    
  18 C18           -2.1181    -3.3145    -3.5135 C.ar    
  19 C19           -2.2385    -2.8542    -2.2168 C.ar    
  20 N20           -0.7448    -4.1329    -5.3266 N.pl3   
  21 C21           -1.7536    -4.2991    -6.2117 C.2     
  22 C22           -1.2187    -4.7712    -7.3616 C.2     
  23 C23            0.1621    -4.8981    -7.1742 C.2     
  24 N24            0.4478    -4.5102    -5.9573 N.2     
  25 O25           -4.7002     2.1035    -0.1048 O.2     
  26 C26           -3.7904     4.8548    -0.0943 C.3     
  27 C27           -4.7015     4.9062     1.1338 C.3     
  28 C28           -5.5182     6.1998     1.1092 C.3     
  29 C29           -6.3709     6.2406    -0.1605 C.3     
  30 C30           -5.4597     6.1892    -1.3886 C.3     
  31 C31           -4.6431     4.8956    -1.3640 C.3     
  32 O32           -3.9051     4.8681     2.3196 O.3     
  33 H33           -3.3695    -0.5586    -0.0634 H       
  34 H34            2.6050    -1.5724     1.2151 H       
  35 H35            2.0195     0.0179     1.7595 H       
  36 H36            1.0030    -1.4270     1.9771 H       
  37 H37           -1.1640     4.0115     0.8686 H       
  38 H38           -1.1181     4.0029    -0.9180 H       
  39 H39           -0.4152    -2.5851     0.5913 H       
  40 H40           -2.1869    -2.5767     0.4201 H       
  41 H41            1.0033    -2.9774    -1.2869 H       
  42 H42            1.2275    -3.8069    -3.5932 H       
  43 H43           -2.9946    -3.4083    -4.1374 H       
  44 H44           -3.2093    -2.5846    -1.8280 H       
  45 H45           -2.7985    -4.0928    -6.0328 H       
  46 H46           -1.7618    -5.0083    -8.2645 H       
  47 H47            0.8707    -5.2510    -7.9088 H       
  48 H48           -3.1157     5.7108    -0.0822 H       
  49 H49           -5.3763     4.0503     1.1216 H       
  50 H50           -6.1673     6.2364     1.9841 H       
  51 H51           -4.8434     7.0557     1.1213 H       
  52 H52           -7.0456     5.3847    -0.1727 H       
  53 H53           -6.9526     7.1622    -0.1781 H       
  54 H54           -6.0672     6.2183    -2.2932 H       
  55 H55           -4.7850     7.0451    -1.3765 H       
  56 H56           -3.9940     4.8590    -2.2389 H       
  57 H57           -5.3179     4.0397    -1.3762 H       
  58 H58           -4.4180     4.8974     3.1389 H       
@<TRIPOS>BOND
   1    1    2 ar
   2    1    7 1
   3    1    6 ar
   4    2    3 ar
   5    2    8 1
   6    3    4 ar
   7    3   13 1
   8    4    5 ar
   9    4   33 1
  10    5    6 ar
  11    5   10 1
  12    6   12 1
  13    8    9 1
  14    9   34 1
  15    9   35 1
  16    9   36 1
  17   10   11 am
  18   10   25 2
  19   11   12 1
  20   11   26 1
  21   12   37 1
  22   12   38 1
  23   13   14 1
  24   13   39 1
  25   13   40 1
  26   14   15 ar
  27   14   19 ar
  28   15   16 ar
  29   15   41 1
  30   16   17 ar
  31   16   42 1
  32   17   18 ar
  33   17   20 1
  34   18   19 ar
  35   18   43 1
  36   19   44 1
  37   20   21 1
  38   20   24 1
  39   21   22 2
  40   21   45 1
  41   22   23 1
  42   22   46 1
  43   23   24 2
  44   23   47 1
  45   26   27 1
  46   26   31 1
  47   26   48 1
  48   27   28 1
  49   27   32 1
  50   27   49 1
  51   28   29 1
  52   28   50 1
  53   28   51 1
  54   29   30 1
  55   29   52 1
  56   29   53 1
  57   30   31 1
  58   30   54 1
  59   30   55 1
  60   31   56 1
  61   31   57 1
  62   32   58 1

#	End of record

