#	Name: ASD01901335
#	Creating user name:	WinNT
#	Creation time:	15. 06. 2019 19:53

#	Modifying user name:	WinNT
#	Modification time:	15. 06. 2019 19:53

#	Program:	/corina/corina34_cracker 3.40 0067  02.08.2006

@<TRIPOS>MOLECULE
ASD01901335
  41   44    0    0    0
SMALL
NO_CHARGES


@<TRIPOS>ATOM
   1 C1            -0.0168     1.3873     0.0097 C.ar    
   2 N2             1.1079     2.0751     0.0026 N.ar    
   3 C3             2.2886     1.4791    -0.0118 C.ar    
   4 C4             2.3882     0.0928    -0.0202 C.ar    
   5 C5             1.2340    -0.6667    -0.0132 C.ar    
   6 C6             0.0021    -0.0041     0.0020 C.ar    
   7 C7            -1.2668    -0.7742     0.0104 C.2     
   8 N8            -2.7256    -2.2642     1.1178 N.2     
   9 C9            -1.6038    -1.5865     1.1148 C.2     
  10 C10           -2.1280    -0.7024    -1.0484 C.2     
  11 N11           -3.2855    -1.4223    -1.0082 N.pl3   
  12 C12           -3.5743    -2.2040     0.0807 C.2     
  13 C13           -4.3243    -1.5566    -1.8894 C.2     
  14 C14           -5.2127    -2.4047    -1.3291 C.2     
  15 N15           -4.7438    -2.7883    -0.1380 N.2     
  16 C16           -6.5154    -2.8462    -1.9448 C.3     
  17 O17           -6.6720    -2.2272    -3.2232 O.3     
  18 C18           -7.8029    -2.5217    -3.9169 C.ar    
  19 C19           -8.7452    -3.3842    -3.3758 C.ar    
  20 C20           -8.0196    -1.9560    -5.1650 C.ar    
  21 C21           -9.1700    -2.2570    -5.8681 C.ar    
  22 C22          -10.1051    -3.1209    -5.3289 C.ar    
  23 C23           -9.8939    -3.6820    -4.0829 C.ar    
  24 O24            3.4178     2.2313    -0.0190 O.3     
  25 C25            3.2521     3.6506    -0.0103 C.3     
  26 H26           -0.9623     1.9090     0.0260 H       
  27 H27            3.3565    -0.3853    -0.0323 H       
  28 H28            1.2817    -1.7456    -0.0198 H       
  29 H29           -0.9347    -1.6500     1.9602 H       
  30 H30           -1.8957    -0.0848    -1.9034 H       
  31 H31           -4.4160    -1.0746    -2.8516 H       
  32 H32           -6.5122    -3.9297    -2.0637 H       
  33 H33           -7.3412    -2.5542    -1.2961 H       
  34 H34           -8.5806    -3.8227    -2.4026 H       
  35 H35           -7.2898    -1.2805    -5.5863 H       
  36 H36           -9.3392    -1.8168    -6.8397 H       
  37 H37          -11.0042    -3.3544    -5.8799 H       
  38 H38          -10.6278    -4.3534    -3.6621 H       
  39 H39            2.6909     3.9563    -0.8934 H       
  40 H40            2.7082     3.9474     0.8865 H       
  41 H41            4.2306     4.1307    -0.0174 H       
@<TRIPOS>BOND
   1    1    6 ar
   2    1    2 ar
   3    1   26 1
   4    2    3 ar
   5    3    4 ar
   6    3   24 1
   7    4    5 ar
   8    4   27 1
   9    5    6 ar
  10    5   28 1
  11    6    7 1
  12    7   10 2
  13    7    9 1
  14    8    9 2
  15    8   12 1
  16    9   29 1
  17   10   11 1
  18   10   30 1
  19   11   13 1
  20   11   12 1
  21   12   15 2
  22   13   14 2
  23   13   31 1
  24   14   15 1
  25   14   16 1
  26   16   17 1
  27   16   32 1
  28   16   33 1
  29   17   18 1
  30   18   20 ar
  31   18   19 ar
  32   19   23 ar
  33   19   34 1
  34   20   21 ar
  35   20   35 1
  36   21   22 ar
  37   21   36 1
  38   22   23 ar
  39   22   37 1
  40   23   38 1
  41   24   25 1
  42   25   39 1
  43   25   40 1
  44   25   41 1

#	End of record

