#	Name: ASD03180077
#	Creating user name:	WinNT
#	Creation time:	15. 06. 2019 20:33

#	Modifying user name:	WinNT
#	Modification time:	15. 06. 2019 20:33

#	Program:	/corina/corina34_cracker 3.40 0067  02.08.2006

@<TRIPOS>MOLECULE
ASD03180077
  37   39    0    0    0
SMALL
NO_CHARGES


@<TRIPOS>ATOM
   1 C1            -1.2694    -2.9503     3.1923 C.3     
   2 C2            -1.1084    -2.6072     1.7337 C.ar    
   3 C3            -1.3904    -3.5493     0.7709 C.ar    
   4 C4            -1.2411    -3.2300    -0.5822 C.ar    
   5 C5            -0.8058    -1.9541    -0.9520 C.ar    
   6 C6            -0.5256    -1.0168     0.0165 C.ar    
   7 C7            -0.6803    -1.3363     1.3618 C.ar    
   8 N8            -0.4007    -0.3829     2.3396 N.am    
   9 C9            -1.4685     0.4480     2.9149 C.3     
  10 S10           -0.5444     1.8216     3.7110 S.3     
  11 C11            1.0235     0.8714     3.8384 C.3     
  12 C12            0.8372    -0.2012     2.7839 C.2     
  13 O13            1.7688    -0.8556     2.3659 O.2     
  14 C14           -2.3757     0.9736     1.8324 C.ar    
  15 C15           -1.8486     1.7039     0.7837 C.ar    
  16 C16           -2.6795     2.1864    -0.2095 C.ar    
  17 C17           -4.0405     1.9377    -0.1542 C.ar    
  18 F18           -4.8538     2.4085    -1.1249 F       
  19 C19           -4.5673     1.2057     0.8964 C.ar    
  20 C20           -3.7337     0.7201     1.8859 C.ar    
  21 C21           -1.5418    -4.2369    -1.6167 C.2     
  22 O22           -1.3975    -3.9275    -2.9203 O.3     
  23 O23           -1.9197    -5.3456    -1.2938 O.2     
  24 H24           -2.3036    -2.7828     3.4929 H       
  25 H25           -1.0102    -3.9972     3.3500 H       
  26 H26           -0.6108    -2.3190     3.7888 H       
  27 H27           -1.7262    -4.5342     1.0601 H       
  28 H28           -0.6891    -1.7042    -1.9962 H       
  29 H29           -0.1892    -0.0308    -0.2684 H       
  30 H30           -2.0368    -0.1141     3.6559 H       
  31 H31            1.8804     1.5035     3.6053 H       
  32 H32            1.1272     0.4246     4.8273 H       
  33 H33           -0.7870     1.8978     0.7408 H       
  34 H34           -2.2676     2.7576    -1.0284 H       
  35 H35           -5.6287     1.0114     0.9407 H       
  36 H36           -4.1438     0.1456     2.7034 H       
  37 H37           -1.6066    -4.6202    -3.5617 H       
@<TRIPOS>BOND
   1    1    2 1
   2    1   24 1
   3    1   25 1
   4    1   26 1
   5    2    7 ar
   6    2    3 ar
   7    3    4 ar
   8    3   27 1
   9    4    5 ar
  10    4   21 1
  11    5    6 ar
  12    5   28 1
  13    6    7 ar
  14    6   29 1
  15    7    8 1
  16    8   12 am
  17    8    9 1
  18    9   10 1
  19    9   14 1
  20    9   30 1
  21   10   11 1
  22   11   12 1
  23   11   31 1
  24   11   32 1
  25   12   13 2
  26   14   20 ar
  27   14   15 ar
  28   15   16 ar
  29   15   33 1
  30   16   17 ar
  31   16   34 1
  32   17   18 1
  33   17   19 ar
  34   19   20 ar
  35   19   35 1
  36   20   36 1
  37   21   22 1
  38   21   23 2
  39   22   37 1

#	End of record

