#	Name: ASD01817038
#	Creating user name:	WinNT
#	Creation time:	15. 06. 2019 19:36

#	Modifying user name:	WinNT
#	Modification time:	15. 06. 2019 19:36

#	Program:	/corina/corina34_cracker 3.40 0067  02.08.2006

@<TRIPOS>MOLECULE
ASD01817038
  47   49    0    0    0
SMALL
NO_CHARGES


@<TRIPOS>ATOM
   1 C1            -0.0167     1.3769     0.0096 C.ar    
   2 C2             0.0021    -0.0041     0.0020 C.ar    
   3 C3             1.2151    -0.6852    -0.0128 C.ar    
   4 C4             2.4202     0.0408    -0.0205 C.ar    
   5 C5             2.3829     1.4380    -0.0131 C.ar    
   6 C6             1.1663     2.0949     0.0022 C.ar    
   7 C7             1.2377    -2.1669    -0.0200 C.ar    
   8 C8             0.4824    -2.8826     0.9075 C.ar    
   9 C9             0.5072    -4.2637     0.8955 C.ar    
  10 C10            1.2803    -4.9361    -0.0353 C.ar    
  11 C11            2.0319    -4.2302    -0.9575 C.ar    
  12 C12            2.0103    -2.8505    -0.9585 C.ar    
  13 Cl13          -0.4321    -5.1574     2.0499 Cl      
  14 C14            3.7137    -0.6675    -0.0357 C.2     
  15 N15            4.3154    -0.9966     1.1245 N.am    
  16 F16            3.5338     2.1456    -0.0203 F       
  17 O17            4.2372    -0.9545    -1.0950 O.2     
  18 C18            5.6003    -1.7002     1.1093 C.3     
  19 C19            6.0609    -1.9519     2.5465 C.3     
  20 C20            5.0843    -2.9081     3.2367 C.3     
  21 C21            5.5828    -3.2040     4.6531 C.3     
  22 N22            6.9206    -3.8059     4.5867 N.3     
  23 C23            7.8862    -2.8871     3.9704 C.3     
  24 C24            7.4565    -2.5818     2.5337 C.3     
  25 C25            8.4509    -1.6074     1.8992 C.3     
  26 F26            6.1001    -0.7398     3.2440 F       
  27 H27           -0.9614     1.9002     0.0169 H       
  28 H28           -0.9262    -0.5560     0.0080 H       
  29 H29            1.1391     3.1746     0.0075 H       
  30 H30           -0.1207    -2.3585     1.6342 H       
  31 H31            1.2970    -6.0160    -0.0414 H       
  32 H32            2.6338    -4.7601    -1.6809 H       
  33 H33            2.5974    -2.3009    -1.6793 H       
  34 H34            3.8978    -0.7677     1.9695 H       
  35 H35            5.4868    -2.6529     0.5920 H       
  36 H36            6.3417    -1.0917     0.5915 H       
  37 H37            4.0979    -2.4471     3.2870 H       
  38 H38            5.0237    -3.8377     2.6707 H       
  39 H39            5.6299    -2.2759     5.2228 H       
  40 H40            4.8972    -3.8959     5.1423 H       
  41 H41            7.2318    -4.0973     5.5012 H       
  42 H42            7.9226    -1.9605     4.5433 H       
  43 H43            8.8736    -3.3488     3.9638 H       
  44 H44            7.4333    -3.5062     1.9566 H       
  45 H45            9.4448    -2.0548     1.8935 H       
  46 H46            8.1443    -1.3903     0.8760 H       
  47 H47            8.4720    -0.6828     2.4761 H       
@<TRIPOS>BOND
   1    1    2 ar
   2    1    6 ar
   3    1   27 1
   4    2    3 ar
   5    2   28 1
   6    3    4 ar
   7    3    7 1
   8    4    5 ar
   9    4   14 1
  10    5    6 ar
  11    5   16 1
  12    6   29 1
  13    7    8 ar
  14    7   12 ar
  15    8    9 ar
  16    8   30 1
  17    9   10 ar
  18    9   13 1
  19   10   11 ar
  20   10   31 1
  21   11   12 ar
  22   11   32 1
  23   12   33 1
  24   14   15 am
  25   14   17 2
  26   15   18 1
  27   15   34 1
  28   18   19 1
  29   18   35 1
  30   18   36 1
  31   19   20 1
  32   19   26 1
  33   19   24 1
  34   20   21 1
  35   20   37 1
  36   20   38 1
  37   21   22 1
  38   21   39 1
  39   21   40 1
  40   22   23 1
  41   22   41 1
  42   23   24 1
  43   23   42 1
  44   23   43 1
  45   24   25 1
  46   24   44 1
  47   25   45 1
  48   25   46 1
  49   25   47 1

#	End of record

