#	Name: ASD01914601
#	Creating user name:	WinNT
#	Creation time:	15. 06. 2019 20:03

#	Modifying user name:	WinNT
#	Modification time:	15. 06. 2019 20:03

#	Program:	/corina/corina34_cracker 3.40 0067  02.08.2006

@<TRIPOS>MOLECULE
ASD01914601
  39   42    0    0    0
SMALL
NO_CHARGES


@<TRIPOS>ATOM
   1 C1            -0.0167     1.3830     0.0096 C.ar    
   2 C2             0.0021    -0.0041     0.0020 C.ar    
   3 C3             1.2013    -0.6805    -0.0010 C.ar    
   4 C4             2.4181     0.0231     0.0038 C.ar    
   5 C5             2.3886     1.4186    -0.0122 C.ar    
   6 C6             1.1680     2.0878     0.0021 C.ar    
   7 C7             3.6561    -0.7566     0.0571 C.2     
   8 N8             4.7847    -0.5207    -0.6101 N.am    
   9 C9             4.9028     0.5984    -1.5515 C.3     
  10 C10            4.6791     1.8720    -0.7783 C.2     
  11 N11            3.5541     2.1857    -0.0761 N.pl3   
  12 C12            5.5415     2.9137    -0.6392 C.2     
  13 N13            4.9474     3.8270     0.1723 N.2     
  14 C14            3.7684     3.3898     0.5183 C.2     
  15 C15            6.8375     3.0273    -1.2377 C.1     
  16 C16            7.8999     3.1205    -1.7284 C.1     
  17 C17            9.1959     3.2341    -2.3269 C.ar    
  18 C18            9.9790     4.3683    -2.0959 C.ar    
  19 C19           11.2262     4.4707    -2.6758 C.ar    
  20 C20           11.7023     3.4541    -3.4850 C.ar    
  21 C21           10.9325     2.3280    -3.7184 C.ar    
  22 C22            9.6860     2.2088    -3.1403 C.ar    
  23 C23            5.9368    -1.4005    -0.3983 C.3     
  24 O24            3.6540    -1.7256     0.7913 O.2     
  25 F25           -1.1599    -0.6933    -0.0020 F       
  26 H26           -0.9591     1.9105     0.0170 H       
  27 H27            1.2071    -1.7605    -0.0068 H       
  28 H28            1.1490     3.1676     0.0074 H       
  29 H29            5.8987     0.6051    -1.9946 H       
  30 H30            4.1500     0.5040    -2.3341 H       
  31 H31            3.0755     3.9006     1.1705 H       
  32 H32            9.6084     5.1627    -1.4651 H       
  33 H33           11.8325     5.3465    -2.4982 H       
  34 H34           12.6794     3.5401    -3.9370 H       
  35 H35           11.3105     1.5388    -4.3514 H       
  36 H36            9.0864     1.3293    -3.3230 H       
  37 H37            5.6766    -2.1716     0.3268 H       
  38 H38            6.2150    -1.8686    -1.3425 H       
  39 H39            6.7760    -0.8158    -0.0215 H       
@<TRIPOS>BOND
   1    1    2 ar
   2    1    6 ar
   3    1   26 1
   4    2    3 ar
   5    2   25 1
   6    3    4 ar
   7    3   27 1
   8    4    5 ar
   9    4    7 1
  10    5    6 ar
  11    5   11 1
  12    6   28 1
  13    7    8 am
  14    7   24 2
  15    8    9 1
  16    8   23 1
  17    9   10 1
  18    9   29 1
  19    9   30 1
  20   10   11 1
  21   10   12 2
  22   11   14 1
  23   12   13 1
  24   12   15 1
  25   13   14 2
  26   14   31 1
  27   15   16 3
  28   16   17 1
  29   17   18 ar
  30   17   22 ar
  31   18   19 ar
  32   18   32 1
  33   19   20 ar
  34   19   33 1
  35   20   21 ar
  36   20   34 1
  37   21   22 ar
  38   21   35 1
  39   22   36 1
  40   23   37 1
  41   23   38 1
  42   23   39 1

#	End of record

