#	Name: ASD03331031
#	Creating user name:	WinNT
#	Creation time:	15. 06. 2019 20:38

#	Modifying user name:	WinNT
#	Modification time:	15. 06. 2019 20:38

#	Program:	/corina/corina34_cracker 3.40 0067  02.08.2006

@<TRIPOS>MOLECULE
ASD03331031
  53   55    0    0    0
SMALL
NO_CHARGES


@<TRIPOS>ATOM
   1 C1             0.5941     1.5916     0.4655 C.ar    
   2 C2             0.4609     0.1225     0.3513 C.2     
   3 N3            -0.6293    -0.6052     0.7062 N.pl3   
   4 C4            -0.3529    -1.9112     0.4477 C.2     
   5 C5             0.9014    -1.9636    -0.0632 C.2     
   6 N6             1.3758    -0.6976    -0.1163 N.2     
   7 C7             1.6172    -3.1794    -0.4890 C.2     
   8 N8             2.8680    -3.0870    -0.9822 N.am    
   9 C9            -0.2732     2.3118     1.2874 C.ar    
  10 O10            1.0791    -4.2661    -0.3954 O.2     
  11 C11            3.5796    -4.2956    -1.4054 C.3     
  12 C12            3.1941    -4.6362    -2.8464 C.3     
  13 C13            5.0656    -4.0576    -1.3259 C.2     
  14 C14            3.4665    -3.4290    -3.7461 C.3     
  15 C15           -1.9051    -0.1513     1.2674 C.3     
  16 C16           -2.9280    -1.2833     1.1014 C.3     
  17 O17           -2.3650    -2.5163     1.5578 O.3     
  18 C18           -1.3247    -3.0321     0.7140 C.3     
  19 O19            5.5084    -2.9369    -1.4634 O.2     
  20 N20            5.9024    -5.0900    -1.1018 N.am    
  21 C21            7.3343    -4.8446    -0.9130 C.3     
  22 C22            4.0231    -5.8285    -3.3279 C.3     
  23 C23            1.7071    -4.9915    -2.9061 C.3     
  24 C24           -0.1434     3.6816     1.3901 C.ar    
  25 C25            0.8438     4.3410     0.6798 C.ar    
  26 C26            1.7070     3.6325    -0.1369 C.ar    
  27 C27            1.5913     2.2618    -0.2436 C.ar    
  28 H28            3.2972    -2.2203    -1.0568 H       
  29 H29           -1.0447     1.7982     1.8419 H       
  30 H30            3.3089    -5.1245    -0.7513 H       
  31 H31            4.5259    -3.1759    -3.7035 H       
  32 H32            3.1919    -3.6716    -4.7726 H       
  33 H33            2.8759    -2.5795    -3.4030 H       
  34 H34           -1.7804     0.0800     2.3253 H       
  35 H35           -2.2473     0.7355     0.7339 H       
  36 H36           -3.8197    -1.0542     1.6848 H       
  37 H37           -3.1983    -1.3758     0.0495 H       
  38 H38           -1.7511    -3.3827    -0.2259 H       
  39 H39           -0.8134    -3.8526     1.2174 H       
  40 H40            5.5566    -5.9955    -1.0656 H       
  41 H41            7.7411    -4.3642    -1.8029 H       
  42 H42            7.4809    -4.1948    -0.0502 H       
  43 H43            7.8463    -5.7921    -0.7454 H       
  44 H44            3.7891    -6.7028    -2.7205 H       
  45 H45            3.7872    -6.0374    -4.3714 H       
  46 H46            5.0837    -5.5949    -3.2350 H       
  47 H47            1.1165    -4.1420    -2.5630 H       
  48 H48            1.4325    -5.2341    -3.9327 H       
  49 H49            1.5131    -5.8515    -2.2651 H       
  50 H50           -0.8142     4.2402     2.0260 H       
  51 H51            0.9409     5.4134     0.7630 H       
  52 H52            2.4754     4.1531    -0.6891 H       
  53 H53            2.2659     1.7098    -0.8812 H       
@<TRIPOS>BOND
   1    1    2 1
   2    1    9 ar
   3    1   27 ar
   4    2    3 1
   5    2    6 2
   6    3    4 1
   7    3   15 1
   8    4    5 2
   9    4   18 1
  10    5    6 1
  11    5    7 1
  12    7    8 am
  13    7   10 2
  14    8   11 1
  15    8   28 1
  16    9   24 ar
  17    9   29 1
  18   11   12 1
  19   11   13 1
  20   11   30 1
  21   12   14 1
  22   12   22 1
  23   12   23 1
  24   13   19 2
  25   13   20 am
  26   14   31 1
  27   14   32 1
  28   14   33 1
  29   15   16 1
  30   15   34 1
  31   15   35 1
  32   16   17 1
  33   16   36 1
  34   16   37 1
  35   17   18 1
  36   18   38 1
  37   18   39 1
  38   20   21 1
  39   20   40 1
  40   21   41 1
  41   21   42 1
  42   21   43 1
  43   22   44 1
  44   22   45 1
  45   22   46 1
  46   23   47 1
  47   23   48 1
  48   23   49 1
  49   24   25 ar
  50   24   50 1
  51   25   26 ar
  52   25   51 1
  53   26   27 ar
  54   26   52 1
  55   27   53 1

#	End of record

