#	Name: ASD01883061
#	Creating user name:	WinNT
#	Creation time:	15. 06. 2019 19:45

#	Modifying user name:	WinNT
#	Modification time:	15. 06. 2019 19:45

#	Program:	/corina/corina34_cracker 3.40 0067  02.08.2006

@<TRIPOS>MOLECULE
ASD01883061
  36   38    0    0    0
SMALL
NO_CHARGES


@<TRIPOS>ATOM
   1 N1             0.0334     1.2623     0.0179 N.am    
   2 C2             0.1266    -0.0731     0.1555 C.2     
   3 C3            -1.0460    -0.8654     0.1730 C.2     
   4 C4            -2.2963    -0.2253     0.0441 C.2     
   5 C5            -2.3257     1.1797    -0.0970 C.2     
   6 C6            -1.1716     1.8805    -0.1012 C.2     
   7 O7             1.2207    -0.6003     0.2645 O.2     
   8 C8            -0.9648    -2.2877     0.3181 C.1     
   9 N9            -0.9004    -3.4160     0.4332 N.1     
  10 C10            1.2568     2.0681     0.0022 C.3     
  11 C11           -3.5416    -1.0036     0.0560 C.2     
  12 C12            1.7374     2.2239    -1.4176 C.ar    
  13 C13            2.8672     2.9733    -1.6864 C.ar    
  14 C14            3.3081     3.1163    -2.9889 C.ar    
  15 C15            2.6195     2.5094    -4.0222 C.ar    
  16 C16            1.4899     1.7589    -3.7533 C.ar    
  17 C17            1.0515     1.6125    -2.4507 C.ar    
  18 C18            3.6181     3.6351    -0.5598 C.3     
  19 C19           -4.5141    -0.9282     1.0125 C.2     
  20 C20           -5.5764    -1.7704     0.7754 C.2     
  21 C21           -5.4776    -2.5091    -0.3351 C.2     
  22 S22           -4.0231    -2.1762    -1.1625 S.3     
  23 H23           -3.2704     1.6933    -0.1977 H       
  24 H24           -1.2060     2.9545    -0.2098 H       
  25 H25            1.0499     3.0509     0.4256 H       
  26 H26            2.0262     1.5721     0.5939 H       
  27 H27            4.1905     3.7025    -3.1990 H       
  28 H28            2.9635     2.6216    -5.0398 H       
  29 H29            0.9515     1.2850    -4.5607 H       
  30 H30            0.1692     1.0262    -2.2406 H       
  31 H31            4.3180     2.9232    -0.1221 H       
  32 H32            4.1670     4.4946    -0.9445 H       
  33 H33            2.9124     3.9660     0.2022 H       
  34 H34           -4.4550    -0.2735     1.8694 H       
  35 H35           -6.4272    -1.8308     1.4379 H       
  36 H36           -6.2216    -3.2183    -0.6665 H       
@<TRIPOS>BOND
   1    1    2 am
   2    1   10 1
   3    1    6 1
   4    2    3 1
   5    2    7 2
   6    3    4 2
   7    3    8 1
   8    4    5 1
   9    4   11 1
  10    5    6 2
  11    5   23 1
  12    6   24 1
  13    8    9 3
  14   10   12 1
  15   10   25 1
  16   10   26 1
  17   11   19 2
  18   11   22 1
  19   12   13 ar
  20   12   17 ar
  21   13   14 ar
  22   13   18 1
  23   14   15 ar
  24   14   27 1
  25   15   16 ar
  26   15   28 1
  27   16   17 ar
  28   16   29 1
  29   17   30 1
  30   18   31 1
  31   18   32 1
  32   18   33 1
  33   19   20 1
  34   19   34 1
  35   20   21 2
  36   20   35 1
  37   21   22 1
  38   21   36 1

#	End of record

