#	Name: ASD01903074
#	Creating user name:	WinNT
#	Creation time:	15. 06. 2019 19:54

#	Modifying user name:	WinNT
#	Modification time:	15. 06. 2019 19:54

#	Program:	/corina/corina34_cracker 3.40 0067  02.08.2006

@<TRIPOS>MOLECULE
ASD01903074
  43   45    0    0    0
SMALL
NO_CHARGES


@<TRIPOS>ATOM
   1 C1            -0.0160     1.2943     0.0210 C.2     
   2 N2             0.0004    -0.0032     0.0041 N.2     
   3 C3            -1.1730    -0.6195     0.0261 C.2     
   4 C4            -2.2472     0.1863     0.0637 C.2     
   5 S5            -1.6841     1.8560     0.0783 S.3     
   6 C6            -1.2920    -2.0997     0.0098 C.2     
   7 N7             1.1051     2.1109     0.0028 N.pl3   
   8 C8            -2.2728    -2.8644     0.6781 C.2     
   9 N9            -2.0525    -4.1257     0.4265 N.2     
  10 N10           -0.9313    -4.2258    -0.4065 N.am    
  11 C11           -0.4787    -2.9640    -0.6569 C.2     
  12 C12            0.9588     3.4913    -0.0934 C.ar    
  13 C13           -0.3966    -5.3682    -0.8813 C.2     
  14 C14           -1.0133    -6.6953    -0.5217 C.3     
  15 O15            0.5773    -5.3282    -1.5953 O.2     
  16 N16           -0.2449     4.0126    -0.2730 N.ar    
  17 C17           -0.4272     5.3159    -0.3694 C.ar    
  18 C18            0.6395     6.1881    -0.2856 C.ar    
  19 C19            1.9190     5.6818    -0.0973 C.ar    
  20 C20            2.0781     4.3117     0.0057 C.ar    
  21 C21           -1.8178     5.8593    -0.5741 C.3     
  22 C22           -3.6860    -0.2609     0.0939 C.3     
  23 C23           -2.0757    -7.0620    -1.5599 C.3     
  24 C24            0.0724    -7.7732    -0.5004 C.3     
  25 H25            1.9910     1.7197     0.0572 H       
  26 H26           -3.0694    -2.4723     1.2930 H       
  27 H27            0.3725    -2.6994    -1.2668 H       
  28 H28           -1.4760    -6.6261     0.4628 H       
  29 H29            0.4808     7.2533    -0.3659 H       
  30 H30            2.7700     6.3432    -0.0289 H       
  31 H31            3.0588     3.8841     0.1528 H       
  32 H32           -2.2805     6.0478     0.3947 H       
  33 H33           -1.7647     6.7902    -1.1386 H       
  34 H34           -2.4141     5.1330    -1.1263 H       
  35 H35           -4.0071    -0.3823     1.1285 H       
  36 H36           -4.3095     0.4879    -0.3945 H       
  37 H37           -3.7821    -1.2117    -0.4302 H       
  38 H38           -2.5218    -8.0219    -1.2998 H       
  39 H39           -2.8492    -6.2941    -1.5750 H       
  40 H40           -1.6130    -7.1312    -2.5444 H       
  41 H41            0.8292    -7.5120     0.2392 H       
  42 H42           -0.3737    -8.7331    -0.2404 H       
  43 H43            0.5350    -7.8424    -1.4849 H       
@<TRIPOS>BOND
   1    1    2 2
   2    1    7 1
   3    1    5 1
   4    2    3 1
   5    3    4 2
   6    3    6 1
   7    4    5 1
   8    4   22 1
   9    6    8 1
  10    6   11 2
  11    7   12 1
  12    7   25 1
  13    8    9 2
  14    8   26 1
  15    9   10 1
  16   10   11 1
  17   10   13 am
  18   11   27 1
  19   12   16 ar
  20   12   20 ar
  21   13   14 1
  22   13   15 2
  23   14   23 1
  24   14   24 1
  25   14   28 1
  26   16   17 ar
  27   17   18 ar
  28   17   21 1
  29   18   19 ar
  30   18   29 1
  31   19   20 ar
  32   19   30 1
  33   20   31 1
  34   21   32 1
  35   21   33 1
  36   21   34 1
  37   22   35 1
  38   22   36 1
  39   22   37 1
  40   23   38 1
  41   23   39 1
  42   23   40 1
  43   24   41 1
  44   24   42 1
  45   24   43 1

#	End of record

