#	Name: ASD01900052
#	Creating user name:	WinNT
#	Creation time:	15. 06. 2019 19:51

#	Modifying user name:	WinNT
#	Modification time:	15. 06. 2019 19:51

#	Program:	/corina/corina34_cracker 3.40 0067  02.08.2006

@<TRIPOS>MOLECULE
ASD01900052
  36   37    0    0    0
SMALL
NO_CHARGES


@<TRIPOS>ATOM
   1 C1             0.1711     1.5692    -0.0654 C.3     
   2 C2             0.4343     0.0666    -0.1828 C.3     
   3 C3             1.2944    -0.2056    -1.4185 C.3     
   4 C4             2.6258     0.5366    -1.2867 C.3     
   5 C5             2.3626     2.0392    -1.1693 C.3     
   6 C6             1.5025     2.3114     0.0664 C.3     
   7 C7            -0.5523     2.0502    -1.2968 C.2     
   8 O8            -0.8301     1.2681    -2.1813 O.2     
   9 N9            -0.8907     3.3494    -1.4153 N.am    
  10 C10           -0.8771    -0.6644    -0.3126 C.2     
  11 O11           -1.9196    -0.0446    -0.3114 O.2     
  12 N12           -0.8915    -2.0070    -0.4301 N.am    
  13 C13           -1.4744     3.8154    -2.5990 C.ar    
  14 C14           -2.3509     3.0048    -3.3083 C.ar    
  15 C15           -2.9261     3.4677    -4.4765 C.ar    
  16 C16           -2.6287     4.7389    -4.9394 C.ar    
  17 C17           -1.7557     5.5476    -4.2340 C.ar    
  18 C18           -1.1824     5.0911    -3.0629 C.ar    
  19 Cl19          -3.3521     5.3179    -6.4074 Cl      
  20 Cl20          -4.0216     2.4552    -5.3645 Cl      
  21 H21           -0.4416     1.7631     0.8150 H       
  22 H22            0.9575    -0.2813     0.7079 H       
  23 H23            1.4819    -1.2761    -1.5021 H       
  24 H24            0.7711     0.1423    -2.3092 H       
  25 H25            3.1491     0.1887    -0.3961 H       
  26 H26            3.2386     0.3427    -2.1671 H       
  27 H27            3.3112     2.5680    -1.0754 H       
  28 H28            1.8394     2.3871    -2.0600 H       
  29 H29            1.3151     3.3819     0.1500 H       
  30 H30            2.0258     1.9635     0.9571 H       
  31 H31           -0.7297     3.9615    -0.6802 H       
  32 H32           -0.0578    -2.5027    -0.4311 H       
  33 H33           -1.7356    -2.4775    -0.5137 H       
  34 H34           -2.5825     2.0135    -2.9475 H       
  35 H35           -1.5251     6.5382    -4.5971 H       
  36 H36           -0.5045     5.7249    -2.5105 H       
@<TRIPOS>BOND
   1    1    2 1
   2    1    6 1
   3    1    7 1
   4    1   21 1
   5    2    3 1
   6    2   10 1
   7    2   22 1
   8    3    4 1
   9    3   23 1
  10    3   24 1
  11    4    5 1
  12    4   25 1
  13    4   26 1
  14    5    6 1
  15    5   27 1
  16    5   28 1
  17    6   29 1
  18    6   30 1
  19    7    8 2
  20    7    9 am
  21    9   13 1
  22    9   31 1
  23   10   11 2
  24   10   12 am
  25   12   32 1
  26   12   33 1
  27   13   14 ar
  28   13   18 ar
  29   14   15 ar
  30   14   34 1
  31   15   16 ar
  32   15   20 1
  33   16   17 ar
  34   16   19 1
  35   17   18 ar
  36   17   35 1
  37   18   36 1

#	End of record

