#	Name: ASD09116334
#	Creating user name:	WinNT
#	Creation time:	15. 06. 2019 21:21

#	Modifying user name:	WinNT
#	Modification time:	15. 06. 2019 21:21

#	Program:	/corina/corina34_cracker 3.40 0067  02.08.2006

@<TRIPOS>MOLECULE
ASD09116334
  70   75    0    0    0
SMALL
NO_CHARGES


@<TRIPOS>ATOM
   1 N1            -0.0296     1.4182     0.1447 N.2     
   2 N2            -0.0209     0.0193     0.2654 N.pl3   
   3 C3             1.2224     1.8078     0.1154 C.2     
   4 N4             2.0155     0.7341     0.2108 N.2     
   5 C5             1.2800    -0.3532     0.3020 C.2     
   6 N6             1.7524    -1.6470     0.4152 N.pl3   
   7 C7            -1.1338    -0.8213     0.3344 C.ar    
   8 N8             1.6572     3.1283     0.0023 N.pl3   
   9 C9             3.0216     3.4264     0.0966 C.ar    
  10 C10            3.5419     4.5217    -0.5808 C.ar    
  11 C11            3.8543     2.6306     0.8719 C.ar    
  12 C12            5.2012     2.9247     0.9651 C.ar    
  13 C13            5.7222     4.0141     0.2849 C.ar    
  14 C14            4.8895     4.8150    -0.4869 C.ar    
  15 O15            7.0484     4.3029     0.3777 O.3     
  16 C16            7.8445     3.4411     1.1937 C.3     
  17 C17            9.2973     3.9205     1.1757 C.3     
  18 F18            5.3978     5.8766    -1.1501 F       
  19 N19           -1.0320    -2.0869    -0.0422 N.ar    
  20 N20           -2.0277    -2.8994    -0.0079 N.ar    
  21 C21           -3.2234    -2.5141     0.4087 C.ar    
  22 C22           -3.4200    -1.2009     0.8462 C.ar    
  23 C23           -2.3532    -0.3285     0.8062 C.ar    
  24 C24           -4.3848    -3.4330     0.3985 C.ar    
  25 C25           -5.5820    -3.0005    -0.1758 C.ar    
  26 C26           -5.6442    -1.6407    -0.8159 C.3     
  27 C27           -5.7427    -0.5357     0.2323 C.3     
  28 C28           -4.7619    -0.7850     1.3748 C.3     
  29 C29           -4.2965    -4.7061     0.9526 C.ar    
  30 C30           -5.4018    -5.5324     0.9493 C.ar    
  31 C31           -6.5974    -5.0929     0.3971 C.ar    
  32 C32           -6.6848    -3.8252    -0.1647 C.ar    
  33 N33            9.3842     5.2437     1.8079 N.3     
  34 C34           10.7893     5.6346     2.0243 C.3     
  35 C35           11.0045     6.9833     1.3060 C.3     
  36 C36            9.5671     7.5582     1.2040 C.3     
  37 C37            8.7323     6.2741     0.9718 C.3     
  38 O38           -7.6860    -5.9056     0.4061 O.3     
  39 C39           -7.5275    -7.1960     0.9993 C.3     
  40 H40            2.7076    -1.8148     0.4327 H       
  41 H41            1.1287    -2.3873     0.4773 H       
  42 H42            1.0141     3.8401    -0.1417 H       
  43 H43            2.8941     5.1436    -1.1808 H       
  44 H44            3.4491     1.7818     1.4026 H       
  45 H45            5.8483     2.3055     1.5686 H       
  46 H46            7.4683     3.4597     2.2165 H       
  47 H47            7.7927     2.4238     0.8059 H       
  48 H48            9.9198     3.2139     1.7247 H       
  49 H49            9.6454     3.9867     0.1449 H       
  50 H50           -2.4583     0.6997     1.1198 H       
  51 H51           -4.7457    -1.4864    -1.4133 H       
  52 H52           -6.5168    -1.5929    -1.4674 H       
  53 H53           -5.5143     0.4227    -0.2341 H       
  54 H54           -6.7572    -0.5077     0.6299 H       
  55 H55           -5.1537    -1.5729     2.0181 H       
  56 H56           -4.6499     0.1296     1.9571 H       
  57 H57           -3.3664    -5.0465     1.3833 H       
  58 H58           -5.3366    -6.5222     1.3765 H       
  59 H59           -7.6171    -3.4867    -0.5921 H       
  60 H60           10.9827     5.7476     3.0911 H       
  61 H61           11.4533     4.8799     1.6028 H       
  62 H62           11.6407     7.6393     1.9002 H       
  63 H63           11.4288     6.8282     0.3140 H       
  64 H64            9.2767     8.0503     2.1322 H       
  65 H65            9.4783     8.2399     0.3581 H       
  66 H66            8.7637     5.9859    -0.0789 H       
  67 H67            7.7023     6.4279     1.2935 H       
  68 H68           -6.7540    -7.7485     0.4659 H       
  69 H69           -7.2380    -7.0825     2.0440 H       
  70 H70           -8.4695    -7.7412     0.9404 H       
@<TRIPOS>BOND
   1    1    2 1
   2    1    3 2
   3    2    7 1
   4    2    5 1
   5    3    4 1
   6    3    8 1
   7    4    5 2
   8    5    6 1
   9    6   40 1
  10    6   41 1
  11    7   19 ar
  12    7   23 ar
  13    8    9 1
  14    8   42 1
  15    9   10 ar
  16    9   11 ar
  17   10   14 ar
  18   10   43 1
  19   11   12 ar
  20   11   44 1
  21   12   13 ar
  22   12   45 1
  23   13   14 ar
  24   13   15 1
  25   14   18 1
  26   15   16 1
  27   16   17 1
  28   16   46 1
  29   16   47 1
  30   17   33 1
  31   17   48 1
  32   17   49 1
  33   19   20 ar
  34   20   21 ar
  35   21   22 ar
  36   21   24 1
  37   22   23 ar
  38   22   28 1
  39   23   50 1
  40   24   25 ar
  41   24   29 ar
  42   25   26 1
  43   25   32 ar
  44   26   27 1
  45   26   51 1
  46   26   52 1
  47   27   28 1
  48   27   53 1
  49   27   54 1
  50   28   55 1
  51   28   56 1
  52   29   30 ar
  53   29   57 1
  54   30   31 ar
  55   30   58 1
  56   31   32 ar
  57   31   38 1
  58   32   59 1
  59   33   34 1
  60   33   37 1
  61   34   35 1
  62   34   60 1
  63   34   61 1
  64   35   36 1
  65   35   62 1
  66   35   63 1
  67   36   37 1
  68   36   64 1
  69   36   65 1
  70   37   66 1
  71   37   67 1
  72   38   39 1
  73   39   68 1
  74   39   69 1
  75   39   70 1

#	End of record

