#	Name: ASD02198039
#	Creating user name:	WinNT
#	Creation time:	15. 06. 2019 20:18

#	Modifying user name:	WinNT
#	Modification time:	15. 06. 2019 20:18

#	Program:	/corina/corina34_cracker 3.40 0067  02.08.2006

@<TRIPOS>MOLECULE
ASD02198039
  40   42    0    0    0
SMALL
NO_CHARGES


@<TRIPOS>ATOM
   1 C1             0.5501     1.3793    -0.6347 C.2     
   2 C2             0.4594     0.0060    -0.5463 C.2     
   3 C3            -0.7756    -0.6814    -0.3161 C.1     
   4 S4             2.1602     1.8658    -0.9133 S.3     
   5 C5             2.7316     0.2050    -0.9130 C.2     
   6 C6             1.6771    -0.6522    -0.7015 C.2     
   7 C7             4.0695    -0.1899    -1.1013 C.2     
   8 O8             4.3845    -1.3601    -0.9663 O.2     
   9 C9             5.0939     0.8153    -1.4632 C.ar    
  10 N10            1.8125    -2.0305    -0.6478 N.pl3   
  11 N11           -0.5164     2.2407    -0.5194 N.pl3   
  12 N12           -1.7553    -1.2267    -0.1334 N.1     
  13 C13           -0.3006     3.6213    -0.5002 C.ar    
  14 C14           -1.2138     4.4772    -1.1031 C.ar    
  15 C15           -0.9974     5.8409    -1.0822 C.ar    
  16 C16            0.1270     6.3548    -0.4625 C.ar    
  17 C17            1.0381     5.5057     0.1386 C.ar    
  18 C18            0.8247     4.1413     0.1269 C.ar    
  19 C19            4.7390     1.9384    -2.2115 C.ar    
  20 C20            5.6966     2.8738    -2.5473 C.ar    
  21 C21            7.0080     2.7018    -2.1450 C.ar    
  22 C22            7.3703     1.5873    -1.4001 C.ar    
  23 C23            6.4162     0.6462    -1.0526 C.ar    
  24 O24            8.6610     1.4232    -1.0071 O.3     
  25 C25            9.5912     2.4360    -1.3957 C.3     
  26 H26            2.6857    -2.4369    -0.7623 H       
  27 H27            1.0339    -2.5887    -0.4957 H       
  28 H28           -1.4182     1.8898    -0.4515 H       
  29 H29           -2.0918     4.0764    -1.5879 H       
  30 H30           -1.7069     6.5069    -1.5508 H       
  31 H31            0.2942     7.4217    -0.4483 H       
  32 H32            1.9152     5.9103     0.6218 H       
  33 H33            1.5366     3.4787     0.5966 H       
  34 H34            3.7156     2.0754    -2.5280 H       
  35 H35            5.4207     3.7426    -3.1265 H       
  36 H36            7.7533     3.4366    -2.4112 H       
  37 H37            6.6966    -0.2209    -0.4730 H       
  38 H38            9.6224     2.5028    -2.4832 H       
  39 H39            9.2786     3.3946    -0.9817 H       
  40 H40           10.5821     2.1831    -1.0187 H       
@<TRIPOS>BOND
   1    1    2 2
   2    1    4 1
   3    1   11 1
   4    2    3 1
   5    2    6 1
   6    3   12 3
   7    4    5 1
   8    5    6 2
   9    5    7 1
  10    6   10 1
  11    7    8 2
  12    7    9 1
  13    9   19 ar
  14    9   23 ar
  15   10   26 1
  16   10   27 1
  17   11   13 1
  18   11   28 1
  19   13   14 ar
  20   13   18 ar
  21   14   15 ar
  22   14   29 1
  23   15   16 ar
  24   15   30 1
  25   16   17 ar
  26   16   31 1
  27   17   18 ar
  28   17   32 1
  29   18   33 1
  30   19   20 ar
  31   19   34 1
  32   20   21 ar
  33   20   35 1
  34   21   22 ar
  35   21   36 1
  36   22   23 ar
  37   22   24 1
  38   23   37 1
  39   24   25 1
  40   25   38 1
  41   25   39 1
  42   25   40 1

#	End of record

