#	Name: ASD03320143
#	Creating user name:	WinNT
#	Creation time:	15. 06. 2019 20:36

#	Modifying user name:	WinNT
#	Modification time:	15. 06. 2019 20:36

#	Program:	/corina/corina34_cracker 3.40 0067  02.08.2006

@<TRIPOS>MOLECULE
ASD03320143
  49   52    0    0    0
SMALL
NO_CHARGES


@<TRIPOS>ATOM
   1 C1             0.2212     1.1338    -0.3787 C.2     
   2 C2            -0.0260    -0.3200    -0.3320 C.ar    
   3 C3             0.9621    -1.2215    -0.7506 C.ar    
   4 C4             0.6809    -2.5834    -0.6869 C.ar    
   5 C5            -0.5747    -2.9981    -0.2083 C.ar    
   6 N6            -1.4789    -2.1103     0.1765 N.ar    
   7 C7            -1.2450    -0.8151     0.1353 C.ar    
   8 O8             1.2876     1.5566    -0.7823 O.2     
   9 N9            -0.7369     1.9934     0.0208 N.am    
  10 N10           -0.8686    -4.3477    -0.1391 N.3     
  11 C11           -1.2386    -4.7382     1.2337 C.3     
  12 C12           -2.6415    -5.3774     1.1648 C.3     
  13 C13           -2.7477    -5.8286    -0.3157 C.3     
  14 C14           -1.9853    -4.6938    -1.0441 C.3     
  15 O15           -2.7283    -6.5014     2.0430 O.3     
  16 N16            2.1673    -3.7516    -2.3824 N.pl3   
  17 N17            3.0992    -4.7962    -2.3473 N.2     
  18 C18            3.1860    -5.2420    -1.1198 C.2     
  19 C19            2.3157    -4.5052    -0.3138 C.2     
  20 C20            1.6868    -3.5785    -1.1163 C.2     
  21 F21            2.1248    -4.6710     1.0133 F       
  22 C22           -0.4668     3.3664     0.0764 C.ar    
  23 C23           -1.4723     4.2839    -0.1984 C.ar    
  24 C24           -1.2053     5.6376    -0.1434 C.ar    
  25 C25            0.0672     6.0810     0.1862 C.ar    
  26 C26            1.0722     5.1651     0.4608 C.ar    
  27 C27            0.8052     3.8112     0.4118 C.ar    
  28 O28            0.3295     7.4141     0.2397 O.3     
  29 C29            1.6613     7.7999     0.5856 C.3     
  30 F30            1.9756     7.3037     1.8553 F       
  31 F31            2.5568     7.2779    -0.3539 F       
  32 Cl32           1.7823     9.5988     0.5965 Cl      
  33 H33            1.9162    -0.8689    -1.1135 H       
  34 H34           -2.0087    -0.1257     0.4636 H       
  35 H35           -1.6135     1.6611     0.2698 H       
  36 H36           -0.5202    -5.4614     1.6198 H       
  37 H37           -1.2633    -3.8578     1.8757 H       
  38 H38           -3.4116    -4.6428     1.4000 H       
  39 H39           -2.2557    -6.7894    -0.4673 H       
  40 H40           -3.7882    -5.8693    -0.6378 H       
  41 H41           -2.6365    -3.8320    -1.1901 H       
  42 H42           -1.6023    -5.0475    -2.0014 H       
  43 H43           -3.5904    -6.9392     2.0374 H       
  44 H44            1.9119    -3.2395    -3.1657 H       
  45 H45            3.8243    -6.0466    -0.7858 H       
  46 H46           -2.4629     3.9388    -0.4553 H       
  47 H47           -1.9871     6.3512    -0.3574 H       
  48 H48            2.0626     5.5111     0.7174 H       
  49 H49            1.5865     3.0983     0.6304 H       
@<TRIPOS>BOND
   1    1    2 1
   2    1    8 2
   3    1    9 am
   4    2    3 ar
   5    2    7 ar
   6    3    4 ar
   7    3   33 1
   8    4    5 ar
   9    4   20 1
  10    5    6 ar
  11    5   10 1
  12    6    7 ar
  13    7   34 1
  14    9   22 1
  15    9   35 1
  16   10   11 1
  17   10   14 1
  18   11   12 1
  19   11   36 1
  20   11   37 1
  21   12   13 1
  22   12   15 1
  23   12   38 1
  24   13   14 1
  25   13   39 1
  26   13   40 1
  27   14   41 1
  28   14   42 1
  29   15   43 1
  30   16   17 1
  31   16   20 1
  32   16   44 1
  33   17   18 2
  34   18   19 1
  35   18   45 1
  36   19   20 2
  37   19   21 1
  38   22   23 ar
  39   22   27 ar
  40   23   24 ar
  41   23   46 1
  42   24   25 ar
  43   24   47 1
  44   25   26 ar
  45   25   28 1
  46   26   27 ar
  47   26   48 1
  48   27   49 1
  49   28   29 1
  50   29   30 1
  51   29   31 1
  52   29   32 1

#	End of record

