#	Name: ASD01816618
#	Creating user name:	WinNT
#	Creation time:	15. 06. 2019 19:35

#	Modifying user name:	WinNT
#	Modification time:	15. 06. 2019 19:35

#	Program:	/corina/corina34_cracker 3.40 0067  02.08.2006

@<TRIPOS>MOLECULE
ASD01816618
  55   59    0    0    0
SMALL
NO_CHARGES


@<TRIPOS>ATOM
   1 C1            -0.0712     1.1138     0.2290 C.ar    
   2 C2             0.0786    -0.2635     0.2317 C.ar    
   3 C3             1.3298    -0.8349     0.1256 C.ar    
   4 C4             2.4567    -0.0281     0.0149 C.ar    
   5 C5             2.3014     1.3681     0.0124 C.ar    
   6 C6             1.0345     1.9322     0.1196 C.ar    
   7 N7             3.7151    -0.5951    -0.0910 N.pl3   
   8 C8             4.8381     0.1328    -0.2005 C.2     
   9 C9             4.8105     1.5052    -0.2146 C.2     
  10 C10            3.5104     2.2055    -0.1061 C.2     
  11 C11            5.8072     2.5666    -0.3171 C.2     
  12 N12            5.1236     3.7304    -0.2702 N.am    
  13 N13            3.7542     3.4839    -0.1439 N.2     
  14 O14            7.0151     2.4299    -0.4235 O.2     
  15 C15            5.7043     5.0022    -0.3376 C.ar    
  16 C16            5.4565     5.9345     0.6621 C.ar    
  17 C17            6.5342     5.3328    -1.4009 C.ar    
  18 C18            7.1060     6.5885    -1.4642 C.ar    
  19 C19            6.8534     7.5158    -0.4701 C.ar    
  20 C20            6.0313     7.1880     0.5928 C.ar    
  21 C21            3.8267    -2.0558    -0.0828 C.3     
  22 C22            3.7379    -2.5743    -1.4951 C.ar    
  23 C23            4.8875    -2.7213    -2.2495 C.ar    
  24 C24            4.8097    -3.1962    -3.5440 C.ar    
  25 C25            3.5750    -3.5263    -4.0880 C.ar    
  26 C26            2.4222    -3.3774    -3.3274 C.ar    
  27 C27            2.5077    -2.9073    -2.0316 C.ar    
  28 C28            4.5608     5.5783     1.8205 C.3     
  29 N29            3.4927    -4.0064    -5.3971 N.am    
  30 S30            3.9521    -5.5601    -5.7396 S.o2    
  31 O31            3.7174    -5.6955    -7.1345 O.2     
  32 O32            5.2643    -5.6636    -5.2040 O.2     
  33 C33            2.7964    -6.5922    -4.7965 C.3     
  34 H34           -1.0568     1.5483     0.3082 H       
  35 H35           -0.7925    -0.8960     0.3181 H       
  36 H36            1.4340    -1.9098     0.1289 H       
  37 H37            0.9167     3.0057     0.1172 H       
  38 H38            5.7881    -0.3749    -0.2791 H       
  39 H39            6.7324     4.6088    -2.1773 H       
  40 H40            7.7515     6.8463    -2.2908 H       
  41 H41            7.3024     8.4967    -0.5215 H       
  42 H42            5.8357     7.9147     1.3675 H       
  43 H43            4.7841    -2.3446     0.3507 H       
  44 H44            3.0164    -2.4787     0.5111 H       
  45 H45            5.8471    -2.4641    -1.8260 H       
  46 H46            5.7079    -3.3104    -4.1328 H       
  47 H47            1.4606    -3.6331    -3.7474 H       
  48 H48            1.6119    -2.7916    -1.4396 H       
  49 H49            5.1591     5.1476     2.6233 H       
  50 H50            4.0601     6.4764     2.1822 H       
  51 H51            3.8153     4.8533     1.4938 H       
  52 H52            3.1664    -3.4298    -6.1055 H       
  53 H53            1.7729    -6.3246    -5.0590 H       
  54 H54            2.9697    -7.6418    -5.0338 H       
  55 H55            2.9520    -6.4304    -3.7298 H       
@<TRIPOS>BOND
   1    1    2 ar
   2    1    6 ar
   3    1   34 1
   4    2    3 ar
   5    2   35 1
   6    3    4 ar
   7    3   36 1
   8    4    5 ar
   9    4    7 1
  10    5    6 ar
  11    5   10 1
  12    6   37 1
  13    7    8 1
  14    7   21 1
  15    8    9 2
  16    8   38 1
  17    9   10 1
  18    9   11 1
  19   10   13 2
  20   11   12 am
  21   11   14 2
  22   12   13 1
  23   12   15 1
  24   15   16 ar
  25   15   17 ar
  26   16   28 1
  27   16   20 ar
  28   17   18 ar
  29   17   39 1
  30   18   19 ar
  31   18   40 1
  32   19   20 ar
  33   19   41 1
  34   20   42 1
  35   21   22 1
  36   21   43 1
  37   21   44 1
  38   22   23 ar
  39   22   27 ar
  40   23   24 ar
  41   23   45 1
  42   24   25 ar
  43   24   46 1
  44   25   26 ar
  45   25   29 1
  46   26   27 ar
  47   26   47 1
  48   27   48 1
  49   28   49 1
  50   28   50 1
  51   28   51 1
  52   29   30 am
  53   29   52 1
  54   30   31 2
  55   30   32 2
  56   30   33 1
  57   33   53 1
  58   33   54 1
  59   33   55 1

#	End of record

