#	Name: ASD01814578
#	Creating user name:	WinNT
#	Creation time:	15. 06. 2019 19:32

#	Modifying user name:	WinNT
#	Modification time:	15. 06. 2019 19:32

#	Program:	/corina/corina34_cracker 3.40 0067  02.08.2006

@<TRIPOS>MOLECULE
ASD01814578
  47   50    0    0    0
SMALL
NO_CHARGES


@<TRIPOS>ATOM
   1 C1             0.0216     1.2573     0.3698 C.2     
   2 C2             0.0646    -0.1419     0.3040 C.2     
   3 C3             1.2709    -0.7734     0.2193 C.2     
   4 C4             2.4500    -0.0100     0.1995 C.2     
   5 N5             2.3786     1.3550     0.2653 N.am    
   6 C6             1.1673     1.9751     0.3494 C.2     
   7 C7             3.6910    -0.6566     0.1126 C.2     
   8 C8             4.8425     0.0756     0.0930 C.2     
   9 C9             4.7652     1.4791     0.1604 C.2     
  10 C10            3.5024     2.0998     0.2475 C.2     
  11 O11            3.4261     3.3155     0.3059 O.2     
  12 C12            5.9861     2.2878     0.1415 C.2     
  13 O13            5.9053     3.6328     0.2064 O.3     
  14 O14            7.0730     1.7467     0.0674 O.2     
  15 C15            3.7534    -2.1606     0.0413 C.3     
  16 N16            3.8303    -2.5814    -1.3640 N.3     
  17 C17            5.0730    -2.1128    -1.9856 C.3     
  18 C18            5.1871    -2.6337    -3.3943 C.ar    
  19 C19            4.4293    -3.6953    -3.8410 C.ar    
  20 C20            3.4374    -4.3917    -2.9450 C.3     
  21 C21            3.7210    -4.0441    -1.4833 C.3     
  22 C22            6.0841    -2.0187    -4.2550 C.ar    
  23 C23            6.2230    -2.4649    -5.5540 C.ar    
  24 C24            5.4650    -3.5310    -6.0005 C.ar    
  25 C25            4.5707    -4.1437    -5.1452 C.ar    
  26 C26            2.5749    -4.5474    -0.6035 C.3     
  27 O27            1.3422    -3.9874    -1.0606 O.3     
  28 H28           -0.9300     1.7641     0.4325 H       
  29 H29           -0.8502    -0.7159     0.3206 H       
  30 H30            1.3190    -1.8511     0.1683 H       
  31 H31            1.1223     3.0530     0.4009 H       
  32 H32            5.8017    -0.4163     0.0269 H       
  33 H33            6.7381     4.1239     0.1908 H       
  34 H34            4.6358    -2.5133     0.5750 H       
  35 H35            2.8589    -2.5834     0.4987 H       
  36 H36            5.0776    -1.0230    -2.0035 H       
  37 H37            5.9228    -2.4660    -1.4015 H       
  38 H38            2.4283    -4.0709    -3.2040 H       
  39 H39            3.5195    -5.4698    -3.0832 H       
  40 H40            4.6568    -4.5080    -1.1715 H       
  41 H41            6.6771    -1.1858    -3.9070 H       
  42 H42            6.9222    -1.9817    -6.2203 H       
  43 H43            5.5716    -3.8837    -7.0157 H       
  44 H44            3.9786    -4.9769    -5.4940 H       
  45 H45            2.5234    -5.6347    -0.6608 H       
  46 H46            2.7502    -4.2459     0.4292 H       
  47 H47            0.5705    -4.2639    -0.5477 H       
@<TRIPOS>BOND
   1    1    2 1
   2    1    6 2
   3    1   28 1
   4    2    3 2
   5    2   29 1
   6    3    4 1
   7    3   30 1
   8    4    5 1
   9    4    7 2
  10    5    6 1
  11    5   10 am
  12    6   31 1
  13    7    8 1
  14    7   15 1
  15    8    9 2
  16    8   32 1
  17    9   10 1
  18    9   12 1
  19   10   11 2
  20   12   13 1
  21   12   14 2
  22   13   33 1
  23   15   16 1
  24   15   34 1
  25   15   35 1
  26   16   17 1
  27   16   21 1
  28   17   18 1
  29   17   36 1
  30   17   37 1
  31   18   19 ar
  32   18   22 ar
  33   19   20 1
  34   19   25 ar
  35   20   21 1
  36   20   38 1
  37   20   39 1
  38   21   26 1
  39   21   40 1
  40   22   23 ar
  41   22   41 1
  42   23   24 ar
  43   23   42 1
  44   24   25 ar
  45   24   43 1
  46   25   44 1
  47   26   27 1
  48   26   45 1
  49   26   46 1
  50   27   47 1

#	End of record

