#	Name: ASD01911774
#	Creating user name:	WinNT
#	Creation time:	15. 06. 2019 19:58

#	Modifying user name:	WinNT
#	Modification time:	15. 06. 2019 19:58

#	Program:	/corina/corina34_cracker 3.40 0067  02.08.2006

@<TRIPOS>MOLECULE
ASD01911774
  34   36    0    0    0
SMALL
NO_CHARGES


@<TRIPOS>ATOM
   1 C1            -0.0184     1.5028     0.0103 C.ar    
   2 C2             0.0021    -0.0041     0.0020 C.3     
   3 C3            -0.2244    -0.5172     1.4007 C.2     
   4 C4             0.7299    -0.8598     2.2748 C.2     
   5 S5            -1.7912    -0.7624     2.1698 S.3     
   6 C6            -0.9814    -1.3249     3.6298 C.2     
   7 N7             0.3106    -1.2837     3.4430 N.2     
   8 C8            -1.6345    -1.7531     4.8301 C.1     
   9 C9            -2.1699    -2.1041     5.8142 C.1     
  10 C10           -2.8231    -2.5323     7.0145 C.ar    
  11 C11           -2.0682    -2.9586     8.1112 C.ar    
  12 C12           -2.7044    -3.3690     9.2638 C.ar    
  13 C13           -4.0863    -3.3596     9.3366 C.ar    
  14 C14           -4.8404    -2.9393     8.2549 C.ar    
  15 C15           -4.2185    -2.5206     7.0974 C.ar    
  16 C16           -1.2247     2.1775     0.0312 C.ar    
  17 C17            1.1693     2.2102     0.0028 C.ar    
  18 C18            1.1505     3.5924     0.0103 C.ar    
  19 C19           -0.0559     4.2672     0.0250 C.ar    
  20 C20           -1.2434     3.5597     0.0388 C.ar    
  21 O21           -1.0317    -0.4897    -0.8568 O.3     
  22 H22            0.9692    -0.3523    -0.3606 H       
  23 H23            1.7802    -0.7915     2.0329 H       
  24 H24           -0.9897    -2.9668     8.0558 H       
  25 H25           -2.1226    -3.6989    10.1118 H       
  26 H26           -4.5789    -3.6821    10.2419 H       
  27 H27           -5.9185    -2.9351     8.3189 H       
  28 H28           -4.8083    -2.1925     6.2542 H       
  29 H29           -2.1525     1.6248     0.0412 H       
  30 H30            2.1118     1.6830    -0.0087 H       
  31 H31            2.0784     4.1450     0.0051 H       
  32 H32           -0.0705     5.3471     0.0312 H       
  33 H33           -2.1859     4.0869     0.0503 H       
  34 H34           -1.9216    -0.2179    -0.5938 H       
@<TRIPOS>BOND
   1    1    2 1
   2    1   17 ar
   3    1   16 ar
   4    2    3 1
   5    2   21 1
   6    2   22 1
   7    3    4 2
   8    3    5 1
   9    4    7 1
  10    4   23 1
  11    5    6 1
  12    6    7 2
  13    6    8 1
  14    8    9 3
  15    9   10 1
  16   10   11 ar
  17   10   15 ar
  18   11   12 ar
  19   11   24 1
  20   12   13 ar
  21   12   25 1
  22   13   14 ar
  23   13   26 1
  24   14   15 ar
  25   14   27 1
  26   15   28 1
  27   16   20 ar
  28   16   29 1
  29   17   18 ar
  30   17   30 1
  31   18   19 ar
  32   18   31 1
  33   19   20 ar
  34   19   32 1
  35   20   33 1
  36   21   34 1

#	End of record

