#	Name: ASD03900021
#	Creating user name:	WinNT
#	Creation time:	15. 06. 2019 20:47

#	Modifying user name:	WinNT
#	Modification time:	15. 06. 2019 20:47

#	Program:	/corina/corina34_cracker 3.40 0067  02.08.2006

@<TRIPOS>MOLECULE
ASD03900021
  37   40    0    0    0
SMALL
NO_CHARGES


@<TRIPOS>ATOM
   1 C1             0.4852     0.5820     0.0729 C.ar    
   2 C2             0.8200    -0.7599     0.1210 C.ar    
   3 C3             2.1481    -1.1398     0.1355 C.ar    
   4 C4             3.1494    -0.1762     0.1030 C.ar    
   5 C5             2.8106     1.1663     0.0551 C.ar    
   6 C6             1.4787     1.5414     0.0394 C.ar    
   7 O7             4.4458    -0.5685     0.1198 O.3     
   8 C8             5.4132     0.2995     0.5016 C.ar    
   9 C9             5.1957     1.6674     0.4747 C.ar    
  10 C10            3.8758     2.2282     0.0195 C.3     
  11 C11            6.6409    -0.1959     0.9255 C.ar    
  12 C12            7.6405     0.6730     1.3181 C.ar    
  13 C13            7.4198     2.0389     1.2901 C.ar    
  14 C14            6.2003     2.5334     0.8694 C.ar    
  15 O15            2.6858     6.0328    -0.7143 O.3     
  16 C16            3.5934     5.0517    -0.5463 C.2     
  17 C17            3.8767     4.1107    -1.6493 C.ar    
  18 C18            4.0148     2.7461    -1.3888 C.ar    
  19 C19            4.0018     4.5814    -2.9581 C.ar    
  20 C20            4.2663     3.6974    -3.9832 C.ar    
  21 C21            4.4078     2.3467    -3.7171 C.ar    
  22 C22            4.2794     1.8728    -2.4237 C.ar    
  23 O23            4.1790     4.9407     0.5121 O.2     
  24 Cl24           9.1728     0.0517     1.8470 Cl      
  25 Cl25          -0.4285    -1.9654     0.1635 Cl      
  26 H26           -0.5530     0.8792     0.0570 H       
  27 H27            2.4089    -2.1872     0.1727 H       
  28 H28            1.2149     2.5880     0.0013 H       
  29 H29            3.5878     3.0486     0.6769 H       
  30 H30            6.8134    -1.2618     0.9483 H       
  31 H31            8.2011     2.7184     1.5969 H       
  32 H32            6.0305     3.5998     0.8483 H       
  33 H33            2.5344     6.6239     0.0358 H       
  34 H34            3.8913     5.6352    -3.1672 H       
  35 H35            4.3629     4.0600    -4.9959 H       
  36 H36            4.6145     1.6587    -4.5236 H       
  37 H37            4.3913     0.8176    -2.2229 H       
@<TRIPOS>BOND
   1    1    2 ar
   2    1    6 ar
   3    1   26 1
   4    2    3 ar
   5    2   25 1
   6    3    4 ar
   7    3   27 1
   8    4    5 ar
   9    4    7 1
  10    5    6 ar
  11    5   10 1
  12    6   28 1
  13    7    8 1
  14    8    9 ar
  15    8   11 ar
  16    9   10 1
  17    9   14 ar
  18   10   18 1
  19   10   29 1
  20   11   12 ar
  21   11   30 1
  22   12   13 ar
  23   12   24 1
  24   13   14 ar
  25   13   31 1
  26   14   32 1
  27   15   16 1
  28   15   33 1
  29   16   17 1
  30   16   23 2
  31   17   18 ar
  32   17   19 ar
  33   18   22 ar
  34   19   20 ar
  35   19   34 1
  36   20   21 ar
  37   20   35 1
  38   21   22 ar
  39   21   36 1
  40   22   37 1

#	End of record

