#	Name: ASD04910531
#	Creating user name:	WinNT
#	Creation time:	15. 06. 2019 20:56

#	Modifying user name:	WinNT
#	Modification time:	15. 06. 2019 20:56

#	Program:	/corina/corina34_cracker 3.40 0067  02.08.2006

@<TRIPOS>MOLECULE
ASD04910531
  61   63    0    0    0
SMALL
NO_CHARGES


@<TRIPOS>ATOM
   1 C1             0.3796     1.4254     1.2899 C.2     
   2 C2             0.3356    -0.0762     1.1704 C.3     
   3 C3             1.7327    -0.6022     0.8350 C.3     
   4 O4             1.4214     2.0144     1.1238 O.2     
   5 O5            -0.7397     2.1090     1.5753 O.3     
   6 C6             2.8127    -2.7479     0.4268 C.2     
   7 C7             2.7696    -4.2211     0.3096 C.ar    
   8 C8             3.9305    -4.9345     0.0072 C.ar    
   9 C9             3.8835    -6.3091    -0.1002 C.ar    
  10 C10            2.6889    -6.9805     0.0906 C.ar    
  11 C11            1.5344    -6.2793     0.3906 C.ar    
  12 C12            1.5689    -4.9051     0.5066 C.ar    
  13 O13            3.8608    -2.1554     0.2597 O.2     
  14 N14            1.6899    -2.0620     0.7189 N.am    
  15 C15            2.6448    -8.4821    -0.0293 C.3     
  16 C16            2.0964    -8.8680    -1.4045 C.3     
  17 C17            2.9804    -8.2597    -2.4951 C.3     
  18 N18            1.7752    -9.0300     1.0146 N.pl3   
  19 C19            3.5916    -8.9295     2.6078 C.ar    
  20 C20            2.2909    -9.2927     2.2876 C.ar    
  21 C21            1.5051    -9.9222     3.2515 C.ar    
  22 C22            2.0569   -10.1615     4.4972 C.ar    
  23 C23            3.3667    -9.7693     4.7448 C.ar    
  24 N24            4.0839    -9.1738     3.8064 N.ar    
  25 N25            3.9337   -10.0070     6.0020 N.pl3   
  26 N26            3.3017   -10.6245     7.0892 N.2     
  27 C27            4.1491   -10.6677     8.0853 C.2     
  28 C28            5.3489   -10.0804     7.6692 C.2     
  29 C29            5.1967    -9.6857     6.3839 C.2     
  30 C30            6.5935    -9.9207     8.5037 C.3     
  31 F31            6.3724   -10.4546     9.7778 F       
  32 F32            7.6548   -10.5970     7.8925 F       
  33 F33            6.9089    -8.5623     8.6156 F       
  34 C34            2.0919   -10.3917    -1.5425 C.3     
  35 C35            0.6685    -8.3384    -1.5511 C.3     
  36 H36            0.0026    -0.5062     2.1150 H       
  37 H37           -0.3584    -0.3575     0.3784 H       
  38 H38            2.0657    -0.1722    -0.1096 H       
  39 H39            2.4267    -0.3209     1.6270 H       
  40 H40           -0.6620     3.0706     1.6418 H       
  41 H41            4.8635    -4.4115    -0.1427 H       
  42 H42            4.7811    -6.8623    -0.3341 H       
  43 H43            0.6051    -6.8094     0.5384 H       
  44 H44            0.6680    -4.3593     0.7452 H       
  45 H45            0.8535    -2.5349     0.8523 H       
  46 H46            3.6507    -8.8855     0.0870 H       
  47 H47            3.9977    -8.6370    -2.3907 H       
  48 H48            2.5897    -8.5347    -3.4748 H       
  49 H49            2.9836    -7.1742    -2.3968 H       
  50 H50            0.8416    -9.2106     0.8228 H       
  51 H51            4.2089    -8.4453     1.8655 H       
  52 H52            0.4894   -10.2159     3.0311 H       
  53 H53            1.4767   -10.6469     5.2680 H       
  54 H54            3.9552   -11.0851     9.0623 H       
  55 H55            5.9437    -9.2006     5.7730 H       
  56 H56            1.5258   -10.8294    -0.7202 H       
  57 H57            1.6300   -10.6694    -2.4899 H       
  58 H58            3.1167   -10.7620    -1.5156 H       
  59 H59            0.6717    -7.2528    -1.4528 H       
  60 H60            0.2778    -8.6133    -2.5308 H       
  61 H61            0.0387    -8.7717    -0.7741 H       
@<TRIPOS>BOND
   1    1    2 1
   2    1    4 2
   3    1    5 1
   4    2    3 1
   5    2   36 1
   6    2   37 1
   7    3   14 1
   8    3   38 1
   9    3   39 1
  10    5   40 1
  11    6    7 1
  12    6   13 2
  13    6   14 am
  14    7    8 ar
  15    7   12 ar
  16    8    9 ar
  17    8   41 1
  18    9   10 ar
  19    9   42 1
  20   10   11 ar
  21   10   15 1
  22   11   12 ar
  23   11   43 1
  24   12   44 1
  25   14   45 1
  26   15   16 1
  27   15   18 1
  28   15   46 1
  29   16   17 1
  30   16   34 1
  31   16   35 1
  32   17   47 1
  33   17   48 1
  34   17   49 1
  35   18   20 1
  36   18   50 1
  37   19   20 ar
  38   19   24 ar
  39   19   51 1
  40   20   21 ar
  41   21   22 ar
  42   21   52 1
  43   22   23 ar
  44   22   53 1
  45   23   24 ar
  46   23   25 1
  47   25   26 1
  48   25   29 1
  49   26   27 2
  50   27   28 1
  51   27   54 1
  52   28   29 2
  53   28   30 1
  54   29   55 1
  55   30   31 1
  56   30   32 1
  57   30   33 1
  58   34   56 1
  59   34   57 1
  60   34   58 1
  61   35   59 1
  62   35   60 1
  63   35   61 1

#	End of record

