#	Name: ASD01870061
#	Creating user name:	WinNT
#	Creation time:	15. 06. 2019 19:38

#	Modifying user name:	WinNT
#	Modification time:	15. 06. 2019 19:38

#	Program:	/corina/corina34_cracker 3.40 0067  02.08.2006

@<TRIPOS>MOLECULE
ASD01870061
  46   49    0    0    0
SMALL
NO_CHARGES


@<TRIPOS>ATOM
   1 C1            -0.0324     1.5502    -0.2882 C.ar    
   2 C2            -0.0460     0.2527    -0.7629 C.ar    
   3 N3             1.0714    -0.4005    -0.9910 N.ar    
   4 C4             2.2761     0.1440    -0.7806 C.ar    
   5 C5             2.3782     1.4463    -0.3037 C.ar    
   6 C6             1.1853     2.1721    -0.0493 C.ar    
   7 S7             3.8752    -0.5466    -1.0171 S.3     
   8 C8             4.6822     0.9141    -0.4754 C.2     
   9 C9             3.7658     1.8846    -0.1299 C.2     
  10 C10            6.0666     1.2082    -0.3548 C.2     
  11 N11            6.4346     2.4251     0.0930 N.am    
  12 C12            5.4875     3.3439     0.4194 C.2     
  13 N13            4.2198     3.0885     0.3141 N.2     
  14 N14            1.2353     3.4746     0.4267 N.3     
  15 C15            7.7925     2.7426     0.2225 C.ar    
  16 O16            6.9068     0.3748    -0.6506 O.2     
  17 C17            0.5789     4.4012    -0.5052 C.3     
  18 C18            0.6421     3.5682     1.7674 C.3     
  19 C19            8.4678     2.4442     1.3986 C.ar    
  20 C20            9.8070     2.7581     1.5229 C.ar    
  21 C21           10.4753     3.3694     0.4780 C.ar    
  22 C22            9.8055     3.6683    -0.6943 C.ar    
  23 C23            8.4678     3.3513    -0.8272 C.ar    
  24 C24           11.9364     3.7110     0.6172 C.3     
  25 C25           12.7840     2.5328     0.1333 C.3     
  26 C26            5.9224     4.6977     0.9184 C.3     
  27 H27           -0.9587     2.0760    -0.1092 H       
  28 H28           -0.9920    -0.2337    -0.9497 H       
  29 H29           -0.4653     4.1139    -0.6282 H       
  30 H30            0.6325     5.4148    -0.1078 H       
  31 H31            1.0826     4.3625    -1.4711 H       
  32 H32            1.1918     2.9240     2.4537 H       
  33 H33            0.6944     4.5994     2.1166 H       
  34 H34           -0.3998     3.2507     1.7267 H       
  35 H35            7.9462     1.9674     2.2153 H       
  36 H36           10.3327     2.5262     2.4374 H       
  37 H37           10.3301     4.1460    -1.5086 H       
  38 H38            7.9454     3.5846    -1.7432 H       
  39 H39           12.1624     4.5921     0.0166 H       
  40 H40           12.1634     3.9164     1.6633 H       
  41 H41           13.8409     2.7799     0.2340 H       
  42 H42           12.5581     1.6517     0.7339 H       
  43 H43           12.5570     2.3273    -0.9128 H       
  44 H44            5.9886     5.3902     0.0793 H       
  45 H45            5.1952     5.0698     1.6401 H       
  46 H46            6.8981     4.6124     1.3969 H       
@<TRIPOS>BOND
   1    1    2 ar
   2    1    6 ar
   3    1   27 1
   4    2    3 ar
   5    2   28 1
   6    3    4 ar
   7    4    5 ar
   8    4    7 1
   9    5    6 ar
  10    5    9 1
  11    6   14 1
  12    7    8 1
  13    8    9 2
  14    8   10 1
  15    9   13 1
  16   10   11 am
  17   10   16 2
  18   11   12 1
  19   11   15 1
  20   12   13 2
  21   12   26 1
  22   14   17 1
  23   14   18 1
  24   15   19 ar
  25   15   23 ar
  26   17   29 1
  27   17   30 1
  28   17   31 1
  29   18   32 1
  30   18   33 1
  31   18   34 1
  32   19   20 ar
  33   19   35 1
  34   20   21 ar
  35   20   36 1
  36   21   22 ar
  37   21   24 1
  38   22   23 ar
  39   22   37 1
  40   23   38 1
  41   24   25 1
  42   24   39 1
  43   24   40 1
  44   25   41 1
  45   25   42 1
  46   25   43 1
  47   26   44 1
  48   26   45 1
  49   26   46 1

#	End of record

