#	Name: ASD02560132
#	Creating user name:	WinNT
#	Creation time:	15. 06. 2019 20:24

#	Modifying user name:	WinNT
#	Modification time:	15. 06. 2019 20:24

#	Program:	/corina/corina34_cracker 3.40 0067  02.08.2006

@<TRIPOS>MOLECULE
ASD02560132
  56   60    0    0    0
SMALL
NO_CHARGES


@<TRIPOS>ATOM
   1 N1            -0.3702     1.5094     0.2461 N.2     
   2 N2            -0.6218     0.3017     0.1885 N.2     
   3 C3             1.0511     1.7692    -0.0173 C.3     
   4 N4             1.7125     0.4491     0.1397 N.3     
   5 C5             0.5829    -0.4776    -0.1246 C.3     
   6 S6             0.6929    -1.9315     0.9546 S.3     
   7 C7             0.6154    -1.2118     2.6179 C.3     
   8 C8             0.6964    -2.3113     3.6453 C.2     
   9 O9             0.7965    -3.4668     3.2904 O.2     
  10 N10            0.6575    -2.0107     4.9586 N.am    
  11 Br11           1.2959     2.4442    -1.8475 Br      
  12 C12            2.7254     0.2831    -0.8023 C.ar    
  13 C13            0.6142    -3.0359     5.9100 C.ar    
  14 C14            0.9675    -2.7774     7.2281 C.ar    
  15 C15            0.9237    -3.7912     8.1646 C.ar    
  16 C16            0.5287    -5.0630     7.7912 C.ar    
  17 C17            0.1769    -5.3236     6.4798 C.ar    
  18 C18            0.2126    -4.3123     5.5395 C.ar    
  19 S19            0.4742    -6.3539     8.9892 S.o2    
  20 O20            0.5892    -7.5740     8.2699 O.2     
  21 O21            1.3685    -5.9762    10.0270 O.2     
  22 C22            4.0795     0.2515    -0.4066 C.ar    
  23 C23            2.4254     0.1399    -2.1439 C.ar    
  24 C24            3.4168    -0.0287    -3.1105 C.ar    
  25 C25            4.7315    -0.0585    -2.7543 C.ar    
  26 C26            5.0515     0.0796    -1.4071 C.ar    
  27 C27            6.4144     0.0379    -1.1294 C.ar    
  28 C28            6.8067     0.1667     0.1680 C.ar    
  29 C29            5.8574     0.3346     1.1785 C.ar    
  30 C30            4.5175     0.3810     0.9198 C.ar    
  31 C31            6.0274    -0.2203    -3.5119 C.3     
  32 C32            7.1372    -0.1530    -2.4405 C.3     
  33 N33           -1.0431    -6.3433     9.6526 N.am    
  34 C34            1.3985    -1.3921     7.6358 C.3     
  35 H35            1.4475     2.4809     0.7068 H       
  36 H36            0.5776    -0.7806    -1.1716 H       
  37 H37            1.4497    -0.5239     2.7554 H       
  38 H38           -0.3240    -0.6719     2.7368 H       
  39 H39            0.6596    -1.0837     5.2442 H       
  40 H40            1.1986    -3.5910     9.1897 H       
  41 H41           -0.1308    -6.3179     6.1912 H       
  42 H42           -0.0627    -4.5165     4.5153 H       
  43 H43            1.3909     0.1588    -2.4534 H       
  44 H44            3.1402    -0.1369    -4.1488 H       
  45 H45            7.8572     0.1385     0.4170 H       
  46 H46            6.1950     0.4343     2.1996 H       
  47 H47            3.8071     0.5119     1.7226 H       
  48 H48            6.0499    -1.1843    -4.0202 H       
  49 H49            6.1481     0.5897    -4.2312 H       
  50 H50            7.8007     0.6893    -2.6364 H       
  51 H51            7.7030    -1.0845    -2.4236 H       
  52 H52           -1.4354    -7.1682     9.9791 H       
  53 H53           -1.5395    -5.5123     9.7146 H       
  54 H54            0.5266    -0.8175     7.9484 H       
  55 H55            2.1046    -1.4600     8.4633 H       
  56 H56            1.8761    -0.8967     6.7904 H       
@<TRIPOS>BOND
   1    1    2 2
   2    1    3 1
   3    2    5 1
   4    3    4 1
   5    3   11 1
   6    3   35 1
   7    4    5 1
   8    4   12 1
   9    5    6 1
  10    5   36 1
  11    6    7 1
  12    7    8 1
  13    7   37 1
  14    7   38 1
  15    8    9 2
  16    8   10 am
  17   10   13 1
  18   10   39 1
  19   12   22 ar
  20   12   23 ar
  21   13   14 ar
  22   13   18 ar
  23   14   15 ar
  24   14   34 1
  25   15   16 ar
  26   15   40 1
  27   16   17 ar
  28   16   19 1
  29   17   18 ar
  30   17   41 1
  31   18   42 1
  32   19   20 2
  33   19   21 2
  34   19   33 am
  35   22   26 ar
  36   22   30 ar
  37   23   24 ar
  38   23   43 1
  39   24   25 ar
  40   24   44 1
  41   25   26 ar
  42   25   31 1
  43   26   27 ar
  44   27   28 ar
  45   27   32 1
  46   28   29 ar
  47   28   45 1
  48   29   30 ar
  49   29   46 1
  50   30   47 1
  51   31   32 1
  52   31   48 1
  53   31   49 1
  54   32   50 1
  55   32   51 1
  56   33   52 1
  57   33   53 1
  58   34   54 1
  59   34   55 1
  60   34   56 1

#	End of record

