#	Name: ASD02500216
#	Creating user name:	WinNT
#	Creation time:	15. 06. 2019 20:22

#	Modifying user name:	WinNT
#	Modification time:	15. 06. 2019 20:22

#	Program:	/corina/corina34_cracker 3.40 0067  02.08.2006

@<TRIPOS>MOLECULE
ASD02500216
  59   63    0    0    0
SMALL
NO_CHARGES


@<TRIPOS>ATOM
   1 N1            -4.1255     5.4526    -0.0696 N.ar    
   2 C2            -5.2498     6.0217    -0.4305 C.ar    
   3 C3            -6.4363     5.8104     0.2688 C.ar    
   4 C4            -6.4467     4.9913     1.3616 C.ar    
   5 C5            -5.2376     4.3814     1.7461 C.ar    
   6 C6            -5.1706     3.5276     2.8585 C.ar    
   7 C7            -3.9818     2.9571     3.1984 C.ar    
   8 C8            -2.8298     3.2098     2.4569 C.ar    
   9 C9            -2.8586     4.0323     1.3728 C.ar    
  10 C10           -4.0670     4.6399     0.9903 C.ar    
  11 S11           -1.3866     4.3350     0.4530 S.o2    
  12 O12           -1.2319     5.7464     0.3964 O.2     
  13 O13           -0.3959     3.4653     0.9835 O.2     
  14 N14           -1.6668     3.8326    -1.0999 N.am    
  15 C15           -1.8511     2.4799    -1.3712 C.ar    
  16 C16           -1.3687     1.9369    -2.5612 C.ar    
  17 C17           -1.5501     0.5984    -2.8316 C.ar    
  18 C18           -2.2187    -0.2146    -1.9109 C.ar    
  19 C19           -2.7005     0.3338    -0.7194 C.ar    
  20 C20           -2.5113     1.6712    -0.4519 C.ar    
  21 C21           -2.4153    -1.6484    -2.1971 C.2     
  22 O22           -2.2185    -2.4746    -1.3270 O.2     
  23 N23           -2.8129    -2.0424    -3.4231 N.am    
  24 C24           -3.1497    -3.4490    -3.6840 C.3     
  25 C25           -4.5694    -3.5141    -4.2607 C.3     
  26 N26           -4.6745    -2.5449    -5.3604 N.am    
  27 C27           -4.3377    -1.1384    -5.0995 C.3     
  28 C28           -2.9234    -1.0722    -4.5214 C.3     
  29 C29           -5.3767    -1.9289    -7.6268 C.ar    
  30 C30           -5.6247    -2.3380    -8.9351 C.ar    
  31 C31           -5.9137    -1.3820    -9.8960 C.ar    
  32 C32           -5.9447    -0.0496    -9.5147 C.ar    
  33 C33           -5.6879     0.2854    -8.1950 C.ar    
  34 N34           -5.4162    -0.6423    -7.3032 N.ar    
  35 C35           -5.0722    -2.9390    -6.5864 C.2     
  36 O36           -5.1810    -4.1227    -6.8385 O.2     
  37 F37           -0.7235     2.7238    -3.4498 F       
  38 H38           -5.2566     6.6721    -1.2928 H       
  39 H39           -7.3467     6.2942    -0.0527 H       
  40 H40           -7.3572     4.8166     1.9156 H       
  41 H41           -6.0568     3.3247     3.4415 H       
  42 H42           -3.9313     2.3004     4.0543 H       
  43 H43           -1.8987     2.7458     2.7471 H       
  44 H44           -1.7025     4.4810    -1.8204 H       
  45 H45           -1.1768     0.1775    -3.7536 H       
  46 H46           -3.2171    -0.2919    -0.0067 H       
  47 H47           -2.8797     2.0938     0.4712 H       
  48 H48           -2.4438    -3.8671    -4.4016 H       
  49 H49           -3.1067    -4.0142    -2.7530 H       
  50 H50           -4.7654    -4.5179    -4.6377 H       
  51 H51           -5.2918    -3.2652    -3.4833 H       
  52 H52           -4.3807    -0.5731    -6.0305 H       
  53 H53           -5.0436    -0.7202    -4.3819 H       
  54 H54           -2.7310    -0.0681    -4.1433 H       
  55 H55           -2.2010    -1.3172    -5.3000 H       
  56 H56           -5.5918    -3.3852    -9.1970 H       
  57 H57           -6.1100    -1.6686   -10.9186 H       
  58 H58           -6.1665     0.7199   -10.2394 H       
  59 H59           -5.7112     1.3225    -7.8945 H       
@<TRIPOS>BOND
   1    1    2 ar
   2    1   10 ar
   3    2    3 ar
   4    2   38 1
   5    3    4 ar
   6    3   39 1
   7    4    5 ar
   8    4   40 1
   9    5    6 ar
  10    5   10 ar
  11    6    7 ar
  12    6   41 1
  13    7    8 ar
  14    7   42 1
  15    8    9 ar
  16    8   43 1
  17    9   10 ar
  18    9   11 1
  19   11   12 2
  20   11   13 2
  21   11   14 am
  22   14   15 1
  23   14   44 1
  24   15   16 ar
  25   15   20 ar
  26   16   17 ar
  27   16   37 1
  28   17   18 ar
  29   17   45 1
  30   18   19 ar
  31   18   21 1
  32   19   20 ar
  33   19   46 1
  34   20   47 1
  35   21   22 2
  36   21   23 am
  37   23   24 1
  38   23   28 1
  39   24   25 1
  40   24   48 1
  41   24   49 1
  42   25   26 1
  43   25   50 1
  44   25   51 1
  45   26   27 1
  46   26   35 am
  47   27   28 1
  48   27   52 1
  49   27   53 1
  50   28   54 1
  51   28   55 1
  52   29   30 ar
  53   29   34 ar
  54   29   35 1
  55   30   31 ar
  56   30   56 1
  57   31   32 ar
  58   31   57 1
  59   32   33 ar
  60   32   58 1
  61   33   34 ar
  62   33   59 1
  63   35   36 2

#	End of record

