#	Name: ASD00311474
#	Creating user name:	WinNT
#	Creation time:	15. 06. 2019 18:34

#	Modifying user name:	WinNT
#	Modification time:	15. 06. 2019 18:34

#	Program:	/corina/corina34_cracker 3.40 0067  02.08.2006

@<TRIPOS>MOLECULE
ASD00311474
  46   50    0    0    0
SMALL
NO_CHARGES


@<TRIPOS>ATOM
   1 C1            -0.0167     1.3780     0.0096 C.2     
   2 C2             0.0021    -0.0041     0.0020 C.2     
   3 C3             1.2582    -0.6767    -0.0131 C.2     
   4 C4             2.4321     0.0678    -0.0199 C.2     
   5 C5             2.3575     1.4765    -0.0117 C.2     
   6 N6             1.1646     2.0909     0.0022 N.am    
   7 C7            -1.3434    -0.5751     0.0118 C.2     
   8 C8            -2.3228     0.3263     0.0260 C.2     
   9 S9            -1.6794     1.9564     0.0358 S.3     
  10 O10            3.3819     2.1390    -0.0171 O.2     
  11 C11            5.8245    -1.1329    -1.1031 C.ar    
  12 C12            4.6089    -0.4837    -1.1308 C.ar    
  13 C13            3.7467    -0.6104    -0.0352 C.ar    
  14 C14            4.1632    -1.3965     1.0459 C.ar    
  15 C15            5.3961    -2.0102     0.9900 C.ar    
  16 N16            6.1786    -1.8648    -0.0631 N.ar    
  17 C17           -2.0693    -4.7662    -0.0044 C.ar    
  18 C18           -2.7064    -3.9518     0.9318 C.ar    
  19 C19           -2.4715    -2.5948     0.9375 C.ar    
  20 C20           -1.5960    -2.0346     0.0064 C.ar    
  21 C21           -0.9588    -2.8496    -0.9302 C.ar    
  22 C22           -1.1942    -4.2065    -0.9352 C.ar    
  23 C23           -2.3178    -6.2280    -0.0063 C.ar    
  24 C24           -1.6819    -7.0435    -0.9413 C.ar    
  25 C25           -1.9147    -8.4027    -0.9401 C.ar    
  26 C26           -2.7817    -8.9591    -0.0094 C.ar    
  27 C27           -3.4169    -8.1497     0.9227 C.ar    
  28 C28           -3.1835    -6.7906     0.9307 C.ar    
  29 O29           -3.0095   -10.2987    -0.0111 O.3     
  30 O30            1.3078    -2.0288    -0.0204 O.3     
  31 H31            1.1320     3.0604     0.0073 H       
  32 H32           -3.3754     0.0847     0.0341 H       
  33 H33            6.4946    -1.0449    -1.9455 H       
  34 H34            4.3259     0.1137    -1.9849 H       
  35 H35            3.5282    -1.5198     1.9107 H       
  36 H36            5.7263    -2.6186     1.8190 H       
  37 H37           -3.3843    -4.3854     1.6521 H       
  38 H38           -2.9651    -1.9643     1.6621 H       
  39 H39           -0.2814    -2.4163    -1.6511 H       
  40 H40           -0.7008    -4.8374    -1.6598 H       
  41 H41           -1.0079    -6.6112    -1.6660 H       
  42 H42           -1.4224    -9.0350    -1.6642 H       
  43 H43           -4.0911    -8.5855     1.6452 H       
  44 H44           -3.6745    -6.1621     1.6589 H       
  45 H45           -2.4012   -10.8018     0.5475 H       
  46 H46            2.2051    -2.3893    -0.0306 H       
@<TRIPOS>BOND
   1    1    2 2
   2    1    6 1
   3    1    9 1
   4    2    3 1
   5    2    7 1
   6    3    4 2
   7    3   30 1
   8    4    5 1
   9    4   13 1
  10    5    6 am
  11    5   10 2
  12    6   31 1
  13    7    8 2
  14    7   20 1
  15    8    9 1
  16    8   32 1
  17   11   12 ar
  18   11   16 ar
  19   11   33 1
  20   12   13 ar
  21   12   34 1
  22   13   14 ar
  23   14   15 ar
  24   14   35 1
  25   15   16 ar
  26   15   36 1
  27   17   18 ar
  28   17   22 ar
  29   17   23 1
  30   18   19 ar
  31   18   37 1
  32   19   20 ar
  33   19   38 1
  34   20   21 ar
  35   21   22 ar
  36   21   39 1
  37   22   40 1
  38   23   24 ar
  39   23   28 ar
  40   24   25 ar
  41   24   41 1
  42   25   26 ar
  43   25   42 1
  44   26   27 ar
  45   26   29 1
  46   27   28 ar
  47   27   43 1
  48   28   44 1
  49   29   45 1
  50   30   46 1

#	End of record

