#	Name: ASD01811514
#	Creating user name:	WinNT
#	Creation time:	15. 06. 2019 19:26

#	Modifying user name:	WinNT
#	Modification time:	15. 06. 2019 19:26

#	Program:	/corina/corina34_cracker 3.40 0067  02.08.2006

@<TRIPOS>MOLECULE
ASD01811514
  66   71    0    0    0
SMALL
NO_CHARGES


@<TRIPOS>ATOM
   1 C1            -0.0167     1.3784     0.0096 C.ar    
   2 C2             0.0021    -0.0041     0.0020 C.ar    
   3 C3             1.2021    -0.6848    -0.0130 C.ar    
   4 C4             2.4051     0.0174    -0.0206 C.ar    
   5 C5             2.3734     1.4075    -0.0132 C.ar    
   6 C6             1.1745     2.0835     0.0020 C.ar    
   7 N7             3.7255    -0.4351    -0.0353 N.am    
   8 C8             4.6102     0.5779    -0.0388 C.2     
   9 C9             3.8116     1.8598    -0.0253 C.3     
  10 C10            4.1040     2.6791    -1.2786 C.3     
  11 C11            5.5787     3.0898    -1.2874 C.3     
  12 C12            5.8844     3.9169    -0.0371 C.3     
  13 C13            5.6035     3.0793     1.2121 C.3     
  14 C14            4.1289     2.6683     1.2289 C.3     
  15 N15            7.2974     4.3185    -0.0494 N.3     
  16 C16            7.6268     5.0477    -1.2816 C.3     
  17 O17            8.9849     5.4896    -1.2272 O.3     
  18 C18            9.9351     4.4275    -1.1066 C.3     
  19 C19            9.6338     3.6281     0.1651 C.3     
  20 C20            8.1778     3.1535     0.1219 C.3     
  21 O21            5.8191     0.4806    -0.0502 O.2     
  22 C22            4.1040    -1.8503    -0.0458 C.3     
  23 C23            4.2209    -2.3285    -1.4701 C.ar    
  24 C24            5.3658    -2.0516    -2.1998 C.ar    
  25 C25            5.4770    -2.4889    -3.5064 C.ar    
  26 C26            4.4357    -3.2085    -4.0877 C.ar    
  27 C27            3.2874    -3.4835    -3.3488 C.ar    
  28 C28            3.1878    -3.0470    -2.0427 C.ar    
  29 F29            6.3743    -1.3531    -1.6338 F       
  30 C30            4.5490    -3.6805    -5.4909 C.2     
  31 C31            5.6450    -3.4764    -6.3517 C.2     
  32 N32            5.3708    -4.0395    -7.4985 N.2     
  33 N33            4.0996    -4.6205    -7.4162 N.pl3   
  34 C34            3.6130    -4.3958    -6.1790 C.2     
  35 C35            3.4182    -5.3514    -8.4875 C.3     
  36 H36           -0.9585     1.9069     0.0169 H       
  37 H37           -0.9274    -0.5540     0.0082 H       
  38 H38            1.2088    -1.7648    -0.0184 H       
  39 H39            1.1631     3.1635     0.0077 H       
  40 H40            3.8885     2.0796    -2.1631 H       
  41 H41            3.4782     3.5716    -1.2834 H       
  42 H42            6.2044     2.1974    -1.2948 H       
  43 H43            5.7847     3.6856    -2.1766 H       
  44 H44            5.2544     4.8064    -0.0271 H       
  45 H45            6.2293     2.1870     1.1996 H       
  46 H46            5.8269     3.6677     2.1020 H       
  47 H47            3.5034     3.5606     1.2538 H       
  48 H48            3.9311     2.0612     2.1123 H       
  49 H49            7.4933     4.3892    -2.1399 H       
  50 H50            6.9679     5.9104    -1.3802 H       
  51 H51            9.8619     3.7725    -1.9748 H       
  52 H52           10.9409     4.8433    -1.0460 H       
  53 H53           10.2974     2.7650     0.2193 H       
  54 H54            9.7852     4.2619     1.0389 H       
  55 H55            7.9323     2.6451     1.0543 H       
  56 H56            8.0424     2.4682    -0.7149 H       
  57 H57            5.0623    -1.9738     0.4588 H       
  58 H58            3.3428    -2.4338     0.4721 H       
  59 H59            6.3692    -2.2729    -4.0754 H       
  60 H60            2.4775    -4.0407    -3.7958 H       
  61 H61            2.2976    -3.2606    -1.4697 H       
  62 H62            6.5535    -2.9462    -6.1068 H       
  63 H63            2.6532    -4.7181    -5.8029 H       
  64 H64            3.6711    -6.4097    -8.4232 H       
  65 H65            2.3403    -5.2284    -8.3826 H       
  66 H66            3.7363    -4.9598    -9.4537 H       
@<TRIPOS>BOND
   1    1    2 ar
   2    1    6 ar
   3    1   36 1
   4    2    3 ar
   5    2   37 1
   6    3    4 ar
   7    3   38 1
   8    4    5 ar
   9    4    7 1
  10    5    6 ar
  11    5    9 1
  12    6   39 1
  13    7    8 am
  14    7   22 1
  15    8    9 1
  16    8   21 2
  17    9   10 1
  18    9   14 1
  19   10   11 1
  20   10   40 1
  21   10   41 1
  22   11   12 1
  23   11   42 1
  24   11   43 1
  25   12   13 1
  26   12   15 1
  27   12   44 1
  28   13   14 1
  29   13   45 1
  30   13   46 1
  31   14   47 1
  32   14   48 1
  33   15   16 1
  34   15   20 1
  35   16   17 1
  36   16   49 1
  37   16   50 1
  38   17   18 1
  39   18   19 1
  40   18   51 1
  41   18   52 1
  42   19   20 1
  43   19   53 1
  44   19   54 1
  45   20   55 1
  46   20   56 1
  47   22   23 1
  48   22   57 1
  49   22   58 1
  50   23   24 ar
  51   23   28 ar
  52   24   25 ar
  53   24   29 1
  54   25   26 ar
  55   25   59 1
  56   26   27 ar
  57   26   30 1
  58   27   28 ar
  59   27   60 1
  60   28   61 1
  61   30   31 1
  62   30   34 2
  63   31   32 2
  64   31   62 1
  65   32   33 1
  66   33   34 1
  67   33   35 1
  68   34   63 1
  69   35   64 1
  70   35   65 1
  71   35   66 1

#	End of record

