#	Name: ASD01910276
#	Creating user name:	WinNT
#	Creation time:	15. 06. 2019 19:55

#	Modifying user name:	WinNT
#	Modification time:	15. 06. 2019 19:55

#	Program:	/corina/corina34_cracker 3.40 0067  02.08.2006

@<TRIPOS>MOLECULE
ASD01910276
  51   55    0    0    0
SMALL
NO_CHARGES


@<TRIPOS>ATOM
   1 C1            -0.0198     1.4723    -0.0092 C.ar    
   2 C2             0.0021    -0.0041     0.0020 C.2     
   3 O3             1.0597    -0.5971    -0.0871 O.2     
   4 N4            -1.1504    -0.6943     0.1110 N.am    
   5 C5            -1.1597    -2.1589    -0.0049 C.3     
   6 C6            -1.8500    -2.7469     1.2298 C.3     
   7 C7            -3.2377    -2.1195     1.3807 C.3     
   8 C8            -3.0975    -0.6086     1.5794 C.3     
   9 C9            -2.4205     0.0032     0.3542 C.3     
  10 N10           -2.5684    -6.0733     0.2510 N.2     
  11 C11           -1.8602    -6.3402     1.3176 C.2     
  12 N12           -1.4806    -5.1570     1.8510 N.2     
  13 C13           -1.9874    -4.2387     1.0666 C.2     
  14 O14           -2.6499    -4.8733     0.0945 O.3     
  15 C15           -1.5344    -7.6888     1.8438 C.ar    
  16 C16           -1.9965    -8.8264     1.1848 C.ar    
  17 C17           -1.6912   -10.0783     1.6775 C.ar    
  18 C18           -0.9267   -10.2055     2.8261 C.ar    
  19 C19           -0.4652    -9.0770     3.4845 C.ar    
  20 C20           -0.7606    -7.8214     2.9952 C.ar    
  21 F21           -0.6308   -11.4334     3.3057 F       
  22 C22            0.9428     2.1923     0.7027 C.ar    
  23 C23            0.9197     3.5693     0.6896 C.ar    
  24 C24           -0.0604     4.2429    -0.0308 C.ar    
  25 C25           -1.0203     3.5297    -0.7402 C.ar    
  26 C26           -0.9996     2.1526    -0.7366 C.ar    
  27 N27           -0.0811     5.6413    -0.0415 N.pl3   
  28 C28            0.7867     6.4673     0.6004 C.2     
  29 N29            0.4455     7.7021     0.3520 N.2     
  30 C30           -0.6344     7.7137    -0.4439 C.2     
  31 C31           -0.9773     6.4387    -0.7065 C.2     
  32 H32           -1.7051    -2.4510    -0.9023 H       
  33 H33           -0.1354    -2.5275    -0.0611 H       
  34 H34           -1.2546    -2.5308     2.1170 H       
  35 H35           -3.8241    -2.3149     0.4829 H       
  36 H36           -3.7408    -2.5542     2.2445 H       
  37 H37           -4.0848    -0.1656     1.7101 H       
  38 H38           -2.4904    -0.4126     2.4632 H       
  39 H39           -2.2294     1.0614     0.5326 H       
  40 H40           -3.0668    -0.1119    -0.5160 H       
  41 H41           -2.5930    -8.7281     0.2899 H       
  42 H42           -2.0489   -10.9605     1.1674 H       
  43 H43            0.1301    -9.1805     4.3796 H       
  44 H44           -0.4005    -6.9423     3.5089 H       
  45 H45            1.7040     1.6697     1.2630 H       
  46 H46            1.6635     4.1265     1.2397 H       
  47 H47           -1.7803     4.0562    -1.2983 H       
  48 H48           -1.7452     1.5992    -1.2881 H       
  49 H49            1.6188     6.1542     1.2136 H       
  50 H50           -1.1390     8.5941    -0.8136 H       
  51 H51           -1.8033     6.1072    -1.3184 H       
@<TRIPOS>BOND
   1    1    2 1
   2    1   22 ar
   3    1   26 ar
   4    2    3 2
   5    2    4 am
   6    4    5 1
   7    4    9 1
   8    5    6 1
   9    5   32 1
  10    5   33 1
  11    6    7 1
  12    6   13 1
  13    6   34 1
  14    7    8 1
  15    7   35 1
  16    7   36 1
  17    8    9 1
  18    8   37 1
  19    8   38 1
  20    9   39 1
  21    9   40 1
  22   10   11 2
  23   10   14 1
  24   11   12 1
  25   11   15 1
  26   12   13 2
  27   13   14 1
  28   15   16 ar
  29   15   20 ar
  30   16   17 ar
  31   16   41 1
  32   17   18 ar
  33   17   42 1
  34   18   19 ar
  35   18   21 1
  36   19   20 ar
  37   19   43 1
  38   20   44 1
  39   22   23 ar
  40   22   45 1
  41   23   24 ar
  42   23   46 1
  43   24   25 ar
  44   24   27 1
  45   25   26 ar
  46   25   47 1
  47   26   48 1
  48   27   28 1
  49   27   31 1
  50   28   29 2
  51   28   49 1
  52   29   30 1
  53   30   31 2
  54   30   50 1
  55   31   51 1

#	End of record

