#	Name: ASD02030616
#	Creating user name:	WinNT
#	Creation time:	15. 06. 2019 20:15

#	Modifying user name:	WinNT
#	Modification time:	15. 06. 2019 20:15

#	Program:	/corina/corina34_cracker 3.40 0067  02.08.2006

@<TRIPOS>MOLECULE
ASD02030616
  64   67    0    0    0
SMALL
NO_CHARGES


@<TRIPOS>ATOM
   1 C1             0.1628     1.1552    -0.0915 C.ar    
   2 C2             0.0214    -0.2161    -0.0957 C.ar    
   3 C3             1.1485    -1.0224    -0.1652 C.ar    
   4 C4             2.4040    -0.4428    -0.2239 C.ar    
   5 C5             2.5445     0.9390    -0.2131 C.ar    
   6 C6             1.4227     1.7358    -0.1559 C.ar    
   7 C7             1.5019     3.2419    -0.1745 C.3     
   8 C8             3.9425     1.4980    -0.2505 C.3     
   9 C9             3.9348     2.9514    -0.7214 C.3     
  10 N10            2.8909     3.6663     0.0300 N.am    
  11 C11            1.0044     3.7613    -1.5249 C.3     
  12 O12            1.7445     3.1384    -2.5767 O.3     
  13 C13            1.4245     3.4922    -3.8501 C.ar    
  14 C14            3.1996     4.6713     0.8733 C.2     
  15 O15            4.3632     4.9543     1.0815 O.2     
  16 C16            2.1227     5.4296     1.5451 C.ar    
  17 C17            0.7727     4.2122    -6.4425 C.ar    
  18 C18            0.0980     4.7833    -5.3737 C.ar    
  19 C19            0.4230     4.4238    -4.0802 C.ar    
  20 C20            2.1034     2.9258    -4.9187 C.ar    
  21 C21            1.7784     3.2852    -6.2122 C.ar    
  22 C22            2.3029     5.8981     2.8471 C.ar    
  23 C23            0.9236     5.6849     0.8775 C.ar    
  24 C24           -0.0774     6.3929     1.5095 C.ar    
  25 C25            0.1046     6.8501     2.8027 C.ar    
  26 C26            1.2932     6.6056     3.4687 C.ar    
  27 O27            0.4527     4.5661    -7.7159 O.3     
  28 C28            1.1882     3.9382    -8.7679 C.3     
  29 C29            0.6915     4.4584   -10.1183 C.3     
  30 O30            1.0203    -2.3753    -0.1752 O.3     
  31 C31           -0.2935    -2.9039     0.0159 C.3     
  32 C32           -0.9436    -3.1591    -1.3454 C.3     
  33 C33           -0.2062    -4.2185     0.7939 C.3     
  34 Br34           1.5343     7.2412     5.2333 Br      
  35 H35           -0.7142     1.7836    -0.0421 H       
  36 H36           -0.9616    -0.6606    -0.0447 H       
  37 H37            3.2815    -1.0700    -0.2782 H       
  38 H38            0.8778     3.6478     0.6217 H       
  39 H39            4.3758     1.4471     0.7484 H       
  40 H40            4.5483     0.9030    -0.9339 H       
  41 H41            4.9061     3.4067    -0.5279 H       
  42 H42            3.7136     2.9922    -1.7879 H       
  43 H43           -0.0540     3.5265    -1.6369 H       
  44 H44            1.1441     4.8413    -1.5726 H       
  45 H45           -0.6851     5.5051    -5.5529 H       
  46 H46           -0.1029     4.8679    -3.2479 H       
  47 H47            2.8865     2.2040    -4.7394 H       
  48 H48            2.3037     2.8405    -7.0445 H       
  49 H49            3.2299     5.7075     3.3675 H       
  50 H50            0.7800     5.3290    -0.1320 H       
  51 H51           -1.0053     6.5911     0.9937 H       
  52 H52           -0.6822     7.4042     3.2928 H       
  53 H53            2.2480     4.1680    -8.6576 H       
  54 H54            1.0434     2.8590    -8.7187 H       
  55 H55           -0.3683     4.2287   -10.2287 H       
  56 H56            0.8364     5.5376   -10.1676 H       
  57 H57            1.2525     3.9795   -10.9208 H       
  58 H58           -0.8947    -2.1887     0.5773 H       
  59 H59           -0.3423    -3.8743    -1.9068 H       
  60 H60           -1.9457    -3.5623    -1.1996 H       
  61 H61           -1.0058    -2.2226    -1.8996 H       
  62 H62            0.2569    -4.0366     1.7637 H       
  63 H63           -1.2083    -4.6216     0.9396 H       
  64 H64            0.3951    -4.9336     0.2325 H       
@<TRIPOS>BOND
   1    1    2 ar
   2    1    6 ar
   3    1   35 1
   4    2    3 ar
   5    2   36 1
   6    3    4 ar
   7    3   30 1
   8    4    5 ar
   9    4   37 1
  10    5    6 ar
  11    5    8 1
  12    6    7 1
  13    7   10 1
  14    7   11 1
  15    7   38 1
  16    8    9 1
  17    8   39 1
  18    8   40 1
  19    9   10 1
  20    9   41 1
  21    9   42 1
  22   10   14 am
  23   11   12 1
  24   11   43 1
  25   11   44 1
  26   12   13 1
  27   13   20 ar
  28   13   19 ar
  29   14   15 2
  30   14   16 1
  31   16   23 ar
  32   16   22 ar
  33   17   18 ar
  34   17   21 ar
  35   17   27 1
  36   18   19 ar
  37   18   45 1
  38   19   46 1
  39   20   21 ar
  40   20   47 1
  41   21   48 1
  42   22   26 ar
  43   22   49 1
  44   23   24 ar
  45   23   50 1
  46   24   25 ar
  47   24   51 1
  48   25   26 ar
  49   25   52 1
  50   26   34 1
  51   27   28 1
  52   28   29 1
  53   28   53 1
  54   28   54 1
  55   29   55 1
  56   29   56 1
  57   29   57 1
  58   30   31 1
  59   31   32 1
  60   31   33 1
  61   31   58 1
  62   32   59 1
  63   32   60 1
  64   32   61 1
  65   33   62 1
  66   33   63 1
  67   33   64 1

#	End of record

