#	Name: ASD03090626
#	Creating user name:	WinNT
#	Creation time:	15. 06. 2019 20:29

#	Modifying user name:	WinNT
#	Modification time:	15. 06. 2019 20:29

#	Program:	/corina/corina34_cracker 3.40 0067  02.08.2006

@<TRIPOS>MOLECULE
ASD03090626
  34   35    0    0    0
SMALL
NO_CHARGES


@<TRIPOS>ATOM
   1 N1            -0.0162     1.3436     0.0094 N.am    
   2 C2             0.0259     0.1493     0.6326 C.2     
   3 O3             1.0819    -0.2779     1.0575 O.2     
   4 N4            -1.1027    -0.5716     0.7848 N.am    
   5 O5            -1.7112    -3.6128     2.2321 O.3     
   6 N6            -2.0644    -2.6139     1.6494 N.2     
   7 C7            -1.0592    -1.8075     1.4297 C.2     
   8 C8             0.0862    -2.4427     1.9791 C.2     
   9 C9            -0.3940    -3.6024     2.4826 C.2     
  10 C10            0.3970    -4.6740     3.1877 C.3     
  11 C11            1.1404     2.1314    -0.0749 C.ar    
  12 C12            1.0341     3.5108    -0.2052 C.ar    
  13 C13            2.1747     4.2861    -0.2882 C.ar    
  14 C14            3.4253     3.6874    -0.2416 C.ar    
  15 C15            3.5316     2.3107    -0.1115 C.ar    
  16 C16            2.3922     1.5346    -0.0226 C.ar    
  17 C17            4.8907     1.6618    -0.0610 C.3     
  18 O18            4.5475     4.4508    -0.3238 O.3     
  19 C19            4.3641     5.8617    -0.4569 C.3     
  20 Cl20          -0.5311     4.2594    -0.2641 Cl      
  21 H21           -0.8458     1.6562    -0.3842 H       
  22 H22           -1.9453    -0.2308     0.4458 H       
  23 H23            1.1045    -2.0833     1.9914 H       
  24 H24           -0.2693    -5.4870     3.4761 H       
  25 H25            1.1680    -5.0561     2.5186 H       
  26 H26            0.8644    -4.2539     4.0783 H       
  27 H27            2.0926     5.3582    -0.3899 H       
  28 H28            2.4756     0.4630     0.0831 H       
  29 H29            5.2268     1.6025     0.9742 H       
  30 H30            4.8299     0.6579    -0.4812 H       
  31 H31            5.5986     2.2554    -0.6394 H       
  32 H32            3.8005     6.0707    -1.3662 H       
  33 H33            3.8153     6.2397     0.4057 H       
  34 H34            5.3366     6.3510    -0.5117 H       
@<TRIPOS>BOND
   1    1    2 am
   2    1   11 1
   3    1   21 1
   4    2    3 2
   5    2    4 am
   6    4    7 1
   7    4   22 1
   8    5    6 1
   9    5    9 1
  10    6    7 2
  11    7    8 1
  12    8    9 2
  13    8   23 1
  14    9   10 1
  15   10   24 1
  16   10   25 1
  17   10   26 1
  18   11   12 ar
  19   11   16 ar
  20   12   13 ar
  21   12   20 1
  22   13   14 ar
  23   13   27 1
  24   14   15 ar
  25   14   18 1
  26   15   16 ar
  27   15   17 1
  28   16   28 1
  29   17   29 1
  30   17   30 1
  31   17   31 1
  32   18   19 1
  33   19   32 1
  34   19   33 1
  35   19   34 1

#	End of record

