#	Name: ASD01813654
#	Creating user name:	WinNT
#	Creation time:	15. 06. 2019 19:30

#	Modifying user name:	WinNT
#	Modification time:	15. 06. 2019 19:30

#	Program:	/corina/corina34_cracker 3.40 0067  02.08.2006

@<TRIPOS>MOLECULE
ASD01813654
  42   45    0    0    0
SMALL
NO_CHARGES


@<TRIPOS>ATOM
   1 C1             0.0980     1.4755     0.3559 C.ar    
   2 C2             0.0799     0.0882     0.3481 C.ar    
   3 C3             1.2501    -0.6307     0.2175 C.ar    
   4 C4             2.4672     0.0383     0.0917 C.ar    
   5 C5             2.4807     1.4430     0.1000 C.ar    
   6 C6             1.2892     2.1559     0.2329 C.ar    
   7 N7             3.6443    -0.6677    -0.0386 N.pl3   
   8 C8             4.8374    -0.0728    -0.1610 C.2     
   9 C9             4.9774     1.3006    -0.1658 C.2     
  10 C10            3.7746     2.1383    -0.0339 C.2     
  11 O11            3.8449     3.3548    -0.0328 O.2     
  12 C12            6.3053     1.9158    -0.3014 C.2     
  13 O13            6.4290     3.2582    -0.3047 O.3     
  14 O14            7.2920     1.2142    -0.4104 O.2     
  15 C15            3.5871    -2.1316    -0.0427 C.3     
  16 C16            3.4445    -2.6248    -1.4595 C.ar    
  17 C17            4.5598    -2.7692    -2.2637 C.ar    
  18 N18            4.4482    -3.1990    -3.5043 N.ar    
  19 C19            3.2703    -3.5092    -4.0295 C.ar    
  20 C20            2.1047    -3.3874    -3.2758 C.ar    
  21 C21            2.1931    -2.9437    -1.9678 C.ar    
  22 F22            1.2170    -1.9812     0.2120 F       
  23 C23            3.1932    -3.9892    -5.4310 C.ar    
  24 C24            1.9582    -4.2205    -6.0329 C.ar    
  25 N25            1.8868    -4.6468    -7.2773 N.ar    
  26 C26            2.9670    -4.8703    -8.0000 C.ar    
  27 C27            4.2323    -4.6643    -7.4744 C.ar    
  28 C28            4.3582    -4.2109    -6.1705 C.ar    
  29 F29            5.3306    -4.8981    -8.2256 F       
  30 H30           -0.8269     2.0244     0.4544 H       
  31 H31           -0.8602    -0.4344     0.4457 H       
  32 H32            1.3006     3.2359     0.2389 H       
  33 H33            5.7198    -0.6878    -0.2588 H       
  34 H34            7.3225     3.6165    -0.3963 H       
  35 H35            4.5033    -2.5323     0.3911 H       
  36 H36            2.7314    -2.4634     0.5453 H       
  37 H37            5.5356    -2.5262    -1.8698 H       
  38 H38            1.1463    -3.6399    -3.7048 H       
  39 H39            1.3071    -2.8396    -1.3590 H       
  40 H40            1.0503    -4.0491    -5.4735 H       
  41 H41            2.8638    -5.2195    -9.0167 H       
  42 H42            5.3316    -4.0415    -5.7345 H       
@<TRIPOS>BOND
   1    1    2 ar
   2    1    6 ar
   3    1   30 1
   4    2    3 ar
   5    2   31 1
   6    3    4 ar
   7    3   22 1
   8    4    5 ar
   9    4    7 1
  10    5    6 ar
  11    5   10 1
  12    6   32 1
  13    7    8 1
  14    7   15 1
  15    8    9 2
  16    8   33 1
  17    9   10 1
  18    9   12 1
  19   10   11 2
  20   12   13 1
  21   12   14 2
  22   13   34 1
  23   15   16 1
  24   15   35 1
  25   15   36 1
  26   16   17 ar
  27   16   21 ar
  28   17   18 ar
  29   17   37 1
  30   18   19 ar
  31   19   20 ar
  32   19   23 1
  33   20   21 ar
  34   20   38 1
  35   21   39 1
  36   23   24 ar
  37   23   28 ar
  38   24   25 ar
  39   24   40 1
  40   25   26 ar
  41   26   27 ar
  42   26   41 1
  43   27   28 ar
  44   27   29 1
  45   28   42 1

#	End of record

