#	Name: ASD00844326
#	Creating user name:	WinNT
#	Creation time:	15. 06. 2019 18:49

#	Modifying user name:	WinNT
#	Modification time:	15. 06. 2019 18:49

#	Program:	/corina/corina34_cracker 3.40 0067  02.08.2006

@<TRIPOS>MOLECULE
ASD00844326
  87   92    0    0    0
SMALL
NO_CHARGES


@<TRIPOS>ATOM
   1 F1            -0.0989    -3.1531     4.7116 F       
   2 C2            -0.0146     1.3805     0.0257 C.ar    
   3 C3             0.0031    -0.0065     0.0110 C.ar    
   4 C4             1.2147    -0.6823    -0.0066 C.ar    
   5 C5             2.3999     0.0270    -0.0095 C.ar    
   6 C6             2.3796     1.4097     0.0057 C.ar    
   7 C7             1.1737     2.0854     0.0228 C.ar    
   8 C8             1.2376    -2.1891    -0.0222 C.3     
   9 C9             0.4952    -2.7183    -1.2307 C.2     
  10 N10            2.6178    -2.6802    -0.0121 N.am    
  11 C11            3.4634    -2.3342    -1.0029 C.2     
  12 N12            4.7590    -2.7005    -0.9417 N.am    
  13 O13            3.0575    -1.6917    -1.9520 O.2     
  14 C14            5.6727    -2.4339    -2.0631 C.3     
  15 C15            6.9193    -1.7288    -1.5183 C.3     
  16 N16            7.4922    -2.5277    -0.4268 N.3     
  17 C17            6.5583    -2.6350     0.7020 C.3     
  18 C18            5.2982    -3.3718     0.2507 C.3     
  19 C19            8.7825    -1.9764     0.0081 C.3     
  20 C20            9.2885    -2.7566     1.2246 C.3     
  21 C21           10.6607    -2.2177     1.6354 C.3     
  22 N22           11.5993    -2.3600     0.5151 N.3     
  23 C23           11.1586    -1.5811    -0.6491 C.3     
  24 C24            9.8013    -2.1009    -1.1282 C.3     
  25 H25           12.5342    -2.0998     0.7914 H       
  26 O26            0.7753    -2.5166    -2.3934 O.2     
  27 N27           -0.5319    -3.4541    -0.7733 N.am    
  28 C28            0.4671    -2.7425     1.1545 C.ar    
  29 C29           -0.5769    -3.4886     0.6221 C.ar    
  30 C30            0.6301    -2.6282     2.5166 C.ar    
  31 C31           -0.2547    -3.2628     3.3741 C.ar    
  32 C32           -1.2998    -4.0098     2.8548 C.ar    
  33 C33           -1.4632    -4.1244     1.4885 C.ar    
  34 Cl34          -2.4092    -4.8055     3.9271 Cl      
  35 C35           -0.9836    -5.8433    -2.0625 C.ar    
  36 C36            0.1952    -5.9989    -2.7769 C.ar    
  37 C37           -1.6553    -6.9543    -1.5899 C.ar    
  38 C38           -1.1535    -8.2202    -1.8281 C.ar    
  39 C39            0.0215    -8.3780    -2.5402 C.ar    
  40 C40            0.6966    -7.2706    -3.0152 C.ar    
  41 H41            0.4115    -9.3680    -2.7250 H       
  42 O42            0.8576    -4.9077    -3.2432 O.3     
  43 C43            2.0647    -5.1434    -3.9707 C.3     
  44 C44            2.6638    -3.8064    -4.4117 C.3     
  45 O45           -1.1644    -0.7021     0.0143 O.3     
  46 C46           -2.3733     0.0595     0.0332 C.3     
  47 C47           -3.5737    -0.8892     0.0341 C.3     
  48 F48           -3.5411    -1.6837    -1.1169 F       
  49 F49           -3.5204    -1.7077     1.1675 F       
  50 S50           -1.6197    -4.2298    -1.7516 S.o2    
  51 O51           -2.7996    -4.4056    -0.9794 O.2     
  52 O52           -1.6003    -3.5442    -2.9961 O.2     
  53 H53           -0.9565     1.9089     0.0349 H       
  54 H54            3.3433    -0.4986    -0.0232 H       
  55 H55            3.3073     1.9625     0.0042 H       
  56 H56            1.1604     3.1653     0.0346 H       
  57 H57            2.9231    -3.2544     0.7076 H       
  58 H58            5.9600    -3.3746    -2.5329 H       
  59 H59            5.1789    -1.7926    -2.7932 H       
  60 H60            7.6547    -1.6222    -2.3158 H       
  61 H61            6.6446    -0.7432    -1.1422 H       
  62 H62            7.0318    -3.1857     1.5148 H       
  63 H63            6.2886    -1.6369     1.0472 H       
  64 H64            4.5572    -3.3533     1.0498 H       
  65 H65            5.5467    -4.4035     0.0017 H       
  66 H66            8.6589    -0.9266     0.2743 H       
  67 H67            8.5880    -2.6366     2.0510 H       
  68 H68            9.3738    -3.8129     0.9696 H       
  69 H69           10.5720    -1.1650     1.9035 H       
  70 H70           11.0302    -2.7807     2.4925 H       
  71 H71           11.0676    -0.5313    -0.3703 H       
  72 H72           11.8897    -1.6816    -1.4513 H       
  73 H73            9.8946    -3.1469    -1.4202 H       
  74 H74            9.4671    -1.5124    -1.9826 H       
  75 H75            1.4464    -2.0451     2.9165 H       
  76 H76           -2.2800    -4.7083     1.0907 H       
  77 H77           -2.5731    -6.8336    -1.0335 H       
  78 H78           -1.6797    -9.0873    -1.4573 H       
  79 H79            1.6137    -7.3944    -3.5718 H       
  80 H80            2.7766    -5.6679    -3.3333 H       
  81 H81            1.8469    -5.7512    -4.8489 H       
  82 H82            1.9519    -3.2819    -5.0491 H       
  83 H83            2.8816    -3.1986    -3.5335 H       
  84 H84            3.5846    -3.9862    -4.9666 H       
  85 H85           -2.3988     0.6785     0.9300 H       
  86 H86           -2.4149     0.6972    -0.8498 H       
  87 H87           -4.4959    -0.3083     0.0486 H       
@<TRIPOS>BOND
   1    1   31 1
   2    2    3 ar
   3    2    7 ar
   4    2   53 1
   5    3    4 ar
   6    3   45 1
   7    4    5 ar
   8    4    8 1
   9    5    6 ar
  10    5   54 1
  11    6    7 ar
  12    6   55 1
  13    7   56 1
  14    8    9 1
  15    8   10 1
  16    8   28 1
  17    9   26 2
  18    9   27 am
  19   10   11 am
  20   10   57 1
  21   11   12 am
  22   11   13 2
  23   12   14 1
  24   12   18 1
  25   14   15 1
  26   14   58 1
  27   14   59 1
  28   15   16 1
  29   15   60 1
  30   15   61 1
  31   16   17 1
  32   16   19 1
  33   17   18 1
  34   17   62 1
  35   17   63 1
  36   18   64 1
  37   18   65 1
  38   19   20 1
  39   19   24 1
  40   19   66 1
  41   20   21 1
  42   20   67 1
  43   20   68 1
  44   21   22 1
  45   21   69 1
  46   21   70 1
  47   22   23 1
  48   22   25 1
  49   23   24 1
  50   23   71 1
  51   23   72 1
  52   24   73 1
  53   24   74 1
  54   27   50 am
  55   27   29 1
  56   28   29 ar
  57   28   30 ar
  58   29   33 ar
  59   30   31 ar
  60   30   75 1
  61   31   32 ar
  62   32   33 ar
  63   32   34 1
  64   33   76 1
  65   35   36 ar
  66   35   37 ar
  67   35   50 1
  68   36   42 1
  69   36   40 ar
  70   37   38 ar
  71   37   77 1
  72   38   39 ar
  73   38   78 1
  74   39   40 ar
  75   39   41 1
  76   40   79 1
  77   42   43 1
  78   43   44 1
  79   43   80 1
  80   43   81 1
  81   44   82 1
  82   44   83 1
  83   44   84 1
  84   45   46 1
  85   46   47 1
  86   46   85 1
  87   46   86 1
  88   47   48 1
  89   47   49 1
  90   47   87 1
  91   50   51 2
  92   50   52 2

#	End of record

