#	Name: ASD08150577
#	Creating user name:	WinNT
#	Creation time:	15. 06. 2019 21:16

#	Modifying user name:	WinNT
#	Modification time:	15. 06. 2019 21:16

#	Program:	/corina/corina34_cracker 3.40 0067  02.08.2006

@<TRIPOS>MOLECULE
ASD08150577
  52   57    0    0    0
SMALL
NO_CHARGES


@<TRIPOS>ATOM
   1 N1             0.4065     2.0082     1.6673 N.am    
   2 C2             0.6091     0.9525     2.4794 C.2     
   3 C3             1.8228     0.2362     2.4460 C.2     
   4 C4             2.8093     0.6033     1.5890 C.2     
   5 C5             2.5996     1.7132     0.7328 C.ar    
   6 C6             3.5899     2.1352    -0.1749 C.ar    
   7 N7             3.3937     3.1590    -0.9638 N.ar    
   8 C8             2.2505     3.8616    -0.9567 C.ar    
   9 C9             1.1992     3.5080    -0.0756 C.ar    
  10 C10            1.3801     2.4051     0.7914 C.ar    
  11 C11           -0.1232     5.3198    -0.9414 C.ar    
  12 C12            0.9215     5.6644    -1.8096 C.ar    
  13 C13            2.0822     4.9554    -1.8213 C.ar    
  14 O14           -0.2689     0.6123     3.2538 O.2     
  15 C15           -0.8095     2.6998     1.7158 C.ar    
  16 C16           -1.9118     2.2187     1.0216 C.ar    
  17 C17           -3.1101     2.9025     1.0708 C.ar    
  18 C18           -3.2134     4.0680     1.8120 C.ar    
  19 C19           -2.1172     4.5489     2.5037 C.ar    
  20 C20           -0.9178     3.8657     2.4629 C.ar    
  21 C21            0.0118     4.2469    -0.0763 C.ar    
  22 C22           -1.3799     6.1100    -0.9477 C.2     
  23 C23           -1.4893     7.4490    -1.1862 C.2     
  24 N24           -2.7953     7.7733    -1.0997 N.pl3   
  25 N25           -3.5159     6.6108    -0.8005 N.2     
  26 C26           -2.6770     5.6127    -0.7145 C.2     
  27 C27           -3.3622     9.1113    -1.2860 C.3     
  28 C28           -4.4526     2.6271     0.4321 C.3     
  29 N29           -5.4289     3.4480     1.1835 N.3     
  30 C30           -4.6267     4.5890     1.6797 C.3     
  31 C31           -6.5140     3.9090     0.3071 C.3     
  32 H32            1.9684    -0.6072     3.1047 H       
  33 H33            3.7409     0.0577     1.5602 H       
  34 H34            4.5289     1.6035    -0.2199 H       
  35 H35            0.8032     6.5039    -2.4787 H       
  36 H36            2.8769     5.2347    -2.4973 H       
  37 H37           -1.8315     1.3102     0.4432 H       
  38 H38           -2.2003     5.4580     3.0807 H       
  39 H39           -0.0624     4.2427     3.0038 H       
  40 H40           -0.7939     3.9826     0.5926 H       
  41 H41           -0.6770     8.1265    -1.4043 H       
  42 H42           -2.9328     4.5865    -0.4955 H       
  43 H43           -3.6159     9.2554    -2.3362 H       
  44 H44           -4.2609     9.2130    -0.6777 H       
  45 H45           -2.6314     9.8610    -0.9826 H       
  46 H46           -4.4387     2.9243    -0.6165 H       
  47 H47           -4.7021     1.5698     0.5212 H       
  48 H48           -4.9993     4.9175     2.6500 H       
  49 H49           -4.6595     5.4114     0.9651 H       
  50 H50           -7.0323     3.0473    -0.1135 H       
  51 H51           -7.2169     4.5097     0.8843 H       
  52 H52           -6.0979     4.5122    -0.4999 H       
@<TRIPOS>BOND
   1    1    2 am
   2    1   10 1
   3    1   15 1
   4    2    3 1
   5    2   14 2
   6    3    4 2
   7    3   32 1
   8    4    5 1
   9    4   33 1
  10    5    6 ar
  11    5   10 ar
  12    6    7 ar
  13    6   34 1
  14    7    8 ar
  15    8    9 ar
  16    8   13 ar
  17    9   10 ar
  18    9   21 ar
  19   11   12 ar
  20   11   22 1
  21   11   21 ar
  22   12   13 ar
  23   12   35 1
  24   13   36 1
  25   15   16 ar
  26   15   20 ar
  27   16   17 ar
  28   16   37 1
  29   17   18 ar
  30   17   28 1
  31   18   19 ar
  32   18   30 1
  33   19   20 ar
  34   19   38 1
  35   20   39 1
  36   21   40 1
  37   22   23 2
  38   22   26 1
  39   23   24 1
  40   23   41 1
  41   24   25 1
  42   24   27 1
  43   25   26 2
  44   26   42 1
  45   27   43 1
  46   27   44 1
  47   27   45 1
  48   28   29 1
  49   28   46 1
  50   28   47 1
  51   29   30 1
  52   29   31 1
  53   30   48 1
  54   30   49 1
  55   31   50 1
  56   31   51 1
  57   31   52 1

#	End of record

