#	Name: ASD03731847
#	Creating user name:	WinNT
#	Creation time:	15. 06. 2019 20:46

#	Modifying user name:	WinNT
#	Modification time:	15. 06. 2019 20:46

#	Program:	/corina/corina34_cracker 3.40 0067  02.08.2006

@<TRIPOS>MOLECULE
ASD03731847
  37   38    0    0    0
SMALL
NO_CHARGES


@<TRIPOS>ATOM
   1 C1            -0.4038     1.1057    -1.9618 C.2     
   2 C2            -0.2820    -0.2736    -1.4505 C.ar    
   3 C3             0.9002    -0.9920    -1.6480 C.ar    
   4 C4             1.0099    -2.2785    -1.1696 C.ar    
   5 C5            -0.0536    -2.8629    -0.4914 C.ar    
   6 C6            -1.2313    -2.1515    -0.2929 C.ar    
   7 C7            -1.3465    -0.8623    -0.7629 C.ar    
   8 O8             0.5252     1.6183    -2.5555 O.2     
   9 N9            -1.5468     1.7951    -1.7752 N.am    
  10 S10           -1.6835     3.3426    -2.3488 S.o2    
  11 O11           -2.9860     3.7495    -1.9525 O.2     
  12 O12           -0.5271     4.0033    -1.8533 O.2     
  13 C13           -1.5926     3.1667    -4.1519 C.3     
  14 O14            0.0580    -4.1313    -0.0222 O.3     
  15 C15            1.2595    -4.7517    -0.1419 C.ar    
  16 C16            2.2103    -4.6208     0.8636 C.ar    
  17 C17            3.4304    -5.2484     0.7462 C.ar    
  18 C18            3.7121    -6.0179    -0.3862 C.ar    
  19 C19            2.7535    -6.1469    -1.3947 C.ar    
  20 C20            1.5334    -5.5204    -1.2666 C.ar    
  21 C21            4.4607    -5.1053     1.8367 C.3     
  22 F22            3.9510    -4.2942     2.8562 F       
  23 F23            4.7691    -6.3675     2.3552 F       
  24 F24            5.6182    -4.5215     1.3110 F       
  25 C25            4.9797    -6.6719    -0.5127 C.1     
  26 N26            5.9853    -7.1908    -0.6130 N.1     
  27 H27            1.7265    -0.5389    -2.1754 H       
  28 H28            1.9233    -2.8344    -1.3218 H       
  29 H29           -2.0555    -2.6090     0.2341 H       
  30 H30           -2.2602    -0.3086    -0.6044 H       
  31 H31           -2.2894     1.3848    -1.3050 H       
  32 H32           -2.4086     2.5314    -4.4966 H       
  33 H33           -1.6753     4.1488    -4.6174 H       
  34 H34           -0.6395     2.7141    -4.4253 H       
  35 H35            1.9920    -4.0257     1.7381 H       
  36 H36            2.9673    -6.7403    -2.2714 H       
  37 H37            0.7901    -5.6235    -2.0434 H       
@<TRIPOS>BOND
   1    1    2 1
   2    1    8 2
   3    1    9 am
   4    2    3 ar
   5    2    7 ar
   6    3    4 ar
   7    3   27 1
   8    4    5 ar
   9    4   28 1
  10    5    6 ar
  11    5   14 1
  12    6    7 ar
  13    6   29 1
  14    7   30 1
  15    9   10 am
  16    9   31 1
  17   10   11 2
  18   10   12 2
  19   10   13 1
  20   13   32 1
  21   13   33 1
  22   13   34 1
  23   14   15 1
  24   15   16 ar
  25   15   20 ar
  26   16   17 ar
  27   16   35 1
  28   17   18 ar
  29   17   21 1
  30   18   19 ar
  31   18   25 1
  32   19   20 ar
  33   19   36 1
  34   20   37 1
  35   21   22 1
  36   21   23 1
  37   21   24 1
  38   25   26 3

#	End of record

