#	Name: ASD01840310
#	Creating user name:	WinNT
#	Creation time:	15. 06. 2019 19:37

#	Modifying user name:	WinNT
#	Modification time:	15. 06. 2019 19:37

#	Program:	/corina/corina34_cracker 3.40 0067  02.08.2006

@<TRIPOS>MOLECULE
ASD01840310
  48   52    0    0    0
SMALL
NO_CHARGES


@<TRIPOS>ATOM
   1 C1            -0.8757     1.1275     0.0283 C.3     
   2 C2             0.0629    -0.0415    -0.1255 C.ar    
   3 C3             0.1715    -0.6854    -1.3287 C.ar    
   4 C4             1.0572    -1.7683    -1.4285 C.ar    
   5 C5             1.4126    -2.6631    -2.5409 C.2     
   6 O6             0.9466    -2.5970    -3.6620 O.2     
   7 N7             2.3263    -3.5643    -2.1407 N.am    
   8 C8             2.6379    -3.3235    -0.7273 C.3     
   9 C9             1.7917    -2.1476    -0.3027 C.ar    
  10 N10            1.6588    -1.5029     0.8346 N.ar    
  11 C11            0.8317    -0.4722     0.9546 C.ar    
  12 N12            0.7274     0.1815     2.1706 N.3     
  13 C13            1.7487     1.2294     2.2942 C.3     
  14 C14            1.5133     2.0240     3.5807 C.3     
  15 C15            1.5811     1.0750     4.7805 C.3     
  16 H16            2.5763     0.6345     4.8407 H       
  17 O17            1.3071     1.8016     5.9801 O.3     
  18 C18            1.8057     1.2920     7.1381 C.ar    
  19 C19            1.6725     2.0100     8.3251 C.ar    
  20 C20            2.1662     1.5168     9.4988 C.ar    
  21 C21            2.8118     0.2834     9.5206 C.ar    
  22 N22            3.3998    -0.4614    10.5119 N.pl3   
  23 H23            3.4576    -0.2088    11.4466 H       
  24 N24            3.9020    -1.6434     9.9580 N.2     
  25 C25            3.6598    -1.6763     8.6786 C.2     
  26 C26            2.9511    -0.4501     8.3269 C.ar    
  27 C27            2.4353     0.0650     7.1322 C.ar    
  28 C28            0.5404    -0.0341     4.6035 C.3     
  29 H29            0.6128    -0.7368     5.4336 H       
  30 F30           -0.7407     0.5274     4.5773 F       
  31 C31            0.8040    -0.7690     3.2873 C.3     
  32 H32           -0.3423     2.0528    -0.1893 H       
  33 H33           -1.7098     1.0174    -0.6646 H       
  34 H34           -1.2538     1.1579     1.0502 H       
  35 H35           -0.4111    -0.3674    -2.1806 H       
  36 H36            2.7152    -4.2592    -2.6947 H       
  37 H37            2.3844    -4.2014    -0.1330 H       
  38 H38            3.6952    -3.0851    -0.6121 H       
  39 H39            2.7372     0.7711     2.3261 H       
  40 H40            1.6869     1.8997     1.4369 H       
  41 H41            2.2808     2.7915     3.6800 H       
  42 H42            0.5305     2.4939     3.5435 H       
  43 H43            1.1734     2.9677     8.3165 H       
  44 H44            2.0562     2.0843    10.4111 H       
  45 H45            3.9348    -2.4695     7.9992 H       
  46 H46            2.5335    -0.4919     6.2121 H       
  47 H47            0.0561    -1.5501     3.1514 H       
  48 H48            1.7969    -1.2179     3.3146 H       
@<TRIPOS>BOND
   1    1    2 1
   2    1   32 1
   3    1   33 1
   4    1   34 1
   5    2   11 ar
   6    2    3 ar
   7    3    4 ar
   8    3   35 1
   9    4    9 ar
  10    4    5 1
  11    5    6 2
  12    5    7 am
  13    7    8 1
  14    7   36 1
  15    8    9 1
  16    8   37 1
  17    8   38 1
  18    9   10 ar
  19   10   11 ar
  20   11   12 1
  21   12   31 1
  22   12   13 1
  23   13   14 1
  24   13   39 1
  25   13   40 1
  26   14   15 1
  27   14   41 1
  28   14   42 1
  29   15   16 1
  30   15   17 1
  31   15   28 1
  32   17   18 1
  33   18   27 ar
  34   18   19 ar
  35   19   20 ar
  36   19   43 1
  37   20   21 ar
  38   20   44 1
  39   21   26 ar
  40   21   22 1
  41   22   23 1
  42   22   24 1
  43   24   25 2
  44   25   26 1
  45   25   45 1
  46   26   27 ar
  47   27   46 1
  48   28   29 1
  49   28   30 1
  50   28   31 1
  51   31   47 1
  52   31   48 1

#	End of record

