#	Name: ASD05613003
#	Creating user name:	WinNT
#	Creation time:	15. 06. 2019 21:01

#	Modifying user name:	WinNT
#	Modification time:	15. 06. 2019 21:01

#	Program:	/corina/corina34_cracker 3.40 0067  02.08.2006

@<TRIPOS>MOLECULE
ASD05613003
  43   46    0    0    0
SMALL
NO_CHARGES


@<TRIPOS>ATOM
   1 C1            -0.0202     1.3768     0.0495 C.2     
   2 C2             0.0446     0.0937    -0.4782 C.2     
   3 C3            -1.2507    -0.3935    -0.9386 C.2     
   4 C4            -2.2465     0.4770    -0.7666 C.2     
   5 S5            -1.6756     1.9602    -0.0209 S.3     
   6 C6            -1.4396    -1.7714    -1.5596 C.3     
   7 C7            -2.9271    -2.1269    -1.5308 C.3     
   8 C8            -3.7314    -0.9683    -2.1281 C.3     
   9 C9            -3.6902     0.2162    -1.1598 C.3     
  10 N10            1.1001     1.9657     0.5168 N.2     
  11 C11            2.2596     1.3540     0.4869 C.2     
  12 N12            2.3892     0.0912    -0.0192 N.am    
  13 C13            1.3137    -0.5596    -0.5038 C.2     
  14 O14            1.4224    -1.6865    -0.9561 O.2     
  15 S15            3.6843     2.1800     1.1134 S.3     
  16 C16            2.9386     3.7475     1.6264 C.3     
  17 C17            3.6467    -0.5296    -0.0343 C.ar    
  18 C18            4.0547    -1.2982     1.0476 C.ar    
  19 C19            5.2928    -1.9092     1.0322 C.ar    
  20 C20            6.1293    -1.7548    -0.0638 C.ar    
  21 C21            5.7221    -0.9869    -1.1451 C.ar    
  22 C22            4.4817    -0.3806    -1.1334 C.ar    
  23 O23            7.3486    -2.3559    -0.0779 O.3     
  24 C24            8.1578    -2.1543    -1.2384 C.3     
  25 C25            3.9768     4.6211     2.1972 C.1     
  26 N26            4.7779     5.2953     2.6377 N.1     
  27 H27           -1.0871    -1.7586    -2.5909 H       
  28 H28           -0.8766    -2.5096    -0.9885 H       
  29 H29           -3.0974    -3.0294    -2.1177 H       
  30 H30           -3.2415    -2.2960    -0.5009 H       
  31 H31           -3.2945    -0.6745    -3.0825 H       
  32 H32           -4.7647    -1.2808    -2.2787 H       
  33 H33           -4.2742    -0.0188    -0.2699 H       
  34 H34           -4.1019     1.1004    -1.6464 H       
  35 H35            2.4880     4.2355     0.7621 H       
  36 H36            2.1715     3.5565     2.3768 H       
  37 H37            3.4039    -1.4179     1.9011 H       
  38 H38            5.6103    -2.5071     1.8738 H       
  39 H39            6.3737    -0.8671    -1.9980 H       
  40 H40            4.1646     0.2169    -1.9754 H       
  41 H41            7.6345    -2.5327    -2.1165 H       
  42 H42            8.3547    -1.0895    -1.3635 H       
  43 H43            9.1015    -2.6868    -1.1202 H       
@<TRIPOS>BOND
   1    1    2 2
   2    1   10 1
   3    1    5 1
   4    2    3 1
   5    2   13 1
   6    3    4 2
   7    3    6 1
   8    4    5 1
   9    4    9 1
  10    6    7 1
  11    6   27 1
  12    6   28 1
  13    7    8 1
  14    7   29 1
  15    7   30 1
  16    8    9 1
  17    8   31 1
  18    8   32 1
  19    9   33 1
  20    9   34 1
  21   10   11 2
  22   11   12 1
  23   11   15 1
  24   12   13 am
  25   12   17 1
  26   13   14 2
  27   15   16 1
  28   16   25 1
  29   16   35 1
  30   16   36 1
  31   17   18 ar
  32   17   22 ar
  33   18   19 ar
  34   18   37 1
  35   19   20 ar
  36   19   38 1
  37   20   21 ar
  38   20   23 1
  39   21   22 ar
  40   21   39 1
  41   22   40 1
  42   23   24 1
  43   24   41 1
  44   24   42 1
  45   24   43 1
  46   25   26 3

#	End of record

