#	Name: ASD01918194
#	Creating user name:	WinNT
#	Creation time:	15. 06. 2019 20:11

#	Modifying user name:	WinNT
#	Modification time:	15. 06. 2019 20:11

#	Program:	/corina/corina34_cracker 3.40 0067  02.08.2006

@<TRIPOS>MOLECULE
ASD01918194
  40   42    0    0    0
SMALL
NO_CHARGES


@<TRIPOS>ATOM
   1 N1             0.0063     1.3134    -0.0232 N.ar    
   2 C2             0.0276    -0.0028    -0.0357 C.ar    
   3 C3             1.2263    -0.6947    -0.0540 C.ar    
   4 C4             2.4208     0.0114    -0.0593 C.ar    
   5 C5             2.3714     1.3943    -0.0459 C.ar    
   6 C6             1.1271     2.0281    -0.0277 C.ar    
   7 N7             1.0612     3.3938    -0.0144 N.2     
   8 N8            -0.0857     3.9841     0.0025 N.2     
   9 C9            -0.1513     5.3433     0.0158 C.ar    
  10 C10           -1.4540     7.3716     0.0539 C.ar    
  11 C11           -1.3993     5.9893     0.0400 C.ar    
  12 C12            1.0242     6.1039     0.0112 C.ar    
  13 C13            0.9571     7.4674     0.0255 C.ar    
  14 C14           -0.2781     8.1117     0.0447 C.ar    
  15 N15           -0.3344     9.5046     0.0586 N.am    
  16 C16            0.6045    10.2104     0.7195 C.2     
  17 O17            1.4436     9.6335     1.3827 O.2     
  18 C18            0.6137    11.6894     0.6373 C.ar    
  19 C19            1.5870    12.4133     1.3229 C.ar    
  20 N20           -0.3020    12.3136    -0.0930 N.ar    
  21 C21           -0.3289    13.6248    -0.1924 C.ar    
  22 C22            1.5827    13.7964     1.2364 C.ar    
  23 C23            0.6052    14.4078     0.4666 C.ar    
  24 O24           -2.5445     5.2611     0.0494 O.3     
  25 C25           -3.7749     5.9873     0.0737 C.3     
  26 H26           -0.9032    -0.5505    -0.0312 H       
  27 H27            1.2318    -1.7746    -0.0637 H       
  28 H28            3.3683    -0.5069    -0.0731 H       
  29 H29            3.2819     1.9751    -0.0492 H       
  30 H30           -2.4094     7.8748     0.0721 H       
  31 H31            1.9852     5.6113    -0.0033 H       
  32 H32            1.8666     8.0499     0.0222 H       
  33 H33           -1.0493     9.9658    -0.4073 H       
  34 H34            2.3340    11.9038     1.9135 H       
  35 H35           -1.0894    14.0977    -0.7962 H       
  36 H36            2.3242    14.3846     1.7566 H       
  37 H37            0.5745    15.4837     0.3781 H       
  38 H38           -3.8140     6.6060     0.9702 H       
  39 H39           -3.8392     6.6228    -0.8095 H       
  40 H40           -4.6101     5.2869     0.0789 H       
@<TRIPOS>BOND
   1    1    2 ar
   2    1    6 ar
   3    2    3 ar
   4    2   26 1
   5    3    4 ar
   6    3   27 1
   7    4    5 ar
   8    4   28 1
   9    5    6 ar
  10    5   29 1
  11    6    7 1
  12    7    8 2
  13    8    9 1
  14    9   12 ar
  15    9   11 ar
  16   10   11 ar
  17   10   14 ar
  18   10   30 1
  19   11   24 1
  20   12   13 ar
  21   12   31 1
  22   13   14 ar
  23   13   32 1
  24   14   15 1
  25   15   16 am
  26   15   33 1
  27   16   17 2
  28   16   18 1
  29   18   19 ar
  30   18   20 ar
  31   19   22 ar
  32   19   34 1
  33   20   21 ar
  34   21   23 ar
  35   21   35 1
  36   22   23 ar
  37   22   36 1
  38   23   37 1
  39   24   25 1
  40   25   38 1
  41   25   39 1
  42   25   40 1

#	End of record

