#	Name: ASD01903168
#	Creating user name:	WinNT
#	Creation time:	15. 06. 2019 19:54

#	Modifying user name:	WinNT
#	Modification time:	15. 06. 2019 19:54

#	Program:	/corina/corina34_cracker 3.40 0067  02.08.2006

@<TRIPOS>MOLECULE
ASD01903168
  51   54    0    0    0
SMALL
NO_CHARGES


@<TRIPOS>ATOM
   1 C1             1.8388    -1.6646     2.2311 C.ar    
   2 C2             0.8158    -1.1376     1.4587 C.ar    
   3 C3             1.0744    -0.0506     0.6386 C.ar    
   4 N4             2.2743     0.4845     0.5849 N.ar    
   5 C5             3.2814     0.0102     1.3083 C.ar    
   6 C6             3.0935    -1.0802     2.1543 C.ar    
   7 C7             4.6161     0.6459     1.2149 C.2     
   8 N8             4.8042     1.7013     0.3981 N.am    
   9 O9             5.5415     0.2158     1.8749 O.2     
  10 C10            6.0361     2.3627     0.3827 C.ar    
  11 C11            7.2135     1.6450     0.5496 C.ar    
  12 C12            8.4285     2.3013     0.5339 C.ar    
  13 C13            8.4737     3.6715     0.3524 C.ar    
  14 C14            7.3033     4.3890     0.1864 C.ar    
  15 C15            6.0854     3.7380     0.1949 C.ar    
  16 S16           10.0261     4.5049     0.3331 S.o2    
  17 O17            9.7607     5.8556     0.6859 O.2     
  18 O18           10.9340     3.6786     1.0487 O.2     
  19 N19           10.5514     4.5263    -1.2373 N.am    
  20 C20            9.7933     5.1565    -2.2140 C.ar    
  21 C21            9.7306     4.6238    -3.5130 C.ar    
  22 C22            8.9618     5.2696    -4.4872 C.ar    
  23 C23            8.2741     6.4188    -4.1686 C.ar    
  24 C24            8.3387     6.9419    -2.8858 C.ar    
  25 C25            9.0873     6.3145    -1.9117 C.ar    
  26 C26           10.4693     3.3946    -3.8464 C.2     
  27 O27           11.0434     2.7744    -2.9725 O.2     
  28 C28           10.5129     2.9135    -5.2466 C.ar    
  29 N29            9.7977     3.5327    -6.1780 N.ar    
  30 C30            9.8085     3.1375    -7.4323 C.ar    
  31 C31           10.5728     2.0521    -7.8301 C.ar    
  32 C32           11.3351     1.3763    -6.8896 C.ar    
  33 C33           11.3091     1.8180    -5.5766 C.ar    
  34 H34            1.6613    -2.5084     2.8813 H       
  35 H35           -0.1732    -1.5700     1.4952 H       
  36 H36            0.2796     0.3623     0.0351 H       
  37 H37            3.9138    -1.4653     2.7420 H       
  38 H38            4.0850     2.0021    -0.1791 H       
  39 H39            7.1788     0.5750     0.6917 H       
  40 H40            9.3444     1.7439     0.6639 H       
  41 H41            7.3421     5.4591     0.0452 H       
  42 H42            5.1716     4.2990     0.0653 H       
  43 H43           11.3890     4.0984    -1.4743 H       
  44 H44            8.9083     4.8673    -5.4881 H       
  45 H45            7.6811     6.9160    -4.9220 H       
  46 H46            7.7958     7.8444    -2.6468 H       
  47 H47            9.1317     6.7286    -0.9152 H       
  48 H48            9.2133     3.6658    -8.1623 H       
  49 H49           10.5743     1.7355    -8.8626 H       
  50 H50           11.9390     0.5275    -7.1749 H       
  51 H51           11.8906     1.3152    -4.8180 H       
@<TRIPOS>BOND
   1    1    2 ar
   2    1    6 ar
   3    1   34 1
   4    2    3 ar
   5    2   35 1
   6    3    4 ar
   7    3   36 1
   8    4    5 ar
   9    5    6 ar
  10    5    7 1
  11    6   37 1
  12    7    8 am
  13    7    9 2
  14    8   10 1
  15    8   38 1
  16   10   11 ar
  17   10   15 ar
  18   11   12 ar
  19   11   39 1
  20   12   13 ar
  21   12   40 1
  22   13   14 ar
  23   13   16 1
  24   14   15 ar
  25   14   41 1
  26   15   42 1
  27   16   17 2
  28   16   18 2
  29   16   19 am
  30   19   20 1
  31   19   43 1
  32   20   21 ar
  33   20   25 ar
  34   21   22 ar
  35   21   26 1
  36   22   23 ar
  37   22   44 1
  38   23   24 ar
  39   23   45 1
  40   24   25 ar
  41   24   46 1
  42   25   47 1
  43   26   27 2
  44   26   28 1
  45   28   29 ar
  46   28   33 ar
  47   29   30 ar
  48   30   31 ar
  49   30   48 1
  50   31   32 ar
  51   31   49 1
  52   32   33 ar
  53   32   50 1
  54   33   51 1

#	End of record

