#	Name: ASD08710047
#	Creating user name:	WinNT
#	Creation time:	15. 06. 2019 21:19

#	Modifying user name:	WinNT
#	Modification time:	15. 06. 2019 21:19

#	Program:	/corina/corina34_cracker 3.40 0067  02.08.2006

@<TRIPOS>MOLECULE
ASD08710047
  49   51    0    0    0
SMALL
NO_CHARGES


@<TRIPOS>ATOM
   1 C1             3.2983     2.6303    -0.2753 C.ar    
   2 C2             2.9571     1.2937    -0.1886 C.ar    
   3 C3             2.6945     3.4380    -1.2211 C.ar    
   4 C4             1.7496     2.9089    -2.0799 C.ar    
   5 C5             1.4085     1.5718    -1.9934 C.ar    
   6 C6             2.0118     0.7645    -1.0477 C.ar    
   7 S7             1.5776    -0.9396    -0.9379 S.o2    
   8 O8             2.4072    -1.5010     0.0701 O.2     
   9 O9             0.1582    -0.9899    -0.8933 O.2     
  10 N10            2.0263    -1.6527    -2.3635 N.am    
  11 C11            3.4185    -2.0669    -2.5870 C.3     
  12 C12            1.0381    -1.8881    -3.4256 C.3     
  13 C13            1.0583    -3.3772    -3.7925 C.3     
  14 N14            2.4517    -3.7863    -4.0181 N.am    
  15 C15            3.4337    -3.5556    -2.9557 C.3     
  16 C16            2.8167    -4.3675    -5.1781 C.2     
  17 C17            1.8360    -4.5073    -6.2755 C.ar    
  18 O18            3.9522    -4.7766    -5.3220 O.2     
  19 C19            2.2093    -4.2578    -7.5969 C.ar    
  20 N20            1.3359    -4.3824    -8.5743 N.ar    
  21 C21            0.0867    -4.7440    -8.3508 C.ar    
  22 C22           -0.3615    -5.0091    -7.0695 C.ar    
  23 C23            0.5187    -4.8979    -6.0073 C.ar    
  24 C24            0.3775     0.9952    -2.9291 C.3     
  25 C25           -0.8673    -4.8696    -9.5106 C.3     
  26 C26            4.3241     3.2086     0.6651 C.3     
  27 F27            5.5972     3.0878     0.0980 F       
  28 F28            4.0404     4.5598     0.8909 F       
  29 F29            4.2868     2.5150     1.8795 F       
  30 H30            3.4290     0.6627     0.5499 H       
  31 H31            2.9609     4.4824    -1.2887 H       
  32 H32            1.2774     3.5400    -2.8182 H       
  33 H33            3.8473    -1.4838    -3.4020 H       
  34 H34            3.9976    -1.9094    -1.6771 H       
  35 H35            0.0455    -1.6126    -3.0693 H       
  36 H36            1.2935    -1.2920    -4.3016 H       
  37 H37            0.6333    -3.9609    -2.9759 H       
  38 H38            0.4781    -3.5380    -4.7011 H       
  39 H39            4.4274    -3.8297    -3.3101 H       
  40 H40            3.1758    -4.1550    -2.0826 H       
  41 H41            3.2231    -3.9597    -7.8196 H       
  42 H42           -1.3866    -5.3039    -6.9001 H       
  43 H43            0.1955    -5.0990    -4.9967 H       
  44 H44            0.8693     0.6278    -3.8298 H       
  45 H45           -0.1404     0.1722    -2.4365 H       
  46 H46           -0.3423     1.7684    -3.1978 H       
  47 H47           -0.8317    -5.8863    -9.9018 H       
  48 H48           -1.8795    -4.6448    -9.1744 H       
  49 H49           -0.5807    -4.1685   -10.2944 H       
@<TRIPOS>BOND
   1    1    2 ar
   2    1    3 ar
   3    1   26 1
   4    2    6 ar
   5    2   30 1
   6    3    4 ar
   7    3   31 1
   8    4    5 ar
   9    4   32 1
  10    5    6 ar
  11    5   24 1
  12    6    7 1
  13    7    8 2
  14    7    9 2
  15    7   10 am
  16   10   11 1
  17   10   12 1
  18   11   15 1
  19   11   33 1
  20   11   34 1
  21   12   13 1
  22   12   35 1
  23   12   36 1
  24   13   14 1
  25   13   37 1
  26   13   38 1
  27   14   15 1
  28   14   16 am
  29   15   39 1
  30   15   40 1
  31   16   17 1
  32   16   18 2
  33   17   19 ar
  34   17   23 ar
  35   19   20 ar
  36   19   41 1
  37   20   21 ar
  38   21   22 ar
  39   21   25 1
  40   22   23 ar
  41   22   42 1
  42   23   43 1
  43   24   44 1
  44   24   45 1
  45   24   46 1
  46   25   47 1
  47   25   48 1
  48   25   49 1
  49   26   27 1
  50   26   28 1
  51   26   29 1

#	End of record

