#	Name: ASD08830181
#	Creating user name:	WinNT
#	Creation time:	15. 06. 2019 21:19

#	Modifying user name:	WinNT
#	Modification time:	15. 06. 2019 21:19

#	Program:	/corina/corina34_cracker 3.40 0067  02.08.2006

@<TRIPOS>MOLECULE
ASD08830181
  46   49    0    0    0
SMALL
NO_CHARGES


@<TRIPOS>ATOM
   1 C1            -0.0179     1.4655     0.0101 C.ar    
   2 C2             0.0021    -0.0041     0.0020 C.2     
   3 C3            -1.2926    -0.7753     0.0102 C.3     
   4 C4            -0.9927    -2.2755    -0.0007 C.3     
   5 N5            -2.2547    -3.0273     0.0073 N.3     
   6 O6             1.0605    -0.5961    -0.0113 O.2     
   7 C7            -1.2547     2.1409     0.0314 C.ar    
   8 C8            -2.0181    -4.4568    -0.2410 C.3     
   9 C9            -3.3490    -5.2097    -0.1649 C.3     
  10 O10           -4.2665    -4.6418    -1.1035 O.3     
  11 C11           -4.5205    -3.2506    -0.8906 C.3     
  12 C12           -3.2015    -2.4779    -0.9741 C.3     
  13 C13            1.1809     2.1631     0.0024 C.ar    
  14 C14            1.1585     3.5670     0.0102 C.ar    
  15 C15           -0.1358     4.2560     0.0262 C.ar    
  16 C16           -1.3224     3.4934     0.0395 C.ar    
  17 C17            2.3415     4.3172     0.0034 C.ar    
  18 C18            2.2745     5.6957     0.0120 C.ar    
  19 C19            1.0231     6.3578     0.0274 C.ar    
  20 C20           -0.1671     5.6524     0.0345 C.ar    
  21 N21            3.2262     6.6909     0.0088 N.pl3   
  22 N22            2.6835     7.8530     0.0205 N.2     
  23 C23            1.3708     7.7891     0.0324 C.2     
  24 C24            0.4323     8.9248     0.0472 C.2     
  25 N25            0.9029    10.1878     0.0501 N.am    
  26 O26           -0.7669     8.7227     0.0568 O.2     
  27 H27           -1.8592    -0.5245     0.9070 H       
  28 H28           -1.8762    -0.5150    -0.8728 H       
  29 H29           -0.4261    -2.5263    -0.8975 H       
  30 H30           -0.4091    -2.5358     0.8824 H       
  31 H31           -2.1693     1.5667     0.0410 H       
  32 H32           -1.5824    -4.5869    -1.2316 H       
  33 H33           -1.3346    -4.8488     0.5123 H       
  34 H34           -3.1869    -6.2606    -0.4046 H       
  35 H35           -3.7584    -5.1242     0.8417 H       
  36 H36           -5.2057    -2.8846    -1.6552 H       
  37 H37           -4.9640    -3.1082     0.0948 H       
  38 H38           -3.3819    -1.4252    -0.7560 H       
  39 H39           -2.7847    -2.5763    -1.9764 H       
  40 H40            2.1214     1.6322    -0.0091 H       
  41 H41           -2.2829     3.9871     0.0514 H       
  42 H42            3.3001     3.8199    -0.0081 H       
  43 H43           -1.1114     6.1765     0.0460 H       
  44 H44            4.1833     6.5334    -0.0005 H       
  45 H45            1.8593    10.3490     0.0424 H       
  46 H46            0.2850    10.9355     0.0599 H       
@<TRIPOS>BOND
   1    1    2 1
   2    1   13 ar
   3    1    7 ar
   4    2    3 1
   5    2    6 2
   6    3    4 1
   7    3   27 1
   8    3   28 1
   9    4    5 1
  10    4   29 1
  11    4   30 1
  12    5    8 1
  13    5   12 1
  14    7   16 ar
  15    7   31 1
  16    8    9 1
  17    8   32 1
  18    8   33 1
  19    9   10 1
  20    9   34 1
  21    9   35 1
  22   10   11 1
  23   11   12 1
  24   11   36 1
  25   11   37 1
  26   12   38 1
  27   12   39 1
  28   13   14 ar
  29   13   40 1
  30   14   15 ar
  31   14   17 ar
  32   15   16 ar
  33   15   20 ar
  34   16   41 1
  35   17   18 ar
  36   17   42 1
  37   18   19 ar
  38   18   21 1
  39   19   20 ar
  40   19   23 1
  41   20   43 1
  42   21   22 1
  43   21   44 1
  44   22   23 2
  45   23   24 1
  46   24   25 am
  47   24   26 2
  48   25   45 1
  49   25   46 1

#	End of record

