#	Name: ASD01882730
#	Creating user name:	WinNT
#	Creation time:	15. 06. 2019 19:45

#	Modifying user name:	WinNT
#	Modification time:	15. 06. 2019 19:45

#	Program:	/corina/corina34_cracker 3.40 0067  02.08.2006

@<TRIPOS>MOLECULE
ASD01882730
  44   46    0    0    0
SMALL
NO_CHARGES


@<TRIPOS>ATOM
   1 C1            -0.0180     1.4791     0.0102 C.ar    
   2 C2             0.0021    -0.0041     0.0020 C.ar    
   3 N3             1.1655    -0.6422    -0.0071 N.ar    
   4 C4            -1.2007    -0.7070     0.0097 C.ar    
   5 C5            -1.1753    -2.0914     0.0020 C.ar    
   6 C6             1.2295    -1.9622    -0.0145 C.ar    
   7 N7             2.2905    -2.8590    -0.0249 N.am    
   8 C8             0.0584    -2.7280    -0.0131 C.ar    
   9 N9             0.4477    -4.0637    -0.0245 N.am    
  10 C10            1.7935    -4.1098    -0.0295 C.2     
  11 C11            3.7116    -2.5031    -0.0300 C.3     
  12 C12           -0.4513    -5.2204    -0.0223 C.3     
  13 C13           -0.7783    -5.6149    -1.4639 C.3     
  14 C14            0.5139    -5.9747    -2.1998 C.3     
  15 C15           -1.7172    -6.8230    -1.4616 C.3     
  16 C16           -1.4587    -4.4416    -2.1719 C.3     
  17 O17            2.4595    -5.1281    -0.0392 O.2     
  18 C18            1.1497     3.5860     0.0103 C.ar    
  19 C19           -0.0757     4.2571     0.0255 C.ar    
  20 C20           -1.2562     3.5422     0.0384 C.ar    
  21 C21           -1.2344     2.1609     0.0313 C.ar    
  22 C22            1.1766     2.1921     0.0026 C.ar    
  23 C23            2.3744     4.3278    -0.0035 C.1     
  24 N24            3.3460     4.9164    -0.0144 N.1     
  25 H25           -2.1423    -0.1781     0.0219 H       
  26 H26           -2.0924    -2.6618     0.0081 H       
  27 H27            4.0691    -2.4206     0.9964 H       
  28 H28            4.2777    -3.2752    -0.5510 H       
  29 H29            3.8452    -1.5486    -0.5391 H       
  30 H30            0.0334    -6.0563     0.4821 H       
  31 H31           -1.3719    -4.9641     0.5020 H       
  32 H32            0.9986    -6.8106    -1.6954 H       
  33 H33            0.2809    -6.2558    -3.2269 H       
  34 H34            1.1828    -5.1141    -2.2015 H       
  35 H35           -2.6378    -6.5667    -0.9373 H       
  36 H36           -1.9502    -7.1041    -2.4886 H       
  37 H37           -1.2325    -7.6589    -0.9572 H       
  38 H38           -0.7898    -3.5810    -2.1736 H       
  39 H39           -1.6917    -4.7227    -3.1990 H       
  40 H40           -2.3793    -4.1853    -1.6476 H       
  41 H41           -0.0991     5.3368     0.0319 H       
  42 H42           -2.2012     4.0650     0.0505 H       
  43 H43           -2.1618     1.6076     0.0417 H       
  44 H44            2.1209     1.6681    -0.0088 H       
@<TRIPOS>BOND
   1    1    2 1
   2    1   22 ar
   3    1   21 ar
   4    2    4 ar
   5    2    3 ar
   6    3    6 ar
   7    4    5 ar
   8    4   25 1
   9    5    8 ar
  10    5   26 1
  11    6    8 ar
  12    6    7 1
  13    7   10 am
  14    7   11 1
  15    8    9 1
  16    9   10 am
  17    9   12 1
  18   10   17 2
  19   11   27 1
  20   11   28 1
  21   11   29 1
  22   12   13 1
  23   12   30 1
  24   12   31 1
  25   13   14 1
  26   13   15 1
  27   13   16 1
  28   14   32 1
  29   14   33 1
  30   14   34 1
  31   15   35 1
  32   15   36 1
  33   15   37 1
  34   16   38 1
  35   16   39 1
  36   16   40 1
  37   18   19 ar
  38   18   22 ar
  39   18   23 1
  40   19   20 ar
  41   19   41 1
  42   20   21 ar
  43   20   42 1
  44   21   43 1
  45   22   44 1
  46   23   24 3

#	End of record

