#	Name: ASD09800045
#	Creating user name:	WinNT
#	Creation time:	15. 06. 2019 21:24

#	Modifying user name:	WinNT
#	Modification time:	15. 06. 2019 21:24

#	Program:	/corina/corina34_cracker 3.40 0067  02.08.2006

@<TRIPOS>MOLECULE
ASD09800045
  81   87    0    0    0
SMALL
NO_CHARGES


@<TRIPOS>ATOM
   1 C1            -3.2603     1.2228     2.8782 C.2     
   2 N2            -4.3457     0.5635     3.2406 N.2     
   3 C3            -5.0513    -0.1540     2.3568 C.2     
   4 C4            -4.6876    -0.2359     1.0641 C.2     
   5 C5            -2.8380     1.1761     1.5342 C.2     
   6 C6            -1.7788     1.7293     0.8229 C.2     
   7 N7            -3.5647     0.4296     0.6253 N.pl3   
   8 C8            -2.9565     0.5529    -0.5681 C.2     
   9 N9            -1.9041     1.3217    -0.4508 N.2     
  10 C10           -0.7168     2.6009     1.3655 C.ar    
  11 C11            0.1368     4.8257     1.9150 C.ar    
  12 C12            1.3196     4.2291     2.4028 C.ar    
  13 C13            1.4650     2.8580     2.3605 C.ar    
  14 C14            0.4600     2.0494     1.8477 C.ar    
  15 C15           -0.8918     4.0070     1.3912 C.ar    
  16 N16            2.3423     5.0255     2.9222 N.am    
  17 C17            3.6074     4.5619     2.9539 C.2     
  18 N18            4.5752     5.2847     3.5516 N.am    
  19 O19            3.8756     3.4914     2.4433 O.2     
  20 C20            5.8666     4.7597     3.6730 C.ar    
  21 C21            7.6682     3.4497     2.7853 C.ar    
  22 C22            6.3929     3.9661     2.6625 C.ar    
  23 C23            6.6269     5.0361     4.8021 C.ar    
  24 C24            7.9011     4.5169     4.9187 C.ar    
  25 C25            8.4205     3.7224     3.9128 C.ar    
  26 N26           -2.5463     1.9582     3.8094 N.pl3   
  27 C27           -3.4156    -0.0994    -1.8466 C.3     
  28 C28           -4.8288     0.2229    -2.3363 C.3     
  29 C29           -3.6154     0.8013    -3.0671 C.3     
  30 C30           -2.8888    -1.5149    -2.0914 C.3     
  31 C31           -0.0373     6.2187     1.9397 C.ar    
  32 C32           -2.0655     4.6010     0.9066 C.ar    
  33 C33           -2.2020     5.9561     0.9455 C.ar    
  34 C34           -1.1903     6.7627     1.4608 C.ar    
  35 C35            8.7269     4.8167     6.1432 C.3     
  36 C36            9.8114     3.1575     4.0434 C.3     
  37 N37            9.7785     1.9701     4.9077 N.3     
  38 N38           10.3014    -0.7456     5.5837 N.3     
  39 C39            8.9417    -0.3065     5.2400 C.3     
  40 C40            9.0199     0.8807     4.2773 C.3     
  41 C41           11.1382     1.5310     5.2513 C.3     
  42 C42           11.0600     0.3437     6.2140 C.3     
  43 C43           10.2684    -1.9330     6.4479 C.3     
  44 F44            7.9942     5.6332     7.0113 F       
  45 F45            9.0516     3.6201     6.7911 F       
  46 F46            9.9015     5.4751     5.7637 F       
  47 H47           -5.9337    -0.6800     2.6901 H       
  48 H48           -5.2744    -0.8222     0.3726 H       
  49 H49            2.3721     2.4071     2.7351 H       
  50 H50            0.5964     0.9783     1.8245 H       
  51 H51            2.1422     5.9124     3.2601 H       
  52 H52            4.3766     6.1689     3.8975 H       
  53 H53            8.0780     2.8321     1.9998 H       
  54 H54            5.8056     3.7524     1.7817 H       
  55 H55            6.2220     5.6568     5.5877 H       
  56 H56           -2.7888     1.9188     4.7477 H       
  57 H57           -1.8037     2.5128     3.5233 H       
  58 H58           -5.3831    -0.5733    -2.8332 H       
  59 H59           -5.4265     0.9068    -1.7337 H       
  60 H60           -3.4149     1.8658    -2.9453 H       
  61 H61           -3.3715     0.3856    -4.0448 H       
  62 H62           -3.1734    -2.1576    -1.2583 H       
  63 H63           -3.3154    -1.9067    -3.0147 H       
  64 H64           -1.8024    -1.4888    -2.1755 H       
  65 H65            0.7395     6.8557     2.3363 H       
  66 H66           -2.8578     3.9873     0.5040 H       
  67 H67           -3.1071     6.4111     0.5712 H       
  68 H68           -1.3220     7.8345     1.4812 H       
  69 H69           10.1846     2.8792     3.0578 H       
  70 H70           10.4688     3.9081     4.4822 H       
  71 H71            8.4043    -1.1264     4.7634 H       
  72 H72            8.4167    -0.0056     6.1466 H       
  73 H73            8.0129     1.2265     4.0438 H       
  74 H74            9.5208     0.5723     3.3596 H       
  75 H75           11.6632     1.2300     4.3447 H       
  76 H76           11.6756     2.3508     5.7279 H       
  77 H77           10.5591     0.6521     7.1317 H       
  78 H78           12.0669    -0.0021     6.4476 H       
  79 H79            9.7592    -2.7456     5.9297 H       
  80 H80           11.2876    -2.2368     6.6870 H       
  81 H81            9.7341    -1.6977     7.3684 H       
@<TRIPOS>BOND
   1    1    2 2
   2    1   26 1
   3    1    5 1
   4    2    3 1
   5    3    4 2
   6    3   47 1
   7    4    7 1
   8    4   48 1
   9    5    7 1
  10    5    6 2
  11    6    9 1
  12    6   10 1
  13    7    8 1
  14    8    9 2
  15    8   27 1
  16   10   15 ar
  17   10   14 ar
  18   11   12 ar
  19   11   15 ar
  20   11   31 ar
  21   12   13 ar
  22   12   16 1
  23   13   14 ar
  24   13   49 1
  25   14   50 1
  26   15   32 ar
  27   16   17 am
  28   16   51 1
  29   17   18 am
  30   17   19 2
  31   18   20 1
  32   18   52 1
  33   20   23 ar
  34   20   22 ar
  35   21   22 ar
  36   21   25 ar
  37   21   53 1
  38   22   54 1
  39   23   24 ar
  40   23   55 1
  41   24   25 ar
  42   24   35 1
  43   25   36 1
  44   26   56 1
  45   26   57 1
  46   27   28 1
  47   27   29 1
  48   27   30 1
  49   28   29 1
  50   28   58 1
  51   28   59 1
  52   29   60 1
  53   29   61 1
  54   30   62 1
  55   30   63 1
  56   30   64 1
  57   31   34 ar
  58   31   65 1
  59   32   33 ar
  60   32   66 1
  61   33   34 ar
  62   33   67 1
  63   34   68 1
  64   35   44 1
  65   35   45 1
  66   35   46 1
  67   36   37 1
  68   36   69 1
  69   36   70 1
  70   37   41 1
  71   37   40 1
  72   38   39 1
  73   38   42 1
  74   38   43 1
  75   39   40 1
  76   39   71 1
  77   39   72 1
  78   40   73 1
  79   40   74 1
  80   41   42 1
  81   41   75 1
  82   41   76 1
  83   42   77 1
  84   42   78 1
  85   43   79 1
  86   43   80 1
  87   43   81 1

#	End of record

