#	Name: ASD03081343
#	Creating user name:	WinNT
#	Creation time:	15. 06. 2019 20:27

#	Modifying user name:	WinNT
#	Modification time:	15. 06. 2019 20:27

#	Program:	/corina/corina34_cracker 3.40 0067  02.08.2006

@<TRIPOS>MOLECULE
ASD03081343
  39   41    0    0    0
SMALL
NO_CHARGES


@<TRIPOS>ATOM
   1 O1            -0.0162     1.3445     0.0094 O.3     
   2 C2             0.0021    -0.0041     0.0020 C.2     
   3 N3             1.2612    -0.3804    -0.0120 N.2     
   4 N4             2.0180     0.6601    -0.0137 N.2     
   5 C5             1.2729     1.7417    -0.0007 C.2     
   6 C6             0.8552     4.2024     0.0165 C.ar    
   7 C7             1.7578     3.1372     0.0021 C.ar    
   8 C8             3.1301     3.4142    -0.0090 C.ar    
   9 C9             3.5320     4.7384    -0.0053 C.ar    
  10 C10            2.5746     5.7365     0.0092 C.ar    
  11 N11            1.2875     5.4461     0.0194 N.ar    
  12 C12           -1.1761    -0.8942     0.0089 C.ar    
  13 C13           -1.0065    -2.2806    -0.0002 C.ar    
  14 C14           -2.1087    -3.1077     0.0068 C.ar    
  15 C15           -3.3870    -2.5645     0.0224 C.ar    
  16 C16           -3.5601    -1.1863     0.0315 C.ar    
  17 C17           -2.4633    -0.3521     0.0304 C.ar    
  18 O18           -4.4708    -3.3832     0.0283 O.3     
  19 C19           -5.7558    -2.7584     0.0444 C.3     
  20 C20           -6.8452    -3.8326     0.0490 C.3     
  21 C21           -8.2211    -3.1636     0.0662 C.3     
  22 C22           -9.3105    -4.2379     0.0708 C.3     
  23 H23           -0.2065     4.0045     0.0207 H       
  24 H24            3.8565     2.6150    -0.0199 H       
  25 H25            4.5823     4.9899    -0.0133 H       
  26 H26            2.8856     6.7708     0.0125 H       
  27 H27           -0.0129    -2.7038    -0.0131 H       
  28 H28           -1.9784    -4.1798    -0.0003 H       
  29 H29           -4.5557    -0.7679     0.0433 H       
  30 H30           -2.5987     0.7193     0.0420 H       
  31 H31           -5.8491    -2.1425     0.9389 H       
  32 H32           -5.8666    -2.1323    -0.8409 H       
  33 H33           -6.7519    -4.4485    -0.8455 H       
  34 H34           -6.7345    -4.4587     0.9343 H       
  35 H35           -8.3144    -2.5478     0.9607 H       
  36 H36           -8.3318    -2.5376    -0.8191 H       
  37 H37          -10.2907    -3.7613     0.0831 H       
  38 H38           -9.2172    -4.8538    -0.8237 H       
  39 H39           -9.1998    -4.8640     0.9561 H       
@<TRIPOS>BOND
   1    1    2 1
   2    1    5 1
   3    2    3 2
   4    2   12 1
   5    3    4 1
   6    4    5 2
   7    5    7 1
   8    6    7 ar
   9    6   11 ar
  10    6   23 1
  11    7    8 ar
  12    8    9 ar
  13    8   24 1
  14    9   10 ar
  15    9   25 1
  16   10   11 ar
  17   10   26 1
  18   12   13 ar
  19   12   17 ar
  20   13   14 ar
  21   13   27 1
  22   14   15 ar
  23   14   28 1
  24   15   16 ar
  25   15   18 1
  26   16   17 ar
  27   16   29 1
  28   17   30 1
  29   18   19 1
  30   19   20 1
  31   19   31 1
  32   19   32 1
  33   20   21 1
  34   20   33 1
  35   20   34 1
  36   21   22 1
  37   21   35 1
  38   21   36 1
  39   22   37 1
  40   22   38 1
  41   22   39 1

#	End of record

