#	Name: ASD01811307
#	Creating user name:	WinNT
#	Creation time:	15. 06. 2019 19:26

#	Modifying user name:	WinNT
#	Modification time:	15. 06. 2019 19:26

#	Program:	/corina/corina34_cracker 3.40 0067  02.08.2006

@<TRIPOS>MOLECULE
ASD01811307
  73   77    0    0    0
SMALL
NO_CHARGES


@<TRIPOS>ATOM
   1 C1             5.1874    12.2897    -3.7927 C.1     
   2 C2             4.1603    11.4938    -3.1906 C.ar    
   3 C3             4.4259    10.1767    -2.8107 C.ar    
   4 C4             3.4319     9.4157    -2.2312 C.ar    
   5 C5             2.1740     9.9546    -2.0267 C.ar    
   6 C6             1.9039    11.2589    -2.4012 C.ar    
   7 C7             2.8905    12.0333    -2.9755 C.ar    
   8 N8             6.0021    12.9210    -4.2704 N.1     
   9 N9            -1.5225     8.6651    -0.4162 N.am    
  10 C10           -0.4518     8.9136     0.5589 C.3     
  11 C11            0.6222     9.7851    -0.0997 C.3     
  12 C12            1.0931     9.1169    -1.3935 C.3     
  13 C13           -0.0854     8.9887    -2.3615 C.3     
  14 C14           -1.1674     8.1081    -1.7286 C.3     
  15 C15           -2.8065     8.9375    -0.1104 C.2     
  16 C16           -3.1633     9.3819     1.2540 C.ar    
  17 C17           -4.0500    10.4434     1.4347 C.ar    
  18 C18           -4.3802    10.8541     2.7170 C.ar    
  19 C19           -3.8278    10.2083     3.8174 C.ar    
  20 C20           -2.9492     9.1567     3.6380 C.ar    
  21 C21           -2.6184     8.7369     2.3654 C.ar    
  22 O22           -3.6712     8.8179    -0.9562 O.2     
  23 N23           -5.2680    11.9176     2.9037 N.pl3   
  24 C24           -5.3139    12.9557     1.9789 C.ar    
  25 C25           -6.2173    13.9982     2.1590 C.ar    
  26 C26           -6.2507    15.0316     1.2225 C.ar    
  27 C27           -5.3676    14.9712     0.1376 C.ar    
  28 C28           -4.5026    13.9015     0.0332 C.ar    
  29 N29           -4.4940    12.9438     0.9403 N.ar    
  30 C30           -7.1960    16.1627     1.3716 C.2     
  31 O31           -8.2759    15.9864     1.9001 O.2     
  32 N32           -6.8580    17.3872     0.9210 N.am    
  33 C33           -7.8267    18.4937     0.9434 C.3     
  34 C34           -7.1725    19.6996     1.6259 C.3     
  35 N35           -5.8983    20.0030     0.9608 N.3     
  36 C36           -4.9477    18.8914     1.0980 C.3     
  37 C37           -5.5089    17.6538     0.3995 C.3     
  38 C38           -5.3225    21.2541     1.4716 C.3     
  39 C39           -4.1878    10.6569     5.2103 C.3     
  40 H40            5.4070     9.7546    -2.9704 H       
  41 H41            3.6358     8.3968    -1.9368 H       
  42 H42            0.9198    11.6732    -2.2390 H       
  43 H43            2.6798    13.0528    -3.2630 H       
  44 H44           -0.8608     9.4311     1.4267 H       
  45 H45           -0.0131     7.9654     0.8695 H       
  46 H46            0.2053    10.7661    -0.3277 H       
  47 H47            1.4669     9.8973     0.5800 H       
  48 H48            1.4869     8.1259    -1.1679 H       
  49 H49           -0.4956     9.9771    -2.5682 H       
  50 H50            0.2557     8.5340    -3.2916 H       
  51 H51           -0.7871     7.0942    -1.6045 H       
  52 H52           -2.0486     8.0941    -2.3701 H       
  53 H53           -4.4777    10.9439     0.5785 H       
  54 H54           -2.5233     8.6589     4.4966 H       
  55 H55           -1.9349     7.9118     2.2296 H       
  56 H56           -5.8520    11.9317     3.6780 H       
  57 H57           -6.8824    14.0071     3.0099 H       
  58 H58           -5.3638    15.7522    -0.6083 H       
  59 H59           -3.8192    13.8497    -0.8014 H       
  60 H60           -8.1054    18.7570    -0.0769 H       
  61 H61           -8.7131    18.1931     1.5021 H       
  62 H62           -7.8350    20.5622     1.5535 H       
  63 H63           -6.9891    19.4685     2.6752 H       
  64 H64           -3.9967    19.1678     0.6427 H       
  65 H65           -4.7953    18.6715     2.1546 H       
  66 H66           -4.8636    16.7983     0.5988 H       
  67 H67           -5.5605    17.8349    -0.6741 H       
  68 H68           -5.1441    21.1612     2.5429 H       
  69 H69           -4.3799    21.4549     0.9624 H       
  70 H70           -6.0163    22.0747     1.2887 H       
  71 H71           -5.0627    10.1056     5.5548 H       
  72 H72           -3.3504    10.4657     5.8814 H       
  73 H73           -4.4106    11.7239     5.2022 H       
@<TRIPOS>BOND
   1    1    2 1
   2    1    8 3
   3    2    3 ar
   4    2    7 ar
   5    3    4 ar
   6    3   40 1
   7    4    5 ar
   8    4   41 1
   9    5    6 ar
  10    5   12 1
  11    6    7 ar
  12    6   42 1
  13    7   43 1
  14    9   10 1
  15    9   14 1
  16    9   15 am
  17   10   11 1
  18   10   44 1
  19   10   45 1
  20   11   12 1
  21   11   46 1
  22   11   47 1
  23   12   13 1
  24   12   48 1
  25   13   14 1
  26   13   49 1
  27   13   50 1
  28   14   51 1
  29   14   52 1
  30   15   16 1
  31   15   22 2
  32   16   17 ar
  33   16   21 ar
  34   17   18 ar
  35   17   53 1
  36   18   19 ar
  37   18   23 1
  38   19   20 ar
  39   19   39 1
  40   20   21 ar
  41   20   54 1
  42   21   55 1
  43   23   24 1
  44   23   56 1
  45   24   25 ar
  46   24   29 ar
  47   25   26 ar
  48   25   57 1
  49   26   27 ar
  50   26   30 1
  51   27   28 ar
  52   27   58 1
  53   28   29 ar
  54   28   59 1
  55   30   31 2
  56   30   32 am
  57   32   33 1
  58   32   37 1
  59   33   34 1
  60   33   60 1
  61   33   61 1
  62   34   35 1
  63   34   62 1
  64   34   63 1
  65   35   36 1
  66   35   38 1
  67   36   37 1
  68   36   64 1
  69   36   65 1
  70   37   66 1
  71   37   67 1
  72   38   68 1
  73   38   69 1
  74   38   70 1
  75   39   71 1
  76   39   72 1
  77   39   73 1

#	End of record

