#	Name: ASD03570015
#	Creating user name:	WinNT
#	Creation time:	15. 06. 2019 20:43

#	Modifying user name:	WinNT
#	Modification time:	15. 06. 2019 20:43

#	Program:	/corina/corina34_cracker 3.40 0067  02.08.2006

@<TRIPOS>MOLECULE
ASD03570015
  28   29    0    0    0
SMALL
NO_CHARGES


@<TRIPOS>ATOM
   1 C1            -0.0168     1.3864     0.0097 C.ar    
   2 C2             0.0021    -0.0041     0.0020 C.ar    
   3 C3             1.1990    -0.6900    -0.0131 C.ar    
   4 C4             2.4009     0.0158    -0.0209 C.ar    
   5 C5             2.3768     1.4237    -0.0131 C.ar    
   6 C6             1.1472     2.0971     0.0024 C.ar    
   7 N7             3.7203    -0.3732    -0.0356 N.pl3   
   8 C8             4.5166     0.7563    -0.0372 C.2     
   9 C9             3.7230     1.8603    -0.0237 C.2     
  10 C10            4.1928     3.2922    -0.0205 C.3     
  11 C11            4.3385     3.7843    -1.4618 C.3     
  12 Cl12          -1.4939    -0.8847     0.0122 Cl      
  13 F13            1.2061    -2.0409    -0.0200 F       
  14 C14            4.8082     5.2163    -1.4587 C.2     
  15 O15            5.0062     5.7848    -0.4111 O.2     
  16 O16            5.0068     5.8600    -2.6197 O.3     
  17 C17            5.9852     0.7631    -0.0513 C.2     
  18 O18            6.5882     1.8188    -0.0509 O.2     
  19 O19            6.6647    -0.4016    -0.0645 O.3     
  20 H20           -0.9622     1.9085     0.0170 H       
  21 H21            1.1218     3.1768     0.0081 H       
  22 H22            4.0392    -1.2893    -0.0431 H       
  23 H23            3.4652     3.9121     0.5033 H       
  24 H24            5.1564     3.3574     0.4848 H       
  25 H25            5.0661     3.1644    -1.9856 H       
  26 H26            3.3749     3.7192    -1.9672 H       
  27 H27            5.3082     6.7773    -2.5670 H       
  28 H28            7.6301    -0.3465    -0.0735 H       
@<TRIPOS>BOND
   1    1    2 ar
   2    1    6 ar
   3    1   20 1
   4    2    3 ar
   5    2   12 1
   6    3    4 ar
   7    3   13 1
   8    4    5 ar
   9    4    7 1
  10    5    6 ar
  11    5    9 1
  12    6   21 1
  13    7    8 1
  14    7   22 1
  15    8    9 2
  16    8   17 1
  17    9   10 1
  18   10   11 1
  19   10   23 1
  20   10   24 1
  21   11   14 1
  22   11   25 1
  23   11   26 1
  24   14   15 2
  25   14   16 1
  26   16   27 1
  27   17   18 2
  28   17   19 1
  29   19   28 1

#	End of record

