#	Name: ASD01882887
#	Creating user name:	WinNT
#	Creation time:	15. 06. 2019 19:45

#	Modifying user name:	WinNT
#	Modification time:	15. 06. 2019 19:45

#	Program:	/corina/corina34_cracker 3.40 0067  02.08.2006

@<TRIPOS>MOLECULE
ASD01882887
  31   33    0    0    0
SMALL
NO_CHARGES


@<TRIPOS>ATOM
   1 O1            -0.0172     1.4166     0.0098 O.3     
   2 C2             0.0021    -0.0041     0.0020 C.3     
   3 C3             1.1935    -0.2811    -0.9652 C.3     
   4 C4             2.1139     0.8139    -0.5688 C.ar    
   5 C5             1.2892     1.8097    -0.0005 C.ar    
   6 C6             1.6093    -1.7184    -0.7252 C.3     
   7 C7             0.4351    -2.5976    -1.1970 C.3     
   8 C8            -0.8543    -2.2571    -0.4570 C.3     
   9 C9            -1.1877    -0.7576    -0.5473 C.3     
  10 C10            1.8408     2.9990     0.4588 C.ar    
  11 C11            3.2197     3.1515     0.3472 C.ar    
  12 C12            4.0194     2.1620    -0.1989 C.ar    
  13 C13            3.4782     0.9715    -0.6679 C.ar    
  14 O14            3.7959     4.3016     0.7852 O.3     
  15 C15            5.2143     4.4096     0.6485 C.3     
  16 H16            0.2430    -0.3745     0.9984 H       
  17 H17            0.8746    -0.1435    -1.9984 H       
  18 H18            2.5047    -1.9497    -1.3021 H       
  19 H19            1.7950    -1.8813     0.3365 H       
  20 H20            0.2832    -2.4449    -2.2655 H       
  21 H21            0.6811    -3.6447    -1.0199 H       
  22 H22           -1.6742    -2.8298    -0.8906 H       
  23 H23           -0.7455    -2.5340     0.5916 H       
  24 H24           -2.0739    -0.5375     0.0478 H       
  25 H25           -1.3577    -0.4768    -1.5867 H       
  26 H26            1.2234     3.7754     0.8859 H       
  27 H27            5.0861     2.3190    -0.2618 H       
  28 H28            4.1029     0.1999    -1.0931 H       
  29 H29            5.4850     4.3287    -0.4043 H       
  30 H30            5.5443     5.3736     1.0355 H       
  31 H31            5.6954     3.6087     1.2099 H       
@<TRIPOS>BOND
   1    1    2 1
   2    1    5 1
   3    2    3 1
   4    2    9 1
   5    2   16 1
   6    3    4 1
   7    3    6 1
   8    3   17 1
   9    4    5 ar
  10    4   13 ar
  11    5   10 ar
  12    6    7 1
  13    6   18 1
  14    6   19 1
  15    7    8 1
  16    7   20 1
  17    7   21 1
  18    8    9 1
  19    8   22 1
  20    8   23 1
  21    9   24 1
  22    9   25 1
  23   10   11 ar
  24   10   26 1
  25   11   12 ar
  26   11   14 1
  27   12   13 ar
  28   12   27 1
  29   13   28 1
  30   14   15 1
  31   15   29 1
  32   15   30 1
  33   15   31 1

#	End of record

