#	Name: ASD07300624
#	Creating user name:	WinNT
#	Creation time:	15. 06. 2019 21:10

#	Modifying user name:	WinNT
#	Modification time:	15. 06. 2019 21:10

#	Program:	/corina/corina34_cracker 3.40 0067  02.08.2006

@<TRIPOS>MOLECULE
ASD07300624
  25   26    0    0    0
SMALL
NO_CHARGES


@<TRIPOS>ATOM
   1 N1             0.2352     0.8677    -1.6125 N.pl3   
   2 C2             0.1284    -0.2648    -0.8102 C.ar    
   3 C3             1.2455    -0.7369    -0.1065 C.ar    
   4 N4            -1.0295    -0.8973    -0.7041 N.ar    
   5 N5             1.1345    -1.8143     0.6544 N.ar    
   6 C6            -0.0285    -2.4417     0.7486 C.ar    
   7 C7            -1.1280    -1.9747     0.0607 C.ar    
   8 N8             2.4662    -0.0756    -0.2079 N.3     
   9 C9             3.5847    -1.0296    -0.1966 C.3     
  10 C10            4.9007    -0.2667    -0.3699 C.3     
  11 O11            5.0162     0.7153     0.6634 O.3     
  12 C12            3.9437     1.6612     0.6812 C.3     
  13 C13            2.6179     0.9179     0.8651 C.3     
  14 H14            1.0614     1.3757    -1.6269 H       
  15 H15           -0.5152     1.1466    -2.1602 H       
  16 H16           -0.1165    -3.3208     1.3698 H       
  17 H17           -2.0738    -2.4890     0.1456 H       
  18 H18            3.5967    -1.5652     0.7527 H       
  19 H19            3.4654    -1.7400    -1.0146 H       
  20 H20            5.7365    -0.9634    -0.3049 H       
  21 H21            4.9109     0.2253    -1.3424 H       
  22 H22            4.0873     2.3588     1.5063 H       
  23 H23            3.9260     2.2092    -0.2608 H       
  24 H24            1.7930     1.6290     0.8221 H       
  25 H25            2.6145     0.4134     1.8313 H       
@<TRIPOS>BOND
   1    1    2 1
   2    1   14 1
   3    1   15 1
   4    2    3 ar
   5    2    4 ar
   6    3    5 ar
   7    3    8 1
   8    4    7 ar
   9    5    6 ar
  10    6    7 ar
  11    6   16 1
  12    7   17 1
  13    8    9 1
  14    8   13 1
  15    9   10 1
  16    9   18 1
  17    9   19 1
  18   10   11 1
  19   10   20 1
  20   10   21 1
  21   11   12 1
  22   12   13 1
  23   12   22 1
  24   12   23 1
  25   13   24 1
  26   13   25 1

#	End of record

