#	Name: ASD00844444
#	Creating user name:	WinNT
#	Creation time:	15. 06. 2019 18:50

#	Modifying user name:	WinNT
#	Modification time:	15. 06. 2019 18:50

#	Program:	/corina/corina34_cracker 3.40 0067  02.08.2006

@<TRIPOS>MOLECULE
ASD00844444
  89   94    0    0    0
SMALL
NO_CHARGES


@<TRIPOS>ATOM
   1 F1            -0.0795    -3.1472     4.7185 F       
   2 C2            -0.0052     1.3862     0.0369 C.ar    
   3 C3             0.0093    -0.0007     0.0189 C.ar    
   4 C4             1.2193    -0.6794    -0.0012 C.ar    
   5 C5             2.4061     0.0272    -0.0032 C.ar    
   6 C6             2.3891     1.4098     0.0151 C.ar    
   7 C7             1.1848     2.0884     0.0347 C.ar    
   8 C8             1.2387    -2.1862    -0.0202 C.3     
   9 C9             0.4942    -2.7107    -1.2292 C.2     
  10 N10            2.6178    -2.6804    -0.0126 N.am    
  11 C11            3.4633    -2.3341    -1.0034 C.2     
  12 N12            4.7589    -2.7002    -0.9424 N.am    
  13 O13            3.0572    -1.6913    -1.9522 O.2     
  14 C14            5.2906    -3.3760     0.2490 C.3     
  15 C15            6.5170    -2.6050     0.7471 C.3     
  16 C16            7.5240    -2.4623    -0.3965 C.3     
  17 C17            6.8886    -1.6712    -1.5422 C.3     
  18 C18            5.6651    -2.4366    -2.0685 C.3     
  19 N19            8.7158    -1.7522     0.0866 N.3     
  20 C20            9.7547    -1.7003    -0.9515 C.3     
  21 C21           10.9448    -0.8862    -0.4381 C.3     
  22 N22           11.4629    -1.5027     0.7911 N.3     
  23 C23           10.4240    -1.5546     1.8292 C.3     
  24 C24            9.2340    -2.3687     1.3158 C.3     
  25 H25           11.8349    -2.4220     0.6055 H       
  26 O26            0.7741    -2.5064    -2.3916 O.2     
  27 N27           -0.5343    -3.4453    -0.7739 N.am    
  28 C28            0.4679    -2.7406     1.1565 C.ar    
  29 C29           -0.5794    -3.4839     0.6218 C.ar    
  30 C30            0.6362    -2.6266     2.5189 C.ar    
  31 C31           -0.2432    -3.2570     3.3819 C.ar    
  32 C32           -1.3020    -4.0086     2.8623 C.ar    
  33 C33           -1.4665    -4.1202     1.4820 C.ar    
  34 C34           -0.9901    -5.8308    -2.0685 C.ar    
  35 C35            0.1891    -5.9859    -2.7831 C.ar    
  36 C36           -1.6654    -6.9410    -1.5980 C.ar    
  37 C37           -1.1682    -8.2075    -1.8374 C.ar    
  38 C38            0.0109    -8.3679    -2.5517 C.ar    
  39 C39            0.6899    -7.2560    -3.0250 C.ar    
  40 O40            0.4992    -9.6141    -2.7872 O.3     
  41 O41            0.8525    -4.8938    -3.2459 O.3     
  42 C42            2.0598    -5.1283    -3.9736 C.3     
  43 C43           -0.2527   -10.7139    -2.2703 C.3     
  44 O44           -1.1598    -0.6937     0.0214 O.3     
  45 C45           -2.3670     0.0707     0.0431 C.3     
  46 C46           -3.5696    -0.8752     0.0427 C.3     
  47 F47           -3.5396    -1.6671    -1.1102 F       
  48 F48           -3.5173    -1.6964     1.1740 F       
  49 S49           -1.6232    -4.2168    -1.7545 S.o2    
  50 O50           -2.8038    -4.3919    -0.9833 O.2     
  51 O51           -1.6018    -3.5285    -2.9975 O.2     
  52 C52           -2.2168    -4.6642     3.7477 C.1     
  53 N53           -2.9425    -5.1844     4.4501 N.1     
  54 H54           -0.9458     1.9168     0.0480 H       
  55 H55            3.3483    -0.5006    -0.0189 H       
  56 H56            3.3181     1.9605     0.0142 H       
  57 H57            1.1740     3.1682     0.0490 H       
  58 H58            2.9224    -3.2570     0.7056 H       
  59 H59            4.5292    -3.3947     1.0288 H       
  60 H60            5.5791    -4.3954    -0.0074 H       
  61 H61            6.2112    -1.6159     1.0880 H       
  62 H62            6.9780    -3.1482     1.5720 H       
  63 H63            7.8107    -3.4515    -0.7535 H       
  64 H64            6.5792    -0.6909    -1.1797 H       
  65 H65            7.6140    -1.5498    -2.3467 H       
  66 H66            5.9868    -3.3781    -2.5137 H       
  67 H67            5.1506    -1.8334    -2.8165 H       
  68 H68           10.0820    -2.7124    -1.1894 H       
  69 H69            9.3506    -1.2284    -1.8471 H       
  70 H70           11.7285    -0.8706    -1.1955 H       
  71 H71           10.6234     0.1335    -0.2260 H       
  72 H72           10.8281    -2.0265     2.7248 H       
  73 H73           10.0967    -0.5425     2.0671 H       
  74 H74            8.4502    -2.3843     2.0731 H       
  75 H75            9.5554    -3.3884     1.1037 H       
  76 H76            1.4558    -2.0448     2.9142 H       
  77 H77           -2.2843    -4.7007     1.0812 H       
  78 H78           -2.5831    -6.8182    -1.0420 H       
  79 H79           -1.6974    -9.0736    -1.4680 H       
  80 H80            1.6074    -7.3788    -3.5813 H       
  81 H81            1.8419    -5.7333    -4.8537 H       
  82 H82            2.4874    -4.1752    -4.2847 H       
  83 H83            2.7710    -5.6552    -3.3374 H       
  84 H84            0.2461   -11.6482    -2.5281 H       
  85 H85           -0.3243   -10.6274    -1.1861 H       
  86 H86           -1.2533   -10.7049    -2.7024 H       
  87 H87           -2.3903     0.6877     0.9413 H       
  88 H88           -2.4077     0.7105    -0.8384 H       
  89 H89           -4.4904    -0.2921     0.0592 H       
@<TRIPOS>BOND
   1    1   31 1
   2    2    3 ar
   3    2    7 ar
   4    2   54 1
   5    3    4 ar
   6    3   44 1
   7    4    5 ar
   8    4    8 1
   9    5    6 ar
  10    5   55 1
  11    6    7 ar
  12    6   56 1
  13    7   57 1
  14    8    9 1
  15    8   10 1
  16    8   28 1
  17    9   26 2
  18    9   27 am
  19   10   11 am
  20   10   58 1
  21   11   12 am
  22   11   13 2
  23   12   14 1
  24   12   18 1
  25   14   15 1
  26   14   59 1
  27   14   60 1
  28   15   16 1
  29   15   61 1
  30   15   62 1
  31   16   17 1
  32   16   19 1
  33   16   63 1
  34   17   18 1
  35   17   64 1
  36   17   65 1
  37   18   66 1
  38   18   67 1
  39   19   20 1
  40   19   24 1
  41   20   21 1
  42   20   68 1
  43   20   69 1
  44   21   22 1
  45   21   70 1
  46   21   71 1
  47   22   23 1
  48   22   25 1
  49   23   24 1
  50   23   72 1
  51   23   73 1
  52   24   74 1
  53   24   75 1
  54   27   49 am
  55   27   29 1
  56   28   29 ar
  57   28   30 ar
  58   29   33 ar
  59   30   31 ar
  60   30   76 1
  61   31   32 ar
  62   32   33 ar
  63   32   52 1
  64   33   77 1
  65   34   35 ar
  66   34   36 ar
  67   34   49 1
  68   35   41 1
  69   35   39 ar
  70   36   37 ar
  71   36   78 1
  72   37   38 ar
  73   37   79 1
  74   38   39 ar
  75   38   40 1
  76   39   80 1
  77   40   43 1
  78   41   42 1
  79   42   81 1
  80   42   82 1
  81   42   83 1
  82   43   84 1
  83   43   85 1
  84   43   86 1
  85   44   45 1
  86   45   46 1
  87   45   87 1
  88   45   88 1
  89   46   47 1
  90   46   48 1
  91   46   89 1
  92   49   50 2
  93   49   51 2
  94   52   53 3

#	End of record

