#	Name: ASD05720128
#	Creating user name:	WinNT
#	Creation time:	15. 06. 2019 21:01

#	Modifying user name:	WinNT
#	Modification time:	15. 06. 2019 21:01

#	Program:	/corina/corina34_cracker 3.40 0067  02.08.2006

@<TRIPOS>MOLECULE
ASD05720128
  78   81    0    0    0
SMALL
NO_CHARGES


@<TRIPOS>ATOM
   1 C1             0.2559     1.3216    -1.5224 C.ar    
   2 C2             0.2249    -0.0269    -1.2094 C.ar    
   3 C3             1.3896    -0.7253    -0.9886 C.ar    
   4 C4             2.6366    -0.0882    -1.0757 C.ar    
   5 C5             2.6473     1.2698    -1.3924 C.ar    
   6 C6             1.4742     1.9696    -1.6135 C.ar    
   7 N7             3.8892    -0.6479    -0.8833 N.pl3   
   8 C8             4.9776     0.1607    -1.0188 C.2     
   9 S9             4.3454     1.7646    -1.4246 S.3     
  10 N10            6.2320    -0.1779    -0.8772 N.2     
  11 C11            7.2861     0.8231    -1.0594 C.3     
  12 C12            8.0924     0.9559     0.2341 C.3     
  13 C13            8.7249    -0.3932     0.5816 C.3     
  14 C14            9.6518    -0.8297    -0.5547 C.3     
  15 C15            8.8455    -0.9625    -1.8482 C.3     
  16 C16            8.2130     0.3866    -2.1957 C.3     
  17 O17            7.2266     1.3636     1.2954 O.3     
  18 C18           10.2843    -2.1788    -0.2072 C.3     
  19 C19           11.2174    -2.0104     0.9936 C.3     
  20 C20           11.7595    -3.3780     1.4139 C.3     
  21 C21           10.5945    -4.2925     1.7976 C.3     
  22 C22           11.1251    -5.6958     2.0978 C.3     
  23 C23           12.3825    -1.0959     0.6099 C.3     
  24 O24           12.6450    -3.2182     2.5535 O.3     
  25 C25           13.6468    -4.1033     2.6757 C.2     
  26 C26           14.6061    -4.0005     3.8333 C.3     
  27 N27           15.2802    -5.2908     4.0262 N.3     
  28 C28           16.1954    -5.2454     5.1737 C.3     
  29 C29           17.2841    -4.2006     4.9185 C.3     
  30 C30           16.6316    -2.8315     4.7079 C.3     
  31 C31           15.6474    -2.9185     3.5381 C.3     
  32 O32           13.7793    -4.9824     1.8575 O.2     
  33 H33           10.4361    -0.0849    -0.6903 H       
  34 C34            7.8710     2.1451     2.3034 C.3     
  35 C35            4.0391    -2.0652    -0.5444 C.3     
  36 C36            4.1599    -2.8869    -1.8293 C.3     
  37 Cl37          -1.2209     2.1892    -1.8051 Cl      
  38 H38           -0.7246    -0.5364    -1.1374 H       
  39 H39            1.3434    -1.7764    -0.7449 H       
  40 H40            1.5100     3.0211    -1.8574 H       
  41 H41            6.8355     1.7842    -1.3070 H       
  42 H42            8.8766     1.7007     0.0985 H       
  43 H43            9.2993    -0.2986     1.5031 H       
  44 H44            7.9407    -1.1380     0.7172 H       
  45 H45            9.5059    -1.2734    -2.6577 H       
  46 H46            8.0613    -1.7073    -1.7126 H       
  47 H47            7.6386     0.2920    -3.1172 H       
  48 H48            8.9972     1.1314    -2.3313 H       
  49 H49            9.5004    -2.8948     0.0394 H       
  50 H50           10.8541    -2.5438    -1.0617 H       
  51 H51           10.6659    -1.5677     1.8230 H       
  52 H52           12.3111    -3.8207     0.5845 H       
  53 H53           10.0969    -3.8953     2.6823 H       
  54 H54            9.8840    -4.3415     0.9724 H       
  55 H55           11.8355    -5.6468     2.9230 H       
  56 H56           10.2951    -6.3473     2.3711 H       
  57 H57           11.6227    -6.0930     1.2131 H       
  58 H58           12.0066    -0.0920     0.4124 H       
  59 H59           13.1012    -1.0602     1.4286 H       
  60 H60           12.8696    -1.4840    -0.2846 H       
  61 H61           14.0571    -3.7388     4.7378 H       
  62 H62           14.6093    -6.0375     4.1281 H       
  63 H63           15.6388    -4.9779     6.0719 H       
  64 H64           16.6559    -6.2239     5.3100 H       
  65 H65           17.9542    -4.1561     5.7771 H       
  66 H66           17.8501    -4.4748     4.0283 H       
  67 H67           16.0977    -2.5395     5.6122 H       
  68 H68           17.4004    -2.0923     4.4829 H       
  69 H69           16.1876    -3.1726     2.6261 H       
  70 H70           15.1481    -1.9581     3.4104 H       
  71 H71            7.1470     2.4145     3.0724 H       
  72 H72            8.6783     1.5658     2.7515 H       
  73 H73            8.2791     3.0510     1.8553 H       
  74 H74            4.9360    -2.2014     0.0598 H       
  75 H75            3.1674    -2.3981     0.0192 H       
  76 H76            3.2630    -2.7507    -2.4334 H       
  77 H77            5.0315    -2.5540    -2.3928 H       
  78 H78            4.2714    -3.9415    -1.5771 H       
@<TRIPOS>BOND
   1    1    2 ar
   2    1    6 ar
   3    1   37 1
   4    2    3 ar
   5    2   38 1
   6    3    4 ar
   7    3   39 1
   8    4    5 ar
   9    4    7 1
  10    5    6 ar
  11    5    9 1
  12    6   40 1
  13    7   35 1
  14    7    8 1
  15    8    9 1
  16    8   10 2
  17   10   11 1
  18   11   12 1
  19   11   16 1
  20   11   41 1
  21   12   13 1
  22   12   17 1
  23   12   42 1
  24   13   14 1
  25   13   43 1
  26   13   44 1
  27   14   15 1
  28   14   18 1
  29   14   33 1
  30   15   16 1
  31   15   45 1
  32   15   46 1
  33   16   47 1
  34   16   48 1
  35   17   34 1
  36   18   19 1
  37   18   49 1
  38   18   50 1
  39   19   23 1
  40   19   20 1
  41   19   51 1
  42   20   21 1
  43   20   24 1
  44   20   52 1
  45   21   22 1
  46   21   53 1
  47   21   54 1
  48   22   55 1
  49   22   56 1
  50   22   57 1
  51   23   58 1
  52   23   59 1
  53   23   60 1
  54   24   25 1
  55   25   26 1
  56   25   32 2
  57   26   27 1
  58   26   31 1
  59   26   61 1
  60   27   28 1
  61   27   62 1
  62   28   29 1
  63   28   63 1
  64   28   64 1
  65   29   30 1
  66   29   65 1
  67   29   66 1
  68   30   31 1
  69   30   67 1
  70   30   68 1
  71   31   69 1
  72   31   70 1
  73   34   71 1
  74   34   72 1
  75   34   73 1
  76   35   36 1
  77   35   74 1
  78   35   75 1
  79   36   76 1
  80   36   77 1
  81   36   78 1

#	End of record

