#	Name: ASD07300855
#	Creating user name:	WinNT
#	Creation time:	15. 06. 2019 21:10

#	Modifying user name:	WinNT
#	Modification time:	15. 06. 2019 21:10

#	Program:	/corina/corina34_cracker 3.40 0067  02.08.2006

@<TRIPOS>MOLECULE
ASD07300855
  55   58    0    0    0
SMALL
NO_CHARGES


@<TRIPOS>ATOM
   1 N1            -0.0163     1.3527     0.0095 N.am    
   2 C2             0.0021    -0.0041     0.0020 C.2     
   3 N3             1.1018    -0.6986    -0.0118 N.2     
   4 C4             2.3098    -0.1133    -0.0201 C.2     
   5 C5             2.3914     1.2881    -0.0138 C.2     
   6 C6             1.1433     2.0510     0.0022 C.2     
   7 N7             3.5868    -0.5761    -0.0344 N.pl3   
   8 N8             4.4535     0.5241    -0.0369 N.2     
   9 C9             3.7572     1.6272    -0.0249 C.2     
  10 O10            1.1474     3.2693     0.0079 O.2     
  11 C11            3.9887    -1.9848    -0.0448 C.3     
  12 C12            4.8103    -2.2715    -1.3033 C.3     
  13 C13            5.2300    -3.7427    -1.3141 C.3     
  14 C14            6.0753    -4.0411    -0.0742 C.3     
  15 C15            5.2537    -3.7545     1.1842 C.3     
  16 C16            4.8339    -2.2832     1.1951 C.3     
  17 C17           -1.3127    -0.7405     0.0106 C.3     
  18 C18           -1.2319    -2.1525    -0.5933 C.3     
  19 C19           -2.1705    -2.6047     0.5378 C.3     
  20 C20           -1.6303    -1.4185     1.3539 C.3     
  21 C21           -1.8456    -2.2582    -1.9656 C.2     
  22 O22           -2.3398    -1.2804    -2.4858 O.2     
  23 N23           -1.8452    -3.4393    -2.6148 N.am    
  24 C24           -2.4418    -3.5420    -3.9488 C.3     
  25 C25           -1.4110    -3.1298    -5.0017 C.3     
  26 C26           -2.8731    -4.9643    -4.1980 C.2     
  27 C27           -3.8095    -5.2794    -5.3360 C.3     
  28 O28           -2.4684    -5.8516    -3.4858 O.2     
  29 F29            6.4591    -5.3864    -0.0842 F       
  30 F30            7.2157    -3.2308    -0.0812 F       
  31 H31           -0.8640     1.8242     0.0160 H       
  32 H32            4.1599     2.6293    -0.0236 H       
  33 H33            3.1001    -2.6162    -0.0394 H       
  34 H34            4.2081    -2.0589    -2.1866 H       
  35 H35            5.6988    -1.6401    -1.3087 H       
  36 H36            4.3415    -4.3741    -1.3087 H       
  37 H37            5.8153    -3.9469    -2.2107 H       
  38 H38            4.3651    -4.3858     1.1896 H       
  39 H39            5.8559    -3.9671     2.0675 H       
  40 H40            5.7225    -1.6519     1.1896 H       
  41 H41            4.2486    -2.0790     2.0916 H       
  42 H42           -2.1349    -0.1434    -0.3838 H       
  43 H43           -0.2371    -2.5946    -0.5382 H       
  44 H44           -3.2280    -2.5177     0.2886 H       
  45 H45           -1.9120    -3.5770     0.9572 H       
  46 H46           -0.7444    -1.6599     1.9413 H       
  47 H47           -2.3958    -0.9024     1.9332 H       
  48 H48           -1.4499    -4.2213    -2.1987 H       
  49 H49           -3.3081    -2.8835    -4.0111 H       
  50 H50           -1.8549    -3.2062    -5.9942 H       
  51 H51           -1.0991    -2.1011    -4.8214 H       
  52 H52           -0.5447    -3.7884    -4.9394 H       
  53 H53           -4.0643    -4.3594    -5.8622 H       
  54 H54           -3.3239    -5.9698    -6.0256 H       
  55 H55           -4.7176    -5.7368    -4.9433 H       
@<TRIPOS>BOND
   1    1    2 1
   2    1    6 am
   3    1   31 1
   4    2    3 2
   5    2   17 1
   6    3    4 1
   7    4    5 2
   8    4    7 1
   9    5    6 1
  10    5    9 1
  11    6   10 2
  12    7    8 1
  13    7   11 1
  14    8    9 2
  15    9   32 1
  16   11   12 1
  17   11   16 1
  18   11   33 1
  19   12   13 1
  20   12   34 1
  21   12   35 1
  22   13   14 1
  23   13   36 1
  24   13   37 1
  25   14   15 1
  26   14   29 1
  27   14   30 1
  28   15   16 1
  29   15   38 1
  30   15   39 1
  31   16   40 1
  32   16   41 1
  33   17   18 1
  34   17   20 1
  35   17   42 1
  36   18   19 1
  37   18   21 1
  38   18   43 1
  39   19   20 1
  40   19   44 1
  41   19   45 1
  42   20   46 1
  43   20   47 1
  44   21   22 2
  45   21   23 am
  46   23   24 1
  47   23   48 1
  48   24   25 1
  49   24   26 1
  50   24   49 1
  51   25   50 1
  52   25   51 1
  53   25   52 1
  54   26   27 1
  55   26   28 2
  56   27   53 1
  57   27   54 1
  58   27   55 1

#	End of record

