#	Name: ASD00450005
#	Creating user name:	WinNT
#	Creation time:	15. 06. 2019 18:35

#	Modifying user name:	WinNT
#	Modification time:	15. 06. 2019 18:35

#	Program:	/corina/corina34_cracker 3.40 0067  02.08.2006

@<TRIPOS>MOLECULE
ASD00450005
  62   66    0    0    0
SMALL
NO_CHARGES


@<TRIPOS>ATOM
   1 C1             0.1131     1.4693    -0.0664 C.2     
   2 N2             0.1745     0.3750    -0.8707 N.am    
   3 C3             1.3521    -0.2567    -1.0853 C.2     
   4 C4             2.5439     0.2882    -0.4181 C.ar    
   5 C5             2.3838     1.4294     0.3990 C.ar    
   6 N6             1.1475     1.9723     0.5351 N.2     
   7 C7             3.8026    -0.2878    -0.5727 C.ar    
   8 C8             4.8884     0.2699     0.0813 C.ar    
   9 C9             4.7244     1.3968     0.8870 C.ar    
  10 C10            3.4963     1.9719     1.0464 C.ar    
  11 N11            6.1563    -0.3002    -0.0663 N.pl3   
  12 C12            7.2782     0.5195    -0.2107 C.ar    
  13 C13            7.1218     1.8889    -0.3731 C.ar    
  14 C14            8.2390     2.6995    -0.5162 C.ar    
  15 C15            9.5098     2.1384    -0.4964 C.ar    
  16 C16            9.6623     0.7745    -0.3345 C.ar    
  17 C17            8.5528    -0.0347    -0.1860 C.ar    
  18 C18            8.7238    -1.5216    -0.0096 C.3     
  19 N19            8.0858     4.0798    -0.6806 N.am    
  20 C20            8.9735     4.9274    -0.1237 C.2     
  21 C21            8.7791     6.3792    -0.2451 C.2     
  22 O22            9.9357     4.4907     0.4795 O.2     
  23 N23            7.7627     7.0002    -0.8817 N.2     
  24 C24            7.9142     8.2890    -0.7856 C.2     
  25 N25            9.0419     8.5628    -0.0783 N.pl3   
  26 C26            9.6035     7.3666     0.2788 C.2     
  27 C27           10.8417     7.1663     1.0576 C.ar    
  28 C28           10.8753     6.2278     2.0913 C.ar    
  29 C29           12.0346     6.0450     2.8154 C.ar    
  30 C30           13.1648     6.7904     2.5190 C.ar    
  31 C31           13.1370     7.7237     1.4942 C.ar    
  32 C32           11.9856     7.9106     0.7596 C.ar    
  33 C33           -1.0448    -0.1252    -1.5105 C.3     
  34 O34            1.4219    -1.2380    -1.8023 O.2     
  35 F35           14.2978     6.6071     3.2317 F       
  36 C36           14.3698     8.5310     1.1787 C.3     
  37 C37            6.9822     9.3196    -1.3689 C.3     
  38 F38            5.7744     8.7089    -1.7230 F       
  39 F39            6.7390    10.3185    -0.4201 F       
  40 F40            7.5680     9.8882    -2.5050 F       
  41 H41           -0.8448     1.9473     0.0759 H       
  42 H42            3.9304    -1.1605    -1.1960 H       
  43 H43            5.5805     1.8204     1.3911 H       
  44 H44            3.3850     2.8444     1.6732 H       
  45 H45            6.2570    -1.2650    -0.0685 H       
  46 H46            6.1329     2.3226    -0.3885 H       
  47 H47           10.3796     2.7688    -0.6081 H       
  48 H48           10.6513     0.3410    -0.3195 H       
  49 H49            8.8094    -1.7540     1.0518 H       
  50 H50            7.8594    -2.0387    -0.4262 H       
  51 H51            9.6262    -1.8474    -0.5269 H       
  52 H52            7.3407     4.4271    -1.1955 H       
  53 H53            9.3843     9.4445     0.1371 H       
  54 H54            9.9951     5.6467     2.3234 H       
  55 H55           12.0617     5.3198     3.6153 H       
  56 H56           11.9652     8.6377    -0.0387 H       
  57 H57           -1.8887     0.5030    -1.2252 H       
  58 H58           -0.9233    -0.1005    -2.5934 H       
  59 H59           -1.2297    -1.1501    -1.1888 H       
  60 H60           14.9694     8.0036     0.4368 H       
  61 H61           14.0760     9.5035     0.7837 H       
  62 H62           14.9556     8.6698     2.0873 H       
@<TRIPOS>BOND
   1    1    2 1
   2    1    6 2
   3    1   41 1
   4    2    3 am
   5    2   33 1
   6    3    4 1
   7    3   34 2
   8    4    5 ar
   9    4    7 ar
  10    5    6 1
  11    5   10 ar
  12    7    8 ar
  13    7   42 1
  14    8    9 ar
  15    8   11 1
  16    9   10 ar
  17    9   43 1
  18   10   44 1
  19   11   12 1
  20   11   45 1
  21   12   13 ar
  22   12   17 ar
  23   13   14 ar
  24   13   46 1
  25   14   15 ar
  26   14   19 1
  27   15   16 ar
  28   15   47 1
  29   16   17 ar
  30   16   48 1
  31   17   18 1
  32   18   49 1
  33   18   50 1
  34   18   51 1
  35   19   20 am
  36   19   52 1
  37   20   21 1
  38   20   22 2
  39   21   23 1
  40   21   26 2
  41   23   24 2
  42   24   25 1
  43   24   37 1
  44   25   26 1
  45   25   53 1
  46   26   27 1
  47   27   28 ar
  48   27   32 ar
  49   28   29 ar
  50   28   54 1
  51   29   30 ar
  52   29   55 1
  53   30   31 ar
  54   30   35 1
  55   31   32 ar
  56   31   36 1
  57   32   56 1
  58   33   57 1
  59   33   58 1
  60   33   59 1
  61   36   60 1
  62   36   61 1
  63   36   62 1
  64   37   38 1
  65   37   39 1
  66   37   40 1

#	End of record

