#	Name: ASD02448042
#	Creating user name:	WinNT
#	Creation time:	15. 06. 2019 20:21

#	Modifying user name:	WinNT
#	Modification time:	15. 06. 2019 20:21

#	Program:	/corina/corina34_cracker 3.40 0067  02.08.2006

@<TRIPOS>MOLECULE
ASD02448042
  83   88    0    0    0
SMALL
NO_CHARGES


@<TRIPOS>ATOM
   1 C1            -0.0485    -6.5832     3.1350 C.ar    
   2 C2             0.4378    -5.4516     2.5091 C.ar    
   3 C3             0.3485    -5.3268     1.1286 C.ar    
   4 C4            -0.2295    -6.3395     0.3780 C.ar    
   5 C5            -0.7173    -7.4755     1.0093 C.ar    
   6 C6            -0.6250    -7.5943     2.3905 C.ar    
   7 N7            -1.3006    -8.4975     0.2570 N.am    
   8 C8            -1.4126    -9.9208     0.6017 C.3     
   9 C9            -2.1092   -10.6878    -0.4756 C.2     
  10 N10           -2.4927    -9.9536    -1.5295 N.am    
  11 S11           -2.0362    -8.3800    -1.2359 S.o2    
  12 O12           -2.3114   -11.8814    -0.4021 O.2     
  13 O13           -3.2266    -7.6228    -1.0663 O.2     
  14 O14           -1.0177    -8.0572    -2.1727 O.2     
  15 N15            0.8419    -4.1778     0.4947 N.pl3   
  16 C16            1.7723    -4.1405    -0.5094 C.2     
  17 C17            0.4815    -2.8942     0.7585 C.2     
  18 N18            1.1498    -2.0984    -0.0287 N.2     
  19 C19            1.9553    -2.8316    -0.8238 C.2     
  20 C20            2.8778    -2.3027    -1.8584 C.ar    
  21 C21            2.9674    -0.9284    -2.0795 C.ar    
  22 C22            3.6619    -3.1765    -2.6085 C.ar    
  23 C23            4.5190    -2.6796    -3.5695 C.ar    
  24 C24            4.6008    -1.3154    -3.7892 C.ar    
  25 C25            3.8281    -0.4416    -3.0434 C.ar    
  26 C26           -0.5262    -2.4615     1.7921 C.3     
  27 C27           -1.8702    -2.2754     1.1364 C.ar    
  28 C28           -2.7141    -3.3594     0.9749 C.ar    
  29 C29           -2.2577    -1.0202     0.7033 C.ar    
  30 C30           -3.4877    -0.8440     0.1025 C.ar    
  31 C31           -4.3396    -1.9334    -0.0675 C.ar    
  32 C32           -3.9463    -3.1946     0.3755 C.ar    
  33 C33           -5.6635    -1.7500    -0.7123 C.ar    
  34 C34           -6.5155    -2.8395    -0.8822 C.ar    
  35 C35           -6.0615    -0.4868    -1.1448 C.ar    
  36 C36           -7.2941    -0.3219    -1.7440 C.ar    
  37 C37           -8.1335    -1.4077    -1.9149 C.ar    
  38 C38           -7.7455    -2.6633    -1.4825 C.ar    
  39 Cl39           1.9984     0.1679    -1.1452 Cl      
  40 Cl40           5.6810    -0.6975    -4.9996 Cl      
  41 C41           -8.6654    -3.8417    -1.6727 C.3     
  42 C42           -8.3793    -4.4991    -3.0243 C.3     
  43 C43           -9.3133    -5.6955    -3.2173 C.3     
  44 C44           -9.0272    -6.3530    -4.5689 C.3     
  45 C45           -7.5737    -6.8293    -4.6069 C.3     
  46 C46           -9.9611    -7.5494    -4.7620 C.3     
  47 C47           -9.2606    -5.3377    -5.6895 C.3     
  48 H48            0.0262    -6.6796     4.2081 H       
  49 H49            0.8876    -4.6630     3.0940 H       
  50 H50           -0.3003    -6.2444    -0.6955 H       
  51 H51           -1.0042    -8.4777     2.8826 H       
  52 H52           -0.4138   -10.3331     0.7448 H       
  53 H53           -1.9741   -10.0199     1.5307 H       
  54 H54           -2.9546   -10.2793    -2.3178 H       
  55 H55            2.2654    -4.9875    -0.9631 H       
  56 H56            3.5994    -4.2412    -2.4380 H       
  57 H57            5.1273    -3.3565    -4.1510 H       
  58 H58            3.8955     0.6219    -3.2187 H       
  59 H59           -0.6024    -3.2244     2.5669 H       
  60 H60           -0.2066    -1.5202     2.2393 H       
  61 H61           -2.4081    -4.3365     1.3183 H       
  62 H62           -1.5967    -0.1764     0.8358 H       
  63 H63           -3.7894     0.1366    -0.2350 H       
  64 H64           -4.6026    -4.0425     0.2459 H       
  65 H65           -6.2137    -3.8201    -0.5451 H       
  66 H66           -5.4070     0.3618    -1.0111 H       
  67 H67           -7.6036     0.6568    -2.0796 H       
  68 H68           -9.0973    -1.2741    -2.3835 H       
  69 H69           -8.4991    -4.5650    -0.8744 H       
  70 H70           -9.7009    -3.5024    -1.6456 H       
  71 H71           -8.5456    -3.7758    -3.8226 H       
  72 H72           -7.3439    -4.8384    -3.0513 H       
  73 H73           -9.1470    -6.4188    -2.4190 H       
  74 H74          -10.3488    -5.3562    -3.1903 H       
  75 H75           -7.4074    -7.5526    -3.8086 H       
  76 H76           -7.3699    -7.2977    -5.5698 H       
  77 H77           -6.9083    -5.9769    -4.4694 H       
  78 H78          -10.9966    -7.2101    -4.7349 H       
  79 H79           -9.7573    -8.0178    -5.7249 H       
  80 H80           -9.7948    -8.2727    -3.9636 H       
  81 H81           -8.5953    -4.4854    -5.5520 H       
  82 H82           -9.0568    -5.8061    -6.6524 H       
  83 H83          -10.2961    -4.9984    -5.6624 H       
@<TRIPOS>BOND
   1    1    2 ar
   2    1    6 ar
   3    1   48 1
   4    2    3 ar
   5    2   49 1
   6    3    4 ar
   7    3   15 1
   8    4    5 ar
   9    4   50 1
  10    5    6 ar
  11    5    7 1
  12    6   51 1
  13    7    8 1
  14    7   11 am
  15    8    9 1
  16    8   52 1
  17    8   53 1
  18    9   10 am
  19    9   12 2
  20   10   11 am
  21   10   54 1
  22   11   13 2
  23   11   14 2
  24   15   16 1
  25   15   17 1
  26   16   19 2
  27   16   55 1
  28   17   18 2
  29   17   26 1
  30   18   19 1
  31   19   20 1
  32   20   21 ar
  33   20   22 ar
  34   21   39 1
  35   21   25 ar
  36   22   23 ar
  37   22   56 1
  38   23   24 ar
  39   23   57 1
  40   24   25 ar
  41   24   40 1
  42   25   58 1
  43   26   27 1
  44   26   59 1
  45   26   60 1
  46   27   28 ar
  47   27   29 ar
  48   28   32 ar
  49   28   61 1
  50   29   30 ar
  51   29   62 1
  52   30   31 ar
  53   30   63 1
  54   31   32 ar
  55   31   33 1
  56   32   64 1
  57   33   34 ar
  58   33   35 ar
  59   34   38 ar
  60   34   65 1
  61   35   36 ar
  62   35   66 1
  63   36   37 ar
  64   36   67 1
  65   37   38 ar
  66   37   68 1
  67   38   41 1
  68   41   42 1
  69   41   69 1
  70   41   70 1
  71   42   43 1
  72   42   71 1
  73   42   72 1
  74   43   44 1
  75   43   73 1
  76   43   74 1
  77   44   45 1
  78   44   46 1
  79   44   47 1
  80   45   75 1
  81   45   76 1
  82   45   77 1
  83   46   78 1
  84   46   79 1
  85   46   80 1
  86   47   81 1
  87   47   82 1
  88   47   83 1

#	End of record

