#	Name: ASD01410996
#	Creating user name:	WinNT
#	Creation time:	15. 06. 2019 19:19

#	Modifying user name:	WinNT
#	Modification time:	15. 06. 2019 19:19

#	Program:	/corina/corina34_cracker 3.40 0067  02.08.2006

@<TRIPOS>MOLECULE
ASD01410996
  64   67    0    0    0
SMALL
NO_CHARGES


@<TRIPOS>ATOM
   1 C1            -1.3437     3.0872     0.3245 C.ar    
   2 C2            -0.6099     1.9313     0.0695 C.ar    
   3 C3            -1.2564     0.7390    -0.1986 C.ar    
   4 C4            -2.6426     0.6873    -0.2151 C.ar    
   5 C5            -3.3871     1.8496     0.0418 C.ar    
   6 C6            -2.7244     3.0496     0.3171 C.ar    
   7 O7            -0.6987     4.2555     0.5872 O.3     
   8 C8            -0.2356     4.9776    -0.4637 C.ar    
   9 N9            -3.2939    -0.5139    -0.4862 N.am    
  10 C10           -3.5847    -1.3644     0.5181 C.2     
  11 C11           -3.3595    -0.9564     1.9203 C.ar    
  12 O12           -4.0323    -2.4671     0.2704 O.2     
  13 C13           -3.7926    -1.7735     2.9663 C.ar    
  14 C14           -2.5004     0.6205     3.5153 C.ar    
  15 C15           -2.9374    -0.1916     4.5484 C.ar    
  16 C16           -3.5795    -1.3872     4.2729 C.ar    
  17 Br17          -2.6493     0.3306     6.3429 Br      
  18 N18           -0.5155     4.5919    -1.6979 N.ar    
  19 C19           -3.6627    -0.8528    -1.8629 C.3     
  20 C20           -4.4247     0.3167    -2.4893 C.3     
  21 C21            0.5230     6.1182    -0.2336 C.ar    
  22 C22            0.9895     6.8461    -1.3146 C.ar    
  23 C23            0.6788     6.4049    -2.5933 C.ar    
  24 C24           -0.0853     5.2649    -2.7478 C.ar    
  25 F25            0.7403     1.9754     0.0836 F       
  26 C26           -2.3970    -1.1309    -2.6762 C.3     
  27 O27           -1.7469    -2.2951    -2.1624 O.3     
  28 C28           -0.5469    -2.6443    -2.8554 C.3     
  29 C29           -2.7076     0.2452     2.2046 C.ar    
  30 C30            1.1648     7.1653    -3.8003 C.3     
  31 N31            2.4738     6.6490    -4.2081 N.pl3   
  32 N32            2.6521     5.6891    -5.0451 N.2     
  33 C33            3.9425     5.4828    -5.1813 C.2     
  34 C34            4.5686     6.4100    -4.3451 C.2     
  35 N35            3.6011     7.0978    -3.7820 N.2     
  36 C36           -4.8588     1.8040     0.0264 C.2     
  37 O37           -5.4328     0.7363    -0.0612 O.2     
  38 O38           -5.5694     2.9462     0.1093 O.3     
  39 C39            0.8338     6.5575     1.1740 C.3     
  40 F40            1.6058     7.7237     1.1389 F       
  41 F41           -0.3602     6.8090     1.8583 F       
  42 F42            1.5443     5.5475     1.8316 F       
  43 H43           -0.6813    -0.1536    -0.3959 H       
  44 H44           -3.2911     3.9473     0.5156 H       
  45 H45           -4.2938    -2.7060     2.7527 H       
  46 H46           -2.0003     1.5518     3.7366 H       
  47 H47           -3.9143    -2.0182     5.0829 H       
  48 H48           -4.2960    -1.7400    -1.8615 H       
  49 H49           -3.8123     1.2171    -2.4407 H       
  50 H50           -4.6510     0.0870    -3.5306 H       
  51 H51           -5.3538     0.4793    -1.9430 H       
  52 H52            1.5813     7.7372    -1.1664 H       
  53 H53           -0.3298     4.9175    -3.7407 H       
  54 H54           -2.6646    -1.2951    -3.7200 H       
  55 H55           -1.7236    -0.2769    -2.6038 H       
  56 H56           -0.1142    -3.5377    -2.4052 H       
  57 H57           -0.7761    -2.8399    -3.9029 H       
  58 H58            0.1649    -1.8217    -2.7867 H       
  59 H59           -2.3660     0.8792     1.3998 H       
  60 H60            0.4546     7.0415    -4.6179 H       
  61 H61            1.2526     8.2230    -3.5523 H       
  62 H62            4.4209     4.7469    -5.8106 H       
  63 H63            5.6305     6.5381    -4.1954 H       
  64 H64           -6.5329     2.8659     0.0952 H       
@<TRIPOS>BOND
   1    1    2 ar
   2    1    7 1
   3    1    6 ar
   4    2    3 ar
   5    2   25 1
   6    3    4 ar
   7    3   43 1
   8    4    5 ar
   9    4    9 1
  10    5    6 ar
  11    5   36 1
  12    6   44 1
  13    7    8 1
  14    8   21 ar
  15    8   18 ar
  16    9   10 am
  17    9   19 1
  18   10   11 1
  19   10   12 2
  20   11   13 ar
  21   11   29 ar
  22   13   16 ar
  23   13   45 1
  24   14   15 ar
  25   14   29 ar
  26   14   46 1
  27   15   16 ar
  28   15   17 1
  29   16   47 1
  30   18   24 ar
  31   19   20 1
  32   19   26 1
  33   19   48 1
  34   20   49 1
  35   20   50 1
  36   20   51 1
  37   21   22 ar
  38   21   39 1
  39   22   23 ar
  40   22   52 1
  41   23   24 ar
  42   23   30 1
  43   24   53 1
  44   26   27 1
  45   26   54 1
  46   26   55 1
  47   27   28 1
  48   28   56 1
  49   28   57 1
  50   28   58 1
  51   29   59 1
  52   30   31 1
  53   30   60 1
  54   30   61 1
  55   31   32 1
  56   31   35 1
  57   32   33 2
  58   33   34 1
  59   33   62 1
  60   34   35 2
  61   34   63 1
  62   36   37 2
  63   36   38 1
  64   38   64 1
  65   39   40 1
  66   39   41 1
  67   39   42 1

#	End of record

