#	Name: ASD01911172
#	Creating user name:	WinNT
#	Creation time:	15. 06. 2019 19:57

#	Modifying user name:	WinNT
#	Modification time:	15. 06. 2019 19:57

#	Program:	/corina/corina34_cracker 3.40 0067  02.08.2006

@<TRIPOS>MOLECULE
ASD01911172
  43   46    0    0    0
SMALL
NO_CHARGES


@<TRIPOS>ATOM
   1 C1             0.5857     1.0247     0.2920 C.ar    
   2 C2             0.8127    -0.3394     0.3865 C.ar    
   3 C3             2.1029    -0.8340     0.4270 C.ar    
   4 C4             3.1876     0.0273     0.3732 C.ar    
   5 C5             2.9759     1.3934     0.2781 C.ar    
   6 C6             1.6604     1.8978     0.2372 C.ar    
   7 C7             3.8638     2.5727     0.2018 C.2     
   8 N8             3.1018     3.6785     0.1222 N.am    
   9 C9             1.7933     3.3665     0.1372 C.2     
  10 C10            3.6277     5.0428     0.0314 C.3     
  11 C11            3.9552     5.3604    -1.4049 C.ar    
  12 C12            2.9541     5.7857    -2.2683 C.ar    
  13 C13            3.2594     6.0776    -3.5917 C.ar    
  14 C14            4.5568     5.9442    -4.0452 C.ar    
  15 C15            5.5526     5.5201    -3.1825 C.ar    
  16 C16            5.2523     5.2342    -1.8624 C.ar    
  17 N17            1.6407     5.9195    -1.8065 N.am    
  18 C18            0.6140     5.8984    -2.6793 C.2     
  19 C19           -0.7586     6.1552    -2.2086 C.2     
  20 O20            0.8749     4.1590     0.0779 O.2     
  21 O21            5.0780     2.5476     0.2098 O.2     
  22 O22            0.8203     5.6674    -3.8554 O.2     
  23 Cl23           7.1827     5.3535    -3.7559 Cl      
  24 N24           -1.1119     6.4167    -0.9680 N.2     
  25 C25           -2.4298     6.5943    -0.9160 C.2     
  26 C26           -2.9316     6.4406    -2.1660 C.2     
  27 N27           -1.8824     6.1686    -2.9867 N.pl3   
  28 C28           -1.9453     5.9274    -4.4303 C.3     
  29 H29           -0.4244     1.4052     0.2566 H       
  30 H30           -0.0243    -1.0206     0.4292 H       
  31 H31            2.2669    -1.8989     0.5015 H       
  32 H32            4.1934    -0.3646     0.4055 H       
  33 H33            2.8794     5.7458     0.3974 H       
  34 H34            4.5304     5.1253     0.6366 H       
  35 H35            2.4827     6.4081    -4.2654 H       
  36 H36            4.7947     6.1706    -5.0740 H       
  37 H37            6.0312     4.9035    -1.1913 H       
  38 H38            1.4688     6.0274    -0.8580 H       
  39 H39           -3.0022     6.8216    -0.0289 H       
  40 H40           -3.9688     6.5223    -2.4558 H       
  41 H41           -1.8363     6.8729    -4.9617 H       
  42 H42           -1.1405     5.2523    -4.7213 H       
  43 H43           -2.9057     5.4777    -4.6820 H       
@<TRIPOS>BOND
   1    1    2 ar
   2    1    6 ar
   3    1   29 1
   4    2    3 ar
   5    2   30 1
   6    3    4 ar
   7    3   31 1
   8    4    5 ar
   9    4   32 1
  10    5    6 ar
  11    5    7 1
  12    6    9 1
  13    7    8 am
  14    7   21 2
  15    8    9 am
  16    8   10 1
  17    9   20 2
  18   10   11 1
  19   10   33 1
  20   10   34 1
  21   11   12 ar
  22   11   16 ar
  23   12   13 ar
  24   12   17 1
  25   13   14 ar
  26   13   35 1
  27   14   15 ar
  28   14   36 1
  29   15   16 ar
  30   15   23 1
  31   16   37 1
  32   17   18 am
  33   17   38 1
  34   18   19 1
  35   18   22 2
  36   19   24 2
  37   19   27 1
  38   24   25 1
  39   25   26 2
  40   25   39 1
  41   26   27 1
  42   26   40 1
  43   27   28 1
  44   28   41 1
  45   28   42 1
  46   28   43 1

#	End of record

