#	Name: ASD03430730
#	Creating user name:	WinNT
#	Creation time:	15. 06. 2019 20:41

#	Modifying user name:	WinNT
#	Modification time:	15. 06. 2019 20:41

#	Program:	/corina/corina34_cracker 3.40 0067  02.08.2006

@<TRIPOS>MOLECULE
ASD03430730
  55   61    0    0    0
SMALL
NO_CHARGES


@<TRIPOS>ATOM
   1 C1             2.6625     0.3835    -0.0006 C.ar    
   2 C2             2.0888    -0.8904    -0.0408 C.ar    
   3 C3             2.8670    -1.9988    -0.2559 C.ar    
   4 C4             4.2491    -1.8769    -0.4281 C.ar    
   5 C5             4.8258    -0.6228    -0.3970 C.ar    
   6 C6             4.0402     0.5283    -0.1830 C.ar    
   7 O7             4.8320    -3.0996    -0.5962 O.3     
   8 C8             2.5492    -3.4657    -0.3752 C.3     
   9 C9             3.8280    -4.0557    -0.9854 C.3     
  10 C10            0.9482    -4.6367     0.8024 C.ar    
  11 C11            2.2212    -4.0902     0.9484 C.ar    
  12 C12            1.3497    -3.7187    -1.2429 C.2     
  13 N13            0.4671    -4.4027    -0.4880 N.am    
  14 O14            1.2039    -3.3749    -2.3968 O.2     
  15 C15            2.8967    -4.1983     2.1430 C.ar    
  16 C16            2.3134    -4.8550     3.2125 C.ar    
  17 C17            1.0506    -5.4018     3.0786 C.ar    
  18 C18            0.3692    -5.2960     1.8835 C.ar    
  19 C19           -0.8438    -4.8496    -0.9655 C.3     
  20 C20           -1.9270    -4.1766    -0.1625 C.ar    
  21 C21           -0.9986    -4.4878    -2.4202 C.ar    
  22 C22           -3.0750    -4.8719     0.1687 C.ar    
  23 C23           -4.0686    -4.2546     0.9052 C.ar    
  24 C24           -3.9142    -2.9422     1.3109 C.ar    
  25 C25           -2.7658    -2.2472     0.9805 C.ar    
  26 C26           -1.7703    -2.8659     0.2477 C.ar    
  27 C27           -0.9634    -5.4764    -3.3858 C.ar    
  28 C28           -1.1053    -5.1445    -4.7202 C.ar    
  29 C29           -1.2829    -3.8242    -5.0890 C.ar    
  30 C30           -1.3190    -2.8357    -4.1233 C.ar    
  31 C31           -1.1814    -3.1680    -2.7886 C.ar    
  32 S32            1.9295     1.9608     0.2622 S.3     
  33 C33            3.4723     2.7783     0.1065 C.2     
  34 C34            4.4500     1.9223    -0.1158 C.2     
  35 H35            1.0238    -1.0027     0.0990 H       
  36 H36            5.8918    -0.5223    -0.5383 H       
  37 H37            3.7480    -4.1125    -2.0709 H       
  38 H38            4.0424    -5.0364    -0.5605 H       
  39 H39            3.8830    -3.7705     2.2456 H       
  40 H40            2.8436    -4.9404     4.1495 H       
  41 H41            0.5956    -5.9144     3.9132 H       
  42 H42           -0.6168    -5.7258     1.7864 H       
  43 H43           -0.9237    -5.9304    -0.8494 H       
  44 H44           -3.1957    -5.8972    -0.1482 H       
  45 H45           -4.9658    -4.7976     1.1634 H       
  46 H46           -4.6908    -2.4597     1.8858 H       
  47 H47           -2.6453    -1.2217     1.2972 H       
  48 H48           -0.8731    -2.3229    -0.0105 H       
  49 H49           -0.8246    -6.5080    -3.0977 H       
  50 H50           -1.0771    -5.9168    -5.4747 H       
  51 H51           -1.3931    -3.5648    -6.1316 H       
  52 H52           -1.4574    -1.8041    -4.4115 H       
  53 H53           -1.2096    -2.3958    -2.0341 H       
  54 H54            3.6056     3.8471     0.1864 H       
  55 H55            5.4767     2.2328    -0.2412 H       
@<TRIPOS>BOND
   1    1    2 ar
   2    1    6 ar
   3    1   32 1
   4    2    3 ar
   5    2   35 1
   6    3    4 ar
   7    3    8 1
   8    4    5 ar
   9    4    7 1
  10    5    6 ar
  11    5   36 1
  12    6   34 1
  13    7    9 1
  14    8    9 1
  15    8   11 1
  16    8   12 1
  17    9   37 1
  18    9   38 1
  19   10   11 ar
  20   10   13 1
  21   10   18 ar
  22   11   15 ar
  23   12   13 am
  24   12   14 2
  25   13   19 1
  26   15   16 ar
  27   15   39 1
  28   16   17 ar
  29   16   40 1
  30   17   18 ar
  31   17   41 1
  32   18   42 1
  33   19   20 1
  34   19   21 1
  35   19   43 1
  36   20   22 ar
  37   20   26 ar
  38   21   27 ar
  39   21   31 ar
  40   22   23 ar
  41   22   44 1
  42   23   24 ar
  43   23   45 1
  44   24   25 ar
  45   24   46 1
  46   25   26 ar
  47   25   47 1
  48   26   48 1
  49   27   28 ar
  50   27   49 1
  51   28   29 ar
  52   28   50 1
  53   29   30 ar
  54   29   51 1
  55   30   31 ar
  56   30   52 1
  57   31   53 1
  58   32   33 1
  59   33   34 2
  60   33   54 1
  61   34   55 1

#	End of record

