#	Name: ASD01152514
#	Creating user name:	WinNT
#	Creation time:	15. 06. 2019 19:06

#	Modifying user name:	WinNT
#	Modification time:	15. 06. 2019 19:06

#	Program:	/corina/corina34_cracker 3.40 0067  02.08.2006

@<TRIPOS>MOLECULE
ASD01152514
  49   51    0    0    0
SMALL
NO_CHARGES


@<TRIPOS>ATOM
   1 C1             0.1112     1.1571    -0.6957 C.2     
   2 N2             0.0188    -0.1436    -0.6173 N.2     
   3 N3            -1.1206    -0.7661    -0.1079 N.am    
   4 C4            -2.2616    -0.0993     0.1331 C.2     
   5 C5            -2.3925     1.3536    -0.2590 C.3     
   6 C6            -1.0086     1.9736    -0.2033 C.2     
   7 C7            -2.9558     1.4586    -1.6777 C.3     
   8 O8            -0.8360     3.0970     0.2227 O.2     
   9 C9            -1.0735    -2.1389     0.1624 C.ar    
  10 O10           -3.1908    -0.6664     0.6673 O.2     
  11 C11           -3.2023     2.9291    -2.0210 C.3     
  12 C12           -0.0102    -2.6693     0.8797 C.ar    
  13 C13           -2.0939    -2.9703    -0.2824 C.ar    
  14 C14           -2.0490    -4.3252    -0.0160 C.ar    
  15 C15           -0.9884    -4.8582     0.6946 C.ar    
  16 C16            0.0334    -4.0297     1.1463 C.ar    
  17 F17           -0.9477    -6.1834     0.9543 F       
  18 C18           -3.7571     3.0326    -3.4183 C.ar    
  19 C19           -5.1172     2.8914    -3.6350 C.ar    
  20 C20           -5.6266     2.9865    -4.9188 C.ar    
  21 C21           -4.7754     3.2226    -5.9842 C.ar    
  22 C22           -3.4151     3.3635    -5.7650 C.ar    
  23 C23           -2.9085     3.2740    -4.4825 C.ar    
  24 F24           -5.9470     2.6606    -2.5942 F       
  25 F25           -5.2710     3.3152    -7.2376 F       
  26 O26            1.2211     1.7436    -1.2161 O.3     
  27 C27            2.2636     0.8755    -1.6652 C.3     
  28 N28            1.1045    -4.5683     1.8702 N.am    
  29 C29            1.7680    -3.8044     2.7605 C.2     
  30 O30            1.4983    -2.6269     2.8693 O.2     
  31 C31            2.8451    -4.4133     3.6209 C.3     
  32 H32           -3.0531     1.8665     0.4400 H       
  33 H33           -2.2419     1.0353    -2.3843 H       
  34 H34           -3.8953     0.9092    -1.7372 H       
  35 H35           -3.9162     3.3524    -1.3144 H       
  36 H36           -2.2628     3.4785    -1.9615 H       
  37 H37            0.7820    -2.0238     1.2294 H       
  38 H38           -2.9234    -2.5568    -0.8367 H       
  39 H39           -2.8435    -4.9693    -0.3628 H       
  40 H40           -6.6874     2.8762    -5.0888 H       
  41 H41           -2.7506     3.5474    -6.5963 H       
  42 H42           -1.8477     3.3839    -4.3124 H       
  43 H43            2.6165     0.2695    -0.8307 H       
  44 H44            1.8808     0.2241    -2.4508 H       
  45 H45            3.0887     1.4706    -2.0565 H       
  46 H46            1.3688    -5.4911     1.7308 H       
  47 H47            3.6315    -4.8199     2.9850 H       
  48 H48            3.2649    -3.6478     4.2734 H       
  49 H49            2.4178    -5.2126     4.2264 H       
@<TRIPOS>BOND
   1    1    2 2
   2    1   26 1
   3    1    6 1
   4    2    3 1
   5    3    4 am
   6    3    9 1
   7    4    5 1
   8    4   10 2
   9    5    6 1
  10    5    7 1
  11    5   32 1
  12    6    8 2
  13    7   11 1
  14    7   33 1
  15    7   34 1
  16    9   12 ar
  17    9   13 ar
  18   11   18 1
  19   11   35 1
  20   11   36 1
  21   12   16 ar
  22   12   37 1
  23   13   14 ar
  24   13   38 1
  25   14   15 ar
  26   14   39 1
  27   15   16 ar
  28   15   17 1
  29   16   28 1
  30   18   19 ar
  31   18   23 ar
  32   19   20 ar
  33   19   24 1
  34   20   21 ar
  35   20   40 1
  36   21   22 ar
  37   21   25 1
  38   22   23 ar
  39   22   41 1
  40   23   42 1
  41   26   27 1
  42   27   43 1
  43   27   44 1
  44   27   45 1
  45   28   29 am
  46   28   46 1
  47   29   30 2
  48   29   31 1
  49   31   47 1
  50   31   48 1
  51   31   49 1

#	End of record

