#	Name: ASD01882188
#	Creating user name:	WinNT
#	Creation time:	15. 06. 2019 19:44

#	Modifying user name:	WinNT
#	Modification time:	15. 06. 2019 19:44

#	Program:	/corina/corina34_cracker 3.40 0067  02.08.2006

@<TRIPOS>MOLECULE
ASD01882188
  24   25    0    0    0
SMALL
NO_CHARGES


@<TRIPOS>ATOM
   1 C1            -0.0170     1.4058     0.0098 C.2     
   2 C2             0.0021    -0.0041     0.0020 C.2     
   3 C3             1.1985    -0.6544    -0.0129 C.2     
   4 C4             2.3927     0.0863    -0.0203 C.2     
   5 C5             2.3573     1.4350    -0.0123 C.2     
   6 N6             1.1649     2.0998     0.0022 N.pl3   
   7 N7            -1.0091     2.2849     0.0293 N.2     
   8 C8            -0.5007     3.5195     0.0287 C.2     
   9 C9             0.8473     3.4309     0.0129 C.2     
  10 C10            1.8194     4.5825     0.0107 C.3     
  11 C11            2.0655     5.0449     1.4482 C.3     
  12 C12            3.0524     6.2140     1.4460 C.3     
  13 I13            1.2585    -2.7485    -0.0240 I       
  14 Cl14          -1.4839    -0.9015     0.0120 Cl      
  15 H15            3.3432    -0.4264    -0.0322 H       
  16 H16            3.2813     1.9943    -0.0178 H       
  17 H17           -1.0718     4.4360     0.0420 H       
  18 H18            2.7615     4.2618    -0.4341 H       
  19 H19            1.4052     5.4065    -0.5702 H       
  20 H20            1.1234     5.3655     1.8930 H       
  21 H21            2.4797     4.2208     2.0291 H       
  22 H22            3.2277     6.5435     2.4701 H       
  23 H23            3.9945     5.8934     1.0012 H       
  24 H24            2.6382     7.0381     0.8651 H       
@<TRIPOS>BOND
   1    1    2 1
   2    1    6 1
   3    1    7 2
   4    2    3 2
   5    2   14 1
   6    3    4 1
   7    3   13 1
   8    4    5 2
   9    4   15 1
  10    5    6 1
  11    5   16 1
  12    6    9 1
  13    7    8 1
  14    8    9 2
  15    8   17 1
  16    9   10 1
  17   10   11 1
  18   10   18 1
  19   10   19 1
  20   11   12 1
  21   11   20 1
  22   11   21 1
  23   12   22 1
  24   12   23 1
  25   12   24 1

#	End of record

