#	Name: ASD01911880
#	Creating user name:	WinNT
#	Creation time:	15. 06. 2019 19:58

#	Modifying user name:	WinNT
#	Modification time:	15. 06. 2019 19:58

#	Program:	/corina/corina34_cracker 3.40 0067  02.08.2006

@<TRIPOS>MOLECULE
ASD01911880
  36   38    0    0    0
SMALL
NO_CHARGES


@<TRIPOS>ATOM
   1 C1            -1.0604    -0.5022    -2.0830 C.ar    
   2 C2            -1.0561     0.0560    -0.8083 C.ar    
   3 C3            -1.0048     1.4362    -0.6775 C.ar    
   4 N4            -0.9612     2.2117    -1.7427 N.ar    
   5 C5            -0.9639     1.7148    -2.9640 C.ar    
   6 C6            -1.0130     0.3492    -3.1747 C.ar    
   7 O7            -1.1018    -0.7394     0.2927 O.3     
   8 C8            -1.1523    -2.0844     0.1062 C.ar    
   9 C9            -0.0018    -2.7819    -0.2363 C.ar    
  10 C10           -0.0515    -4.1496    -0.4257 C.ar    
  11 C11           -1.2459    -4.8276    -0.2749 C.ar    
  12 C12           -2.4003    -4.1351     0.0677 C.ar    
  13 C13           -2.3513    -2.7618     0.2635 C.ar    
  14 N14           -3.6093    -4.8214     0.2199 N.am    
  15 C15           -4.7716    -4.2171    -0.0966 C.2     
  16 C16           -6.0541    -4.9021     0.1614 C.ar    
  17 O17           -4.7643    -3.1079    -0.5945 O.2     
  18 C18           -6.0665    -6.1761     0.7332 C.ar    
  19 C19           -7.2672    -6.8106     0.9722 C.ar    
  20 C20           -8.4605    -6.1894     0.6470 C.ar    
  21 C21           -8.4594    -4.9274     0.0802 C.ar    
  22 C22           -7.2624    -4.2758    -0.1603 C.ar    
  23 Cl23          -9.9618    -4.1576    -0.3244 Cl      
  24 F24           -7.2608    -3.0434    -0.7138 F       
  25 H25           -1.0953    -1.5732    -2.2178 H       
  26 H26           -1.0010     1.8799     0.3071 H       
  27 H27           -0.9275     2.3835    -3.8113 H       
  28 H28           -1.0145    -0.0490    -4.1786 H       
  29 H29            0.9332    -2.2546    -0.3552 H       
  30 H30            0.8449    -4.6897    -0.6924 H       
  31 H31           -1.2820    -5.8967    -0.4239 H       
  32 H32           -3.2473    -2.2210     0.5300 H       
  33 H33           -3.6112    -5.7323     0.5532 H       
  34 H34           -5.1370    -6.6638     0.9874 H       
  35 H35           -7.2764    -7.7959     1.4144 H       
  36 H36           -9.3972    -6.6926     0.8364 H       
@<TRIPOS>BOND
   1    1    2 ar
   2    1    6 ar
   3    1   25 1
   4    2    3 ar
   5    2    7 1
   6    3    4 ar
   7    3   26 1
   8    4    5 ar
   9    5    6 ar
  10    5   27 1
  11    6   28 1
  12    7    8 1
  13    8    9 ar
  14    8   13 ar
  15    9   10 ar
  16    9   29 1
  17   10   11 ar
  18   10   30 1
  19   11   12 ar
  20   11   31 1
  21   12   13 ar
  22   12   14 1
  23   13   32 1
  24   14   15 am
  25   14   33 1
  26   15   16 1
  27   15   17 2
  28   16   18 ar
  29   16   22 ar
  30   18   19 ar
  31   18   34 1
  32   19   20 ar
  33   19   35 1
  34   20   21 ar
  35   20   36 1
  36   21   22 ar
  37   21   23 1
  38   22   24 1

#	End of record

