#	Name: ASD01351012
#	Creating user name:	WinNT
#	Creation time:	15. 06. 2019 19:16

#	Modifying user name:	WinNT
#	Modification time:	15. 06. 2019 19:16

#	Program:	/corina/corina34_cracker 3.40 0067  02.08.2006

@<TRIPOS>MOLECULE
ASD01351012
  43   45    0    0    0
SMALL
NO_CHARGES


@<TRIPOS>ATOM
   1 C1            -0.0167     1.3781     0.0096 C.ar    
   2 C2            -1.3319     2.1138     0.0199 C.3     
   3 C3             0.0021    -0.0041     0.0020 C.ar    
   4 C4             1.1709     2.0855     0.0021 C.ar    
   5 C5            -1.6518     2.5796    -1.3764 C.ar    
   6 N6            -1.2400     3.2566     0.9339 N.3     
   7 C7             1.2084    -0.6789    -0.0132 C.ar    
   8 C8             2.3773     1.4107    -0.0131 C.ar    
   9 C9            -2.1628     3.8358    -1.6251 C.ar    
  10 C10           -1.4218     1.7095    -2.4316 C.ar    
  11 C11           -2.4489     4.0895     0.8316 C.3     
  12 C12            2.3960     0.0285    -0.0212 C.ar    
  13 C13           -2.4239     4.8182    -0.5123 C.3     
  14 C14           -2.4470     4.2200    -2.9265 C.ar    
  15 C15           -1.7030     2.0938    -3.7274 C.ar    
  16 C16           -2.2183     3.3521    -3.9758 C.ar    
  17 H17           -1.0920     2.9492     1.8835 H       
  18 C18           -5.0854     1.0151     3.7585 C.3     
  19 C19           -5.0110     1.6650     2.3754 C.3     
  20 C20           -3.7672     2.5523     2.2951 C.3     
  21 C21           -3.6927     3.2022     0.9120 C.3     
  22 H22           -2.1173     1.4406     0.3634 H       
  23 H23           -0.9258    -0.5567     0.0083 H       
  24 H24            1.1563     3.1654     0.0077 H       
  25 H25            1.2231    -1.7588    -0.0184 H       
  26 H26            3.3051     1.9634    -0.0197 H       
  27 H27           -1.0200     0.7257    -2.2385 H       
  28 H28           -2.4636     4.8152     1.6448 H       
  29 H29            3.3385    -0.4987    -0.0327 H       
  30 H30           -1.6353     5.5706    -0.5013 H       
  31 H31           -3.3848     5.3054    -0.6777 H       
  32 H32           -2.8496     5.2031    -3.1205 H       
  33 H33           -1.5207     1.4127    -4.5454 H       
  34 H34           -2.4415     3.6557    -4.9879 H       
  35 H35           -4.1950     0.4084     3.9233 H       
  36 H36           -5.1427     1.7910     4.5219 H       
  37 H37           -5.9715     0.3830     3.8158 H       
  38 H38           -4.9537     0.8891     1.6120 H       
  39 H39           -5.9014     2.2717     2.2107 H       
  40 H40           -3.8244     3.3282     3.0585 H       
  41 H41           -2.8767     1.9456     2.4598 H       
  42 H42           -4.5832     3.8089     0.7472 H       
  43 H43           -3.6355     2.4263     0.1486 H       
@<TRIPOS>BOND
   1    1    3 ar
   2    1    4 ar
   3    1    2 1
   4    2    5 1
   5    2    6 1
   6    2   22 1
   7    3    7 ar
   8    3   23 1
   9    4    8 ar
  10    4   24 1
  11    5    9 ar
  12    5   10 ar
  13    6   11 1
  14    6   17 1
  15    7   12 ar
  16    7   25 1
  17    8   12 ar
  18    8   26 1
  19    9   13 1
  20    9   14 ar
  21   10   15 ar
  22   10   27 1
  23   11   21 1
  24   11   13 1
  25   11   28 1
  26   12   29 1
  27   13   30 1
  28   13   31 1
  29   14   16 ar
  30   14   32 1
  31   15   16 ar
  32   15   33 1
  33   16   34 1
  34   18   19 1
  35   18   35 1
  36   18   36 1
  37   18   37 1
  38   19   20 1
  39   19   38 1
  40   19   39 1
  41   20   21 1
  42   20   40 1
  43   20   41 1
  44   21   42 1
  45   21   43 1

#	End of record

