#	Name: ASD06170178
#	Creating user name:	WinNT
#	Creation time:	15. 06. 2019 21:05

#	Modifying user name:	WinNT
#	Modification time:	15. 06. 2019 21:05

#	Program:	/corina/corina34_cracker 3.40 0067  02.08.2006

@<TRIPOS>MOLECULE
ASD06170178
  64   68    0    0    0
SMALL
NO_CHARGES


@<TRIPOS>ATOM
   1 N1             0.4928     1.2813    -0.3450 N.pl3   
   2 N2             0.0669    -0.0301    -0.1142 N.am    
   3 C3             1.1536    -0.8100     0.0627 C.2     
   4 C4             2.3255     0.0706    -0.0661 C.2     
   5 C5             1.8378     1.3387    -0.3160 C.2     
   6 C6             3.7351    -0.3211     0.0490 C.2     
   7 O7             4.6110     0.5136    -0.0797 O.2     
   8 N8             4.0595    -1.6055     0.2973 N.am    
   9 C9            -0.3927     2.4226    -0.5888 C.3     
  10 C10           -0.7148     3.1109     0.7392 C.3     
  11 C11           -1.6396     4.3029     0.4846 C.3     
  12 C12           -1.2630    -0.4614    -0.0734 C.ar    
  13 C13           -2.1421    -0.1036    -1.0873 C.ar    
  14 C14           -3.4546    -0.5310    -1.0441 C.ar    
  15 C15           -3.8940    -1.3142     0.0076 C.ar    
  16 C16           -3.0213    -1.6722     1.0187 C.ar    
  17 C17           -1.7059    -1.2532     0.9782 C.ar    
  18 O18            1.1628    -2.0063     0.2854 O.2     
  19 C19            5.3946    -1.9765     0.4063 C.ar    
  20 N20            5.6939    -3.2427     0.6504 N.ar    
  21 C21            6.9532    -3.6321     0.7606 C.ar    
  22 C22            7.9675    -2.6915     0.6164 C.ar    
  23 C23            7.6143    -1.3709     0.3605 C.ar    
  24 N24            6.3338    -1.0554     0.2579 N.ar    
  25 O25            9.2735    -3.0544     0.7234 O.3     
  26 N26           10.8839    -5.3298    -2.3160 N.ar    
  27 C27            9.6612    -4.8637    -2.4171 C.ar    
  28 C28            9.0853    -4.0950    -1.4139 C.ar    
  29 C29            9.8096    -3.8033    -0.2712 C.ar    
  30 C30           11.1254    -4.3100    -0.1732 C.ar    
  31 C31           11.9202    -4.0568     0.9543 C.ar    
  32 C32           13.1834    -4.5590     1.0192 C.ar    
  33 C33           13.7021    -5.3273    -0.0270 C.ar    
  34 C34           12.9470    -5.5933    -1.1468 C.ar    
  35 C35           11.6407    -5.0871    -1.2392 C.ar    
  36 O36           14.9661    -5.8167     0.0621 O.3     
  37 C37           15.6998    -5.5062     1.2484 C.3     
  38 C38            2.6707     2.5777    -0.5214 C.3     
  39 H39            3.3613    -2.2710     0.3999 H       
  40 H40            0.1016     3.1303    -1.2543 H       
  41 H41           -1.3163     2.0738    -1.0506 H       
  42 H42           -1.2091     2.4032     1.4047 H       
  43 H43            0.2088     3.4597     1.2011 H       
  44 H44           -1.1453     5.0106    -0.1809 H       
  45 H45           -2.5632     3.9540     0.0228 H       
  46 H46           -1.8691     4.7932     1.4307 H       
  47 H47           -1.7997     0.5086    -1.9086 H       
  48 H48           -4.1387    -0.2531    -1.8322 H       
  49 H49           -4.9211    -1.6466     0.0394 H       
  50 H50           -3.3676    -2.2839     1.8387 H       
  51 H51           -1.0237    -1.5368     1.7659 H       
  52 H52            7.1906    -4.6666     0.9602 H       
  53 H53            8.3755    -0.6139     0.2427 H       
  54 H54            9.0869    -5.0844    -3.3047 H       
  55 H55            8.0768    -3.7250    -1.5257 H       
  56 H56           11.5308    -3.4643     1.7690 H       
  57 H57           13.7922    -4.3614     1.8891 H       
  58 H58           13.3572    -6.1877    -1.9499 H       
  59 H59           15.7971    -4.4247     1.3428 H       
  60 H60           15.1712    -5.9006     2.1162 H       
  61 H61           16.6908    -5.9566     1.1910 H       
  62 H62            2.8417     3.0639     0.4391 H       
  63 H63            3.6277     2.3028    -0.9649 H       
  64 H64            2.1452     3.2626    -1.1869 H       
@<TRIPOS>BOND
   1    1    2 1
   2    1    5 1
   3    1    9 1
   4    2    3 am
   5    2   12 1
   6    3    4 1
   7    3   18 2
   8    4    5 2
   9    4    6 1
  10    5   38 1
  11    6    7 2
  12    6    8 am
  13    8   19 1
  14    8   39 1
  15    9   10 1
  16    9   40 1
  17    9   41 1
  18   10   11 1
  19   10   42 1
  20   10   43 1
  21   11   44 1
  22   11   45 1
  23   11   46 1
  24   12   13 ar
  25   12   17 ar
  26   13   14 ar
  27   13   47 1
  28   14   15 ar
  29   14   48 1
  30   15   16 ar
  31   15   49 1
  32   16   17 ar
  33   16   50 1
  34   17   51 1
  35   19   20 ar
  36   19   24 ar
  37   20   21 ar
  38   21   22 ar
  39   21   52 1
  40   22   23 ar
  41   22   25 1
  42   23   24 ar
  43   23   53 1
  44   25   29 1
  45   26   27 ar
  46   26   35 ar
  47   27   28 ar
  48   27   54 1
  49   28   29 ar
  50   28   55 1
  51   29   30 ar
  52   30   31 ar
  53   30   35 ar
  54   31   32 ar
  55   31   56 1
  56   32   33 ar
  57   32   57 1
  58   33   34 ar
  59   33   36 1
  60   34   35 ar
  61   34   58 1
  62   36   37 1
  63   37   59 1
  64   37   60 1
  65   37   61 1
  66   38   62 1
  67   38   63 1
  68   38   64 1

#	End of record

