#	Name: ASD05313018
#	Creating user name:	WinNT
#	Creation time:	15. 06. 2019 20:58

#	Modifying user name:	WinNT
#	Modification time:	15. 06. 2019 20:58

#	Program:	/corina/corina34_cracker 3.40 0067  02.08.2006

@<TRIPOS>MOLECULE
ASD05313018
  42   45    0    0    0
SMALL
NO_CHARGES


@<TRIPOS>ATOM
   1 C1            -0.2483     1.0323     1.0449 C.2     
   2 C2            -0.0379    -0.4440     0.8077 C.3     
   3 N3             0.7674     1.9405     1.1006 N.pl3   
   4 N4             1.3697    -0.6174     0.4014 N.am    
   5 C5             2.4016     0.1276     1.1382 C.3     
   6 C6             2.1858     1.6315     0.9299 C.3     
   7 N7            -1.1181     2.9278     1.4070 N.2     
   8 N8            -1.3607     1.6739     1.2339 N.2     
   9 C9             0.1796     3.1453     1.3362 C.2     
  10 C10            0.8655     4.4471     1.4865 C.ar    
  11 C11            2.1731     4.6068     1.0264 C.ar    
  12 C12            2.8079     5.8229     1.1686 C.ar    
  13 C13            2.1495     6.8852     1.7672 C.ar    
  14 C14            0.8508     6.7319     2.2260 C.ar    
  15 C15            0.2051     5.5215     2.0838 C.ar    
  16 F16            2.7759     8.0743     1.9046 F       
  17 C17            1.7008    -1.4362    -0.6167 C.2     
  18 O18            2.8519    -1.4901    -1.0036 O.2     
  19 C19            0.6645    -2.2685    -1.2625 C.ar    
  20 C20            0.5871    -2.3372    -2.6560 C.ar    
  21 C21           -0.3843    -3.1172    -3.2522 C.ar    
  22 C22           -1.2787    -3.8284    -2.4729 C.ar    
  23 C23           -1.2073    -3.7640    -1.0924 C.ar    
  24 C24           -0.2381    -2.9943    -0.4833 C.ar    
  25 C25           -0.4702    -3.1932    -4.7548 C.3     
  26 F26           -1.5240    -4.0381    -5.1195 F       
  27 F27           -0.6968    -1.9141    -5.2742 F       
  28 F28            0.7304    -3.6980    -5.2656 F       
  29 Cl29           1.7084    -1.4441    -3.6351 Cl      
  30 H30           -0.2314    -0.9996     1.7253 H       
  31 H31           -0.6998    -0.7916     0.0145 H       
  32 H32            2.3309    -0.1066     2.2004 H       
  33 H33            3.3875    -0.1532     0.7678 H       
  34 H34            2.5006     1.9091    -0.0760 H       
  35 H35            2.7705     2.1882     1.6623 H       
  36 H36            2.6872     3.7794     0.5600 H       
  37 H37            3.8201     5.9474     0.8131 H       
  38 H38            0.3421     7.5628     2.6921 H       
  39 H39           -0.8086     5.4043     2.4376 H       
  40 H40           -2.0366    -4.4366    -2.9440 H       
  41 H41           -1.9094    -4.3214    -0.4903 H       
  42 H42           -0.1808    -2.9494     0.5942 H       
@<TRIPOS>BOND
   1    1    2 1
   2    1    3 1
   3    1    8 2
   4    2    4 1
   5    2   30 1
   6    2   31 1
   7    3    6 1
   8    3    9 1
   9    4    5 1
  10    4   17 am
  11    5    6 1
  12    5   32 1
  13    5   33 1
  14    6   34 1
  15    6   35 1
  16    7    8 1
  17    7    9 2
  18    9   10 1
  19   10   11 ar
  20   10   15 ar
  21   11   12 ar
  22   11   36 1
  23   12   13 ar
  24   12   37 1
  25   13   14 ar
  26   13   16 1
  27   14   15 ar
  28   14   38 1
  29   15   39 1
  30   17   18 2
  31   17   19 1
  32   19   20 ar
  33   19   24 ar
  34   20   21 ar
  35   20   29 1
  36   21   22 ar
  37   21   25 1
  38   22   23 ar
  39   22   40 1
  40   23   24 ar
  41   23   41 1
  42   24   42 1
  43   25   26 1
  44   25   27 1
  45   25   28 1

#	End of record

