#	Name: ASD09120015
#	Creating user name:	WinNT
#	Creation time:	15. 06. 2019 21:21

#	Modifying user name:	WinNT
#	Modification time:	15. 06. 2019 21:21

#	Program:	/corina/corina34_cracker 3.40 0067  02.08.2006

@<TRIPOS>MOLECULE
ASD09120015
  35   37    0    0    0
SMALL
NO_CHARGES


@<TRIPOS>ATOM
   1 C1            -0.0006     1.3748     0.0538 C.ar    
   2 C2             0.0220    -0.0040     0.0546 C.ar    
   3 C3             1.0663    -0.6832    -0.5487 C.ar    
   4 C4             2.0944     0.0141    -1.1559 C.ar    
   5 C5             2.0853     1.3956    -1.1640 C.ar    
   6 C6             1.0334     2.0868    -0.5575 C.ar    
   7 N7            -1.0734    -0.7597     0.7027 N.pl3   
   8 O8            -1.9930    -0.1637     1.2344 O.2     
   9 O9            -1.0551    -1.9775     0.7044 O.2     
  10 C10            1.0155     3.5640    -0.5625 C.2     
  11 O11            1.9173     4.1810    -1.0956 O.2     
  12 N12           -0.0005     4.2276     0.0238 N.am    
  13 C13            0.0397     5.6180     0.1225 C.ar    
  14 Cl14           3.3771     2.2701    -1.9255 Cl      
  15 C15            1.2411     6.2701     0.3085 C.ar    
  16 C16           -1.1452     6.3738     0.0276 C.ar    
  17 C17           -1.0870     7.7875     0.1297 C.ar    
  18 C18            0.1563     8.4105     0.3242 C.ar    
  19 C19            1.2881     7.6575     0.4073 C.ar    
  20 C20           -2.4014     5.7743    -0.1674 C.ar    
  21 C21           -3.4898     6.5985    -0.2463 C.ar    
  22 N22           -3.3528     7.9130    -0.1415 N.ar    
  23 N23           -2.2195     8.4913     0.0374 N.ar    
  24 C24           -4.8597     6.0062    -0.4549 C.3     
  25 H25           -0.8187     1.9028     0.5212 H       
  26 H26            1.0784    -1.7632    -0.5449 H       
  27 H27            2.9063    -0.5222    -1.6244 H       
  28 H28           -0.7597     3.7381     0.3772 H       
  29 H29            2.1545     5.6981     0.3785 H       
  30 H30            0.2156     9.4860     0.4033 H       
  31 H31            2.2401     8.1462     0.5532 H       
  32 H32           -2.5032     4.7025    -0.2523 H       
  33 H33           -5.3154     5.7950     0.5125 H       
  34 H34           -5.4819     6.7137    -1.0029 H       
  35 H35           -4.7727     5.0813    -1.0251 H       
@<TRIPOS>BOND
   1    1    2 ar
   2    1    6 ar
   3    1   25 1
   4    2    3 ar
   5    2    7 1
   6    3    4 ar
   7    3   26 1
   8    4    5 ar
   9    4   27 1
  10    5    6 ar
  11    5   14 1
  12    6   10 1
  13    7    8 2
  14    7    9 2
  15   10   11 2
  16   10   12 am
  17   12   13 1
  18   12   28 1
  19   13   16 ar
  20   13   15 ar
  21   15   19 ar
  22   15   29 1
  23   16   17 ar
  24   16   20 ar
  25   17   18 ar
  26   17   23 ar
  27   18   19 ar
  28   18   30 1
  29   19   31 1
  30   20   21 ar
  31   20   32 1
  32   21   22 ar
  33   21   24 1
  34   22   23 ar
  35   24   33 1
  36   24   34 1
  37   24   35 1

#	End of record

