#	Name: ASD01882925
#	Creating user name:	WinNT
#	Creation time:	15. 06. 2019 19:45

#	Modifying user name:	WinNT
#	Modification time:	15. 06. 2019 19:45

#	Program:	/corina/corina34_cracker 3.40 0067  02.08.2006

@<TRIPOS>MOLECULE
ASD01882925
  26   26    0    0    0
SMALL
NO_CHARGES


@<TRIPOS>ATOM
   1 C1            -0.0184     1.5028     0.0103 C.ar    
   2 C2             0.0021    -0.0041     0.0020 C.3     
   3 C3             1.1723     2.2077     0.0027 C.ar    
   4 C4            -1.2277     2.1751     0.0197 C.ar    
   5 C5             0.0225    -0.5140     1.4200 C.2     
   6 C6            -1.2470    -0.5271    -0.7102 C.3     
   7 N7             1.2014    -0.4736    -0.7045 N.3     
   8 C8             1.1608     3.5871     0.0098 C.ar    
   9 C9            -1.2537     3.5542     0.0269 C.ar    
  10 O10            0.5329    -1.7257     1.6902 O.3     
  11 O11           -0.4206     0.1679     2.3136 O.2     
  12 C12           -0.0559     4.2719     0.0246 C.ar    
  13 C13           -0.0760     5.7490     0.0327 C.2     
  14 O14           -1.2516     6.4066     0.0470 O.3     
  15 O15            0.9676     6.3706     0.0265 O.2     
  16 H16            2.1127     1.6768    -0.0084 H       
  17 H17           -2.1534     1.6187     0.0211 H       
  18 H18           -1.2617    -0.1583    -1.7358 H       
  19 H19           -1.2322    -1.6170    -0.7162 H       
  20 H20           -2.1368    -0.1787    -0.1859 H       
  21 H21            1.1799    -0.1991    -1.6752 H       
  22 H22            2.0403    -0.1412    -0.2532 H       
  23 H23            2.0908     4.1361     0.0042 H       
  24 H24           -2.1983     4.0777     0.0338 H       
  25 H25            0.5241    -2.0096     2.6145 H       
  26 H26           -1.2141     7.3728     0.0519 H       
@<TRIPOS>BOND
   1    1    2 1
   2    1    3 ar
   3    1    4 ar
   4    2    5 1
   5    2    6 1
   6    2    7 1
   7    3    8 ar
   8    3   16 1
   9    4    9 ar
  10    4   17 1
  11    5   10 1
  12    5   11 2
  13    6   18 1
  14    6   19 1
  15    6   20 1
  16    7   21 1
  17    7   22 1
  18    8   12 ar
  19    8   23 1
  20    9   12 ar
  21    9   24 1
  22   10   25 1
  23   12   13 1
  24   13   14 1
  25   13   15 2
  26   14   26 1

#	End of record

