#	Name: ASD01940267
#	Creating user name:	WinNT
#	Creation time:	15. 06. 2019 20:12

#	Modifying user name:	WinNT
#	Modification time:	15. 06. 2019 20:12

#	Program:	/corina/corina34_cracker 3.40 0067  02.08.2006

@<TRIPOS>MOLECULE
ASD01940267
  38   40    0    0    0
SMALL
NO_CHARGES


@<TRIPOS>ATOM
   1 O1             6.5462     2.5912     2.2802 O.3     
   2 N2             5.5440     2.9271     2.8675 N.2     
   3 C3             4.4749     2.4350     2.3114 C.2     
   4 C4             4.9150     1.6758     1.2029 C.2     
   5 C5             6.2626     1.8103     1.2284 C.2     
   6 S6             3.9371     0.7647     0.0548 S.o2    
   7 O7             4.5130    -0.5320    -0.0225 O.2     
   8 O8             2.5811     0.9928     0.4130 O.2     
   9 N9             4.1514     1.4609    -1.4324 N.am    
  10 C10            7.2484     1.2027     0.2639 C.3     
  11 C11            3.6567     2.7481    -1.6813 C.ar    
  12 C12            3.2202     3.0936    -2.9597 C.ar    
  13 C13            2.7306     4.3700    -3.2005 C.ar    
  14 C14            2.6771     5.2962    -2.1706 C.ar    
  15 C15            3.1114     4.9510    -0.9026 C.ar    
  16 C16            3.5949     3.6788    -0.6555 C.ar    
  17 N17            3.2761     2.1547    -3.9990 N.pl3   
  18 C18            3.2245     2.5810    -5.3298 C.ar    
  19 C19            4.2699     3.3281    -5.8638 C.ar    
  20 C20            4.2152     3.7471    -7.1799 C.ar    
  21 C21            3.1222     3.4243    -7.9649 C.ar    
  22 C22            2.0819     2.6823    -7.4361 C.ar    
  23 C23            2.1328     2.2549    -6.1230 C.ar    
  24 I24            3.0429     4.0618    -9.9590 I       
  25 F25            5.3365     3.6439    -5.0971 F       
  26 F26            2.2006     6.5385    -2.4050 F       
  27 F27            2.3070     4.7094    -4.4376 F       
  28 H28            3.4539     2.5780     2.6332 H       
  29 H29            4.6194     0.9777    -2.1313 H       
  30 H30            8.2507     1.5646     0.4927 H       
  31 H31            7.2244     0.1168     0.3558 H       
  32 H32            6.9830     1.4871    -0.7543 H       
  33 H33            3.0688     5.6756    -0.1029 H       
  34 H34            3.9284     3.4115     0.3363 H       
  35 H35            3.3505     1.2094    -3.7951 H       
  36 H36            5.0258     4.3270    -7.5958 H       
  37 H37            1.2302     2.4329    -8.0515 H       
  38 H38            1.3217     1.6717    -5.7127 H       
@<TRIPOS>BOND
   1    1    2 1
   2    1    5 1
   3    2    3 2
   4    3    4 1
   5    3   28 1
   6    4    5 2
   7    4    6 1
   8    5   10 1
   9    6    7 2
  10    6    8 2
  11    6    9 am
  12    9   11 1
  13    9   29 1
  14   10   30 1
  15   10   31 1
  16   10   32 1
  17   11   12 ar
  18   11   16 ar
  19   12   13 ar
  20   12   17 1
  21   13   14 ar
  22   13   27 1
  23   14   15 ar
  24   14   26 1
  25   15   16 ar
  26   15   33 1
  27   16   34 1
  28   17   18 1
  29   17   35 1
  30   18   19 ar
  31   18   23 ar
  32   19   20 ar
  33   19   25 1
  34   20   21 ar
  35   20   36 1
  36   21   22 ar
  37   21   24 1
  38   22   23 ar
  39   22   37 1
  40   23   38 1

#	End of record

