#	Name: ASD08150552
#	Creating user name:	WinNT
#	Creation time:	15. 06. 2019 21:16

#	Modifying user name:	WinNT
#	Modification time:	15. 06. 2019 21:16

#	Program:	/corina/corina34_cracker 3.40 0067  02.08.2006

@<TRIPOS>MOLECULE
ASD08150552
  57   62    0    0    0
SMALL
NO_CHARGES


@<TRIPOS>ATOM
   1 N1             0.0418     1.4443     0.1237 N.am    
   2 C2             0.0576     0.0975     0.0972 C.2     
   3 C3             1.2756    -0.6117     0.0786 C.2     
   4 C4             2.4563     0.0581     0.0877 C.2     
   5 C5             2.4434     1.4750     0.1155 C.ar    
   6 C6             3.6393     2.2180     0.1255 C.ar    
   7 N7             3.6245     3.5251     0.1507 N.ar    
   8 C8             2.4828     4.2297     0.1685 C.ar    
   9 C9             1.2319     3.5648     0.1602 C.ar    
  10 C10            1.2133     2.1505     0.1331 C.ar    
  11 C11            0.1118     5.6922     0.2063 C.ar    
  12 C12            1.3534     6.3430     0.2148 C.ar    
  13 C13            2.5135     5.6336     0.1959 C.ar    
  14 O14           -0.9959    -0.5162     0.0896 O.2     
  15 C15           -1.1821     2.1261     0.1358 C.ar    
  16 C16           -1.9637     2.1701    -1.0113 C.ar    
  17 C17           -3.1704     2.8423    -0.9993 C.ar    
  18 C18           -3.6018     3.4743     0.1611 C.ar    
  19 C19           -2.8193     3.4297     1.3078 C.ar    
  20 C20           -1.6162     2.7531     1.2968 C.ar    
  21 C21            0.0479     4.3085     0.1794 C.ar    
  22 C22           -1.1394     6.4886     0.2273 C.ar    
  23 C23           -1.1028     7.8760     0.3904 C.ar    
  24 N24           -4.8233     4.1555     0.1739 N.3     
  25 Cl25          -4.1475     2.8981    -2.4331 Cl      
  26 N26           -2.2389     8.5505     0.4038 N.ar    
  27 C27           -3.4008     7.9282     0.2652 C.ar    
  28 N28           -3.4763     6.6144     0.1084 N.ar    
  29 C29           -2.3842     5.8713     0.0786 C.ar    
  30 N30           -4.5679     8.6710     0.2853 N.pl3   
  31 C31           -5.9462     3.2204     0.3300 C.3     
  32 C32           -4.9848     4.9701    -1.0386 C.3     
  33 C33           -6.2934     5.7588    -0.9496 C.3     
  34 N34           -7.4162     4.8237    -0.7935 N.3     
  35 C35           -7.2548     4.0091     0.4190 C.3     
  36 H36            1.2694    -1.6915     0.0575 H       
  37 H37            3.3920    -0.4810     0.0742 H       
  38 H38            4.5862     1.6987     0.1124 H       
  39 H39            1.3891     7.4222     0.2362 H       
  40 H40            3.4613     6.1513     0.2024 H       
  41 H41           -1.6279     1.6791    -1.9127 H       
  42 H42           -3.1543     3.9208     2.2095 H       
  43 H43           -1.0083     2.7182     2.1887 H       
  44 H44           -0.9091     3.8080     0.1729 H       
  45 H45           -0.1595     8.3896     0.5043 H       
  46 H46           -2.4531     4.8012    -0.0499 H       
  47 H47           -4.5283     9.6335     0.3996 H       
  48 H48           -5.4257     8.2294     0.1850 H       
  49 H49           -5.9833     2.5501    -0.5287 H       
  50 H50           -5.8101     2.6377     1.2410 H       
  51 H51           -4.1478     5.6629    -1.1254 H       
  52 H52           -5.0109     4.3196    -1.9129 H       
  53 H53           -6.2563     6.4291    -0.0909 H       
  54 H54           -6.4295     6.3415    -1.8606 H       
  55 H55           -8.2975     5.3151    -0.7843 H       
  56 H56           -8.0918     3.3163     0.5058 H       
  57 H57           -7.2286     4.6596     1.2933 H       
@<TRIPOS>BOND
   1    1    2 am
   2    1   10 1
   3    1   15 1
   4    2    3 1
   5    2   14 2
   6    3    4 2
   7    3   36 1
   8    4    5 1
   9    4   37 1
  10    5    6 ar
  11    5   10 ar
  12    6    7 ar
  13    6   38 1
  14    7    8 ar
  15    8    9 ar
  16    8   13 ar
  17    9   10 ar
  18    9   21 ar
  19   11   12 ar
  20   11   22 1
  21   11   21 ar
  22   12   13 ar
  23   12   39 1
  24   13   40 1
  25   15   16 ar
  26   15   20 ar
  27   16   17 ar
  28   16   41 1
  29   17   18 ar
  30   17   25 1
  31   18   19 ar
  32   18   24 1
  33   19   20 ar
  34   19   42 1
  35   20   43 1
  36   21   44 1
  37   22   23 ar
  38   22   29 ar
  39   23   26 ar
  40   23   45 1
  41   24   31 1
  42   24   32 1
  43   26   27 ar
  44   27   28 ar
  45   27   30 1
  46   28   29 ar
  47   29   46 1
  48   30   47 1
  49   30   48 1
  50   31   35 1
  51   31   49 1
  52   31   50 1
  53   32   33 1
  54   32   51 1
  55   32   52 1
  56   33   34 1
  57   33   53 1
  58   33   54 1
  59   34   35 1
  60   34   55 1
  61   35   56 1
  62   35   57 1

#	End of record

