#	Name: ASD02198194
#	Creating user name:	WinNT
#	Creation time:	15. 06. 2019 20:19

#	Modifying user name:	WinNT
#	Modification time:	15. 06. 2019 20:19

#	Program:	/corina/corina34_cracker 3.40 0067  02.08.2006

@<TRIPOS>MOLECULE
ASD02198194
  46   49    0    0    0
SMALL
NO_CHARGES


@<TRIPOS>ATOM
   1 C1            -0.0166     1.3753     0.0096 C.2     
   2 C2             0.0021    -0.0041     0.0020 C.2     
   3 C3            -1.1878    -0.8008     0.0087 C.1     
   4 S4             1.5675     2.0054    -0.0021 S.3     
   5 C5             2.2772     0.3990    -0.0175 C.2     
   6 C6             1.2824    -0.5520    -0.0132 C.2     
   7 C7             3.6580     0.1249    -0.0318 C.2     
   8 C8             4.6307     1.2349    -0.0341 C.2     
   9 O9             4.0506    -1.0302    -0.0422 O.2     
  10 N10            1.5294    -1.9154    -0.0221 N.pl3   
  11 N11           -1.1593     2.1393     0.0194 N.pl3   
  12 N12           -2.1317    -1.4328     0.0139 N.1     
  13 C13           -1.0630     3.6011     0.0268 C.3     
  14 O14            4.3524     2.5515    -0.0232 O.3     
  15 C15           -2.3387     4.2164    -0.5745 C.3     
  16 C16           -2.9729     5.0847     0.5317 C.3     
  17 C17           -1.7894     5.4291     1.4696 C.3     
  18 C18           -0.9665     4.1169     1.4775 C.3     
  19 N19            5.3582     3.2218    -0.0286 N.2     
  20 C20            6.4377     2.4797    -0.0434 C.2     
  21 C21            5.9943     1.1301    -0.0416 C.2     
  22 C22            7.8430     2.9541    -0.0544 C.2     
  23 N23            8.1083     4.2755    -0.0490 N.am    
  24 O24            8.7550     2.1515    -0.0684 O.2     
  25 C25            9.4962     4.7441    -0.0598 C.3     
  26 C26            9.7665     6.1389    -0.6275 C.3     
  27 C27            9.8607     5.8951     0.8800 C.3     
  28 H28            2.4424    -2.2429    -0.0320 H       
  29 H29            0.7893    -2.5424    -0.0184 H       
  30 H30           -2.0294     1.7105     0.0213 H       
  31 H31           -0.1902     3.9204    -0.5426 H       
  32 H32           -2.0849     4.8351    -1.4353 H       
  33 H33           -3.0295     3.4274    -0.8719 H       
  34 H34           -3.3993     5.9931     0.1062 H       
  35 H35           -3.7345     4.5205     1.0700 H       
  36 H36           -1.2010     6.2516     1.0630 H       
  37 H37           -2.1470     5.6669     2.4715 H       
  38 H38           -1.4040     3.3964     2.1685 H       
  39 H39            0.0714     4.3191     1.7422 H       
  40 H40            6.5937     0.2317    -0.0506 H       
  41 H41            7.3801     4.9163    -0.0378 H       
  42 H42           10.2504     3.9760    -0.2315 H       
  43 H43           10.6987     6.2886    -1.1723 H       
  44 H44            8.9117     6.7079    -0.9929 H       
  45 H45            9.0678     6.3037     1.5064 H       
  46 H46           10.8548     5.8844     1.3269 H       
@<TRIPOS>BOND
   1    1    2 2
   2    1    4 1
   3    1   11 1
   4    2    3 1
   5    2    6 1
   6    3   12 3
   7    4    5 1
   8    5    6 2
   9    5    7 1
  10    6   10 1
  11    7    8 1
  12    7    9 2
  13    8   14 1
  14    8   21 2
  15   10   28 1
  16   10   29 1
  17   11   13 1
  18   11   30 1
  19   13   15 1
  20   13   18 1
  21   13   31 1
  22   14   19 1
  23   15   16 1
  24   15   32 1
  25   15   33 1
  26   16   17 1
  27   16   34 1
  28   16   35 1
  29   17   18 1
  30   17   36 1
  31   17   37 1
  32   18   38 1
  33   18   39 1
  34   19   20 2
  35   20   21 1
  36   20   22 1
  37   21   40 1
  38   22   23 am
  39   22   24 2
  40   23   25 1
  41   23   41 1
  42   25   26 1
  43   25   27 1
  44   25   42 1
  45   26   27 1
  46   26   43 1
  47   26   44 1
  48   27   45 1
  49   27   46 1

#	End of record

