#	Name: ASD01840317
#	Creating user name:	WinNT
#	Creation time:	15. 06. 2019 19:37

#	Modifying user name:	WinNT
#	Modification time:	15. 06. 2019 19:37

#	Program:	/corina/corina34_cracker 3.40 0067  02.08.2006

@<TRIPOS>MOLECULE
ASD01840317
  55   59    0    0    0
SMALL
NO_CHARGES


@<TRIPOS>ATOM
   1 C1             0.2765     1.5169     0.6673 C.3     
   2 N2             0.2431     0.0597     0.5198 N.am    
   3 C3            -0.9666    -0.7557     0.3660 C.3     
   4 C4            -0.5014    -2.1878     0.2508 C.ar    
   5 N5            -1.1416    -3.3264     0.0988 N.ar    
   6 C6            -0.5057    -4.4790     0.0218 C.ar    
   7 C7             0.8858    -4.5363     0.0998 C.ar    
   8 C8             1.6062    -3.3510     0.2613 C.ar    
   9 C9             0.8931    -2.1529     0.3378 C.ar    
  10 C10            1.3162    -0.7496     0.4973 C.2     
  11 O11            2.4692    -0.3783     0.5973 O.2     
  12 C12            1.5901    -5.8377     0.0130 C.ar    
  13 N13            2.6759    -5.9473    -0.7330 N.ar    
  14 C14            3.3360    -7.0947    -0.8377 C.ar    
  15 C15            2.9036    -8.2360    -0.1587 C.ar    
  16 C16            1.7726    -8.1667     0.6329 C.ar    
  17 C17            1.1009    -6.9456     0.7301 C.ar    
  18 C18           -0.1115    -6.8202     1.5706 C.2     
  19 C19           -1.3484    -7.4627     1.3554 C.2     
  20 N20           -2.1655    -7.1018     2.3076 N.2     
  21 N21           -1.4984    -6.2217     3.1673 N.pl3   
  22 C22           -2.0688    -5.5912     4.3604 C.3     
  23 C23           -1.9534    -6.5489     5.5479 C.3     
  24 C24           -2.5703    -7.9027     5.1908 C.3     
  25 C25           -0.4760    -6.7284     5.9387 C.3     
  26 C26           -0.3420    -6.2343     7.3940 C.3     
  27 C27           -1.7719    -6.3684     7.9739 C.3     
  28 C28           -2.6657    -5.9521     6.7793 C.3     
  29 C29           -0.2396    -6.0577     2.7136 C.2     
  30 F30            0.7187    -5.2870     3.2730 F       
  31 C31            4.5073    -7.1630    -1.6587 C.1     
  32 N32            5.4365    -7.2172    -2.3100 N.1     
  33 H33            1.3107     1.8493     0.7574 H       
  34 H34           -0.1796     1.9812    -0.2071 H       
  35 H35           -0.2767     1.8043     1.5614 H       
  36 H36           -1.6095    -0.6400     1.2385 H       
  37 H37           -1.5032    -0.4628    -0.5364 H       
  38 H38           -1.0701    -5.3913    -0.1031 H       
  39 H39            2.6843    -3.3608     0.3256 H       
  40 H40            3.4477    -9.1643    -0.2515 H       
  41 H41            1.4185    -9.0358     1.1674 H       
  42 H42           -1.5797    -8.1365     0.5436 H       
  43 H43           -1.5256    -4.6722     4.5806 H       
  44 H44           -3.1187    -5.3587     4.1817 H       
  45 H45           -2.0527    -8.3216     4.3278 H       
  46 H46           -2.4722    -8.5815     6.0379 H       
  47 H47           -3.6255    -7.7696     4.9521 H       
  48 H48           -0.1979    -7.7803     5.8745 H       
  49 H49            0.1588    -6.1331     5.2824 H       
  50 H50            0.3548    -6.8634     7.9478 H       
  51 H51           -0.0177    -5.1938     7.4153 H       
  52 H52           -1.9747    -7.3983     8.2675 H       
  53 H53           -1.9124    -5.6907     8.8160 H       
  54 H54           -2.7167    -4.8660     6.7013 H       
  55 H55           -3.6646    -6.3752     6.8846 H       
@<TRIPOS>BOND
   1    1    2 1
   2    1   33 1
   3    1   34 1
   4    1   35 1
   5    2   10 am
   6    2    3 1
   7    3    4 1
   8    3   36 1
   9    3   37 1
  10    4    9 ar
  11    4    5 ar
  12    5    6 ar
  13    6    7 ar
  14    6   38 1
  15    7    8 ar
  16    7   12 1
  17    8    9 ar
  18    8   39 1
  19    9   10 1
  20   10   11 2
  21   12   17 ar
  22   12   13 ar
  23   13   14 ar
  24   14   15 ar
  25   14   31 1
  26   15   16 ar
  27   15   40 1
  28   16   17 ar
  29   16   41 1
  30   17   18 1
  31   18   29 2
  32   18   19 1
  33   19   20 2
  34   19   42 1
  35   20   21 1
  36   21   22 1
  37   21   29 1
  38   22   23 1
  39   22   43 1
  40   22   44 1
  41   23   28 1
  42   23   24 1
  43   23   25 1
  44   24   45 1
  45   24   46 1
  46   24   47 1
  47   25   26 1
  48   25   48 1
  49   25   49 1
  50   26   27 1
  51   26   50 1
  52   26   51 1
  53   27   28 1
  54   27   52 1
  55   27   53 1
  56   28   54 1
  57   28   55 1
  58   29   30 1
  59   31   32 3

#	End of record

