#	Name: ASD00960092
#	Creating user name:	WinNT
#	Creation time:	15. 06. 2019 18:53

#	Modifying user name:	WinNT
#	Modification time:	15. 06. 2019 18:53

#	Program:	/corina/corina34_cracker 3.40 0067  02.08.2006

@<TRIPOS>MOLECULE
ASD00960092
  37   39    0    0    0
SMALL
NO_CHARGES


@<TRIPOS>ATOM
   1 C1            -0.0189     1.5406     0.0105 C.3     
   2 C2             0.0021    -0.0041     0.0020 C.3     
   3 O3            -0.1198    -0.3671    -1.3905 O.3     
   4 C4            -1.0916     0.5497    -1.9391 C.3     
   5 C5            -0.9496     0.6289    -3.4605 C.3     
   6 C6             1.3035    -0.5142     0.5652 C.2     
   7 C7             1.5717    -0.7023     1.8853 C.2     
   8 N8             2.3834    -0.8618    -0.1578 N.pl3   
   9 C9             3.3749    -1.2789     0.7063 C.2     
  10 C10            2.8768    -1.1832     1.9927 C.2     
  11 N11            2.6515    -0.8712    -1.5340 N.2     
  12 C12            3.8216    -1.2700    -1.9714 C.2     
  13 N13            4.7892    -1.6761    -1.1429 N.2     
  14 C14            4.6139    -1.6963     0.1671 C.2     
  15 O15           -1.1932    -0.6592    -4.0293 O.3     
  16 N16            5.6294    -2.1203     1.0000 N.pl3   
  17 C17           -0.7549     1.9132    -1.2959 C.3     
  18 O18            1.3126     2.0594     0.0006 O.3     
  19 N19            4.0633    -1.2709    -3.3384 N.pl3   
  20 O20           -1.9512     2.6395    -1.0069 O.3     
  21 *21           -1.7797     4.0388    -0.9782 Du      
  22 N22           -2.4481     0.1328    -1.5755 N.2     
  23 N23           -2.8397    -0.8645    -1.9155 N.1     
  24 N24           -3.2313    -1.8617    -2.2554 N.pl3   
  25 H25           -0.5654     1.9103     0.8781 H       
  26 H26           -0.8394    -0.3981     0.5719 H       
  27 H27           -1.6717     1.3432    -3.8561 H       
  28 H28            0.0593     0.9535    -3.7148 H       
  29 H29            0.8946    -0.5126     2.7050 H       
  30 H30            3.3981    -1.4323     2.9051 H       
  31 H31           -1.1200    -0.6837    -4.9932 H       
  32 H32            6.4772    -2.4055     0.6248 H       
  33 H33            5.4954    -2.1330     1.9606 H       
  34 H34           -0.1032     2.4933    -1.9493 H       
  35 H35            1.3583     3.0253     0.0053 H       
  36 H36            3.3720    -0.9795    -3.9534 H       
  37 H37            4.9235    -1.5628    -3.6787 H       
@<TRIPOS>BOND
   1    1    2 1
   2    1   18 1
   3    1   17 1
   4    1   25 1
   5    2    3 1
   6    2    6 1
   7    2   26 1
   8    3    4 1
   9    4    5 1
  10    4   22 1
  11    4   17 1
  12    5   15 1
  13    5   27 1
  14    5   28 1
  15    6    7 2
  16    6    8 1
  17    7   10 1
  18    7   29 1
  19    8    9 1
  20    8   11 1
  21    9   10 2
  22    9   14 1
  23   10   30 1
  24   11   12 2
  25   12   13 1
  26   12   19 1
  27   13   14 2
  28   14   16 1
  29   15   31 1
  30   16   32 1
  31   16   33 1
  32   17   20 1
  33   17   34 1
  34   18   35 1
  35   19   36 1
  36   19   37 1
  37   20   21 1
  38   22   23 2
  39   23   24 2

#	End of record

