#	Name: ASD09890109
#	Creating user name:	WinNT
#	Creation time:	15. 06. 2019 21:24

#	Modifying user name:	WinNT
#	Modification time:	15. 06. 2019 21:24

#	Program:	/corina/corina34_cracker 3.40 0067  02.08.2006

@<TRIPOS>MOLECULE
ASD09890109
  57   61    0    0    0
SMALL
NO_CHARGES


@<TRIPOS>ATOM
   1 C1             0.1098     1.3654     0.0324 C.2     
   2 N2             0.1611    -0.0009    -0.0020 N.pl3   
   3 C3            -1.1212    -0.4688    -0.0886 C.2     
   4 N4            -1.9281     0.5652    -0.1068 N.2     
   5 N5            -1.1472     1.7253    -0.0244 N.2     
   6 S6            -1.6039    -2.1618    -0.1635 S.3     
   7 C7            -3.4126    -2.0663    -0.2646 C.3     
   8 C8             1.3240    -0.7842     0.0431 C.ar    
   9 C9             2.1290    -0.7883     1.1785 C.ar    
  10 C10            3.2674    -1.5781     1.1755 C.ar    
  11 C11            3.5643    -2.3301     0.0545 C.ar    
  12 N12            2.7803    -2.3040    -1.0058 N.ar    
  13 C13            1.6855    -1.5711    -1.0419 C.ar    
  14 C14           -4.0043    -3.4726    -0.4641 C.3     
  15 C15           -4.9191    -3.7419     0.7486 C.3     
  16 C16           -5.3005    -2.3296     1.2577 C.3     
  17 C17           -3.9884    -1.5300     1.0623 C.3     
  18 O18            1.1749     2.2010     0.1166 O.3     
  19 C19            0.9496     3.5350    -0.0007 C.ar    
  20 C20           -0.3109     3.9960    -0.3595 C.ar    
  21 C21           -0.5431     5.3492    -0.4794 C.ar    
  22 C22            0.4898     6.2566    -0.2399 C.ar    
  23 C23            1.7547     5.7901     0.1203 C.ar    
  24 C24            1.9785     4.4359     0.2440 C.ar    
  25 C25            0.2442     7.7108    -0.3682 C.ar    
  26 C26           -0.7383     8.3262     0.4023 C.ar    
  27 C27           -0.9641     9.6825     0.2797 C.ar    
  28 C28           -0.2183    10.4424    -0.6073 C.ar    
  29 C29            0.7600     9.8544    -1.3800 C.ar    
  30 C30            1.0078     8.4829    -1.2674 C.ar    
  31 C31            2.0486     7.8498    -2.0869 C.2     
  32 O32            2.1815     6.6442    -2.0731 O.2     
  33 C33            2.9517     8.6977    -2.9450 C.3     
  34 H34           -3.7064    -1.4171    -1.0894 H       
  35 H35            1.8728    -0.1902     2.0405 H       
  36 H36            3.9155    -1.6055     2.0390 H       
  37 H37            4.4505    -2.9473     0.0465 H       
  38 H38            1.0684    -1.5755    -1.9282 H       
  39 H39           -4.5861    -3.5057    -1.3852 H       
  40 H40           -3.2047    -4.2125    -0.5001 H       
  41 H41           -5.8096    -4.2897     0.4405 H       
  42 H42           -4.3791    -4.2922     1.5191 H       
  43 H43           -6.1043    -1.9060     0.6556 H       
  44 H44           -5.5804    -2.3612     2.3106 H       
  45 H45           -3.2981    -1.7231     1.8834 H       
  46 H46           -4.1997    -0.4636     0.9831 H       
  47 H47           -1.1097     3.2932    -0.5451 H       
  48 H48           -1.5231     5.7069    -0.7587 H       
  49 H49            2.5563     6.4897     0.3060 H       
  50 H50            2.9572     4.0741     0.5227 H       
  51 H51           -1.3245     7.7421     1.0963 H       
  52 H52           -1.7281    10.1549     0.8793 H       
  53 H53           -0.4052    11.5026    -0.6940 H       
  54 H54            1.3371    10.4532    -2.0691 H       
  55 H55            3.8335     8.9842    -2.3720 H       
  56 H56            3.2580     8.1287    -3.8229 H       
  57 H57            2.4169     9.5933    -3.2610 H       
@<TRIPOS>BOND
   1    1    2 1
   2    1   18 1
   3    1    5 2
   4    2    3 1
   5    2    8 1
   6    3    4 2
   7    3    6 1
   8    4    5 1
   9    6    7 1
  10    7   14 1
  11    7   17 1
  12    7   34 1
  13    8    9 ar
  14    8   13 ar
  15    9   10 ar
  16    9   35 1
  17   10   11 ar
  18   10   36 1
  19   11   12 ar
  20   11   37 1
  21   12   13 ar
  22   13   38 1
  23   14   15 1
  24   14   39 1
  25   14   40 1
  26   15   16 1
  27   15   41 1
  28   15   42 1
  29   16   17 1
  30   16   43 1
  31   16   44 1
  32   17   45 1
  33   17   46 1
  34   18   19 1
  35   19   20 ar
  36   19   24 ar
  37   20   21 ar
  38   20   47 1
  39   21   22 ar
  40   21   48 1
  41   22   23 ar
  42   22   25 1
  43   23   24 ar
  44   23   49 1
  45   24   50 1
  46   25   26 ar
  47   25   30 ar
  48   26   27 ar
  49   26   51 1
  50   27   28 ar
  51   27   52 1
  52   28   29 ar
  53   28   53 1
  54   29   30 ar
  55   29   54 1
  56   30   31 1
  57   31   32 2
  58   31   33 1
  59   33   55 1
  60   33   56 1
  61   33   57 1

#	End of record

