#	Name: ASD05380011
#	Creating user name:	WinNT
#	Creation time:	15. 06. 2019 20:59

#	Modifying user name:	WinNT
#	Modification time:	15. 06. 2019 20:59

#	Program:	/corina/corina34_cracker 3.40 0067  02.08.2006

@<TRIPOS>MOLECULE
ASD05380011
  52   56    0    0    0
SMALL
NO_CHARGES


@<TRIPOS>ATOM
   1 C1            -0.3408     1.6925     0.3568 C.ar    
   2 C2            -0.3280     0.3053     0.0883 C.ar    
   3 C3             0.8558     2.3725     0.5733 C.ar    
   4 C4             2.0475     1.6824     0.5232 C.ar    
   5 C5             2.0637     0.3194     0.2591 C.ar    
   6 C6             0.8922    -0.3715     0.0433 C.ar    
   7 C7             0.8469     3.8520     0.8595 C.3     
   8 N8            -1.5052    -0.3357    -0.1192 N.2     
   9 C9            -2.6400     0.2941    -0.0768 C.2     
  10 N10           -2.7464     1.6267     0.1740 N.am    
  11 C11           -1.6421     2.3746     0.4039 C.2     
  12 C12           -4.0120     2.2297     0.2010 C.ar    
  13 C13           -4.6895     2.3742     1.4060 C.ar    
  14 C14           -4.5900     2.6896    -0.9765 C.ar    
  15 C15           -5.8389     3.2840    -0.9458 C.ar    
  16 C16           -6.5121     3.4208     0.2542 C.ar    
  17 C17           -5.9381     2.9697     1.4284 C.ar    
  18 C18           -3.9033    -0.4912    -0.3184 C.3     
  19 N19           -3.6516    -1.5225    -1.3281 N.pl3   
  20 C20           -4.7002    -2.0161    -2.0925 C.ar    
  21 N21           -5.9256    -1.5536    -1.9073 N.ar    
  22 O22           -1.7226     3.5681     0.6301 O.2     
  23 C23           -4.4557    -2.9988    -3.0620 C.ar    
  24 C24           -5.5353    -3.4817    -3.8234 C.ar    
  25 C25           -6.8051    -2.9659    -3.5861 C.ar    
  26 C26           -6.9617    -1.9928    -2.6130 C.ar    
  27 N27           -3.3474    -3.6568    -3.4869 N.2     
  28 C28           -3.6697    -4.4888    -4.4334 C.2     
  29 N29           -5.0097    -4.4201    -4.6798 N.pl3   
  30 F30           -3.9328     2.5568    -2.1494 F       
  31 F31           -4.1297     1.9334     2.5538 F       
  32 C32           -4.3496    -1.1534     0.9867 C.3     
  33 N33           -8.2274    -1.4655    -2.3703 N.pl3   
  34 H34            2.9769     2.2064     0.6904 H       
  35 H35            3.0068    -0.2056     0.2228 H       
  36 H36            0.9174    -1.4318    -0.1609 H       
  37 H37            0.6587     4.0156     1.9206 H       
  38 H38            1.8131     4.2797     0.5918 H       
  39 H39            0.0626     4.3308     0.2733 H       
  40 H40           -6.2885     3.6419    -1.8602 H       
  41 H41           -7.4869     3.8852     0.2749 H       
  42 H42           -6.4671     3.0784     2.3637 H       
  43 H43           -4.6863     0.1797    -0.6717 H       
  44 H44           -2.7524    -1.8605    -1.4624 H       
  45 H45           -7.6546    -3.3159    -4.1539 H       
  46 H46           -2.9779    -5.1386    -4.9486 H       
  47 H47           -5.5007    -4.9377    -5.3370 H       
  48 H48           -3.5993    -1.8787     1.3012 H       
  49 H49           -4.4658    -0.3928     1.7588 H       
  50 H50           -5.3017    -1.6603     0.8298 H       
  51 H51           -8.3466    -0.7836    -1.6908 H       
  52 H52           -8.9899    -1.7802    -2.8807 H       
@<TRIPOS>BOND
   1    1    2 ar
   2    1    3 ar
   3    1   11 1
   4    2    8 1
   5    2    6 ar
   6    3    4 ar
   7    3    7 1
   8    4    5 ar
   9    4   34 1
  10    5    6 ar
  11    5   35 1
  12    6   36 1
  13    7   37 1
  14    7   38 1
  15    7   39 1
  16    8    9 2
  17    9   10 1
  18    9   18 1
  19   10   11 am
  20   10   12 1
  21   11   22 2
  22   12   13 ar
  23   12   14 ar
  24   13   31 1
  25   13   17 ar
  26   14   15 ar
  27   14   30 1
  28   15   16 ar
  29   15   40 1
  30   16   17 ar
  31   16   41 1
  32   17   42 1
  33   18   19 1
  34   18   32 1
  35   18   43 1
  36   19   20 1
  37   19   44 1
  38   20   21 ar
  39   20   23 ar
  40   21   26 ar
  41   23   24 ar
  42   23   27 1
  43   24   25 ar
  44   24   29 1
  45   25   26 ar
  46   25   45 1
  47   26   33 1
  48   27   28 2
  49   28   29 1
  50   28   46 1
  51   29   47 1
  52   32   48 1
  53   32   49 1
  54   32   50 1
  55   33   51 1
  56   33   52 1

#	End of record

