#	Name: ASD01560029
#	Creating user name:	WinNT
#	Creation time:	15. 06. 2019 19:22

#	Modifying user name:	WinNT
#	Modification time:	15. 06. 2019 19:22

#	Program:	/corina/corina34_cracker 3.40 0067  02.08.2006

@<TRIPOS>MOLECULE
ASD01560029
  38   41    0    0    0
SMALL
NO_CHARGES


@<TRIPOS>ATOM
   1 Cl1            0.0021    -0.0041     0.0020 Cl      
   2 C2            -0.0215     1.7317     0.0116 C.ar    
   3 C3             1.1692     2.4380     0.0040 C.ar    
   4 C4             1.1556     3.8178     0.0115 C.ar    
   5 C5            -0.0590     4.5002     0.0268 C.ar    
   6 C6            -1.2547     3.7850     0.0344 C.ar    
   7 C7            -1.2309     2.4053     0.0210 C.ar    
   8 C8            -0.0791     5.9843     0.0354 C.2     
   9 C9            -1.2307     6.7886     0.0508 C.2     
  10 C10           -0.8192     8.1032     0.0544 C.2     
  11 N11            0.5534     8.1003     0.0416 N.am    
  12 N12            0.9799     6.7676     0.0357 N.2     
  13 C13            1.2215     9.2709     0.0420 C.2     
  14 O14            2.4371     9.2809     0.0303 O.2     
  15 N15            0.5340    10.4308     0.0550 N.am    
  16 C16           -0.8396    10.4186     0.0683 C.2     
  17 N17           -1.4950     9.2789     0.0675 N.2     
  18 S18           -1.7286    11.9398     0.0859 S.3     
  19 C19           -3.4260    11.3117     0.0986 C.3     
  20 C20           -4.3901    12.4699     0.1148 C.2     
  21 N21           -4.5837    13.1881     1.2646 N.am    
  22 C22           -5.4421    14.2238     1.2892 C.2     
  23 O23           -5.5991    14.8476     2.3211 O.2     
  24 N24           -6.1293    14.5795     0.1880 N.am    
  25 C25           -5.9673    13.8981    -0.9642 C.2     
  26 O26           -6.5891    14.2194    -1.9608 O.2     
  27 C27           -5.0632    12.8083    -1.0060 C.2     
  28 Cl28          -4.8329    11.9122    -2.4750 Cl      
  29 H29            2.1102     1.9081    -0.0075 H       
  30 H30            2.0850     4.3679     0.0060 H       
  31 H31           -2.1987     4.3096     0.0466 H       
  32 H32           -2.1572     1.8500     0.0268 H       
  33 H33           -2.2528     6.4397     0.0581 H       
  34 H34            1.0104    11.2758     0.0554 H       
  35 H35           -3.5972    10.7090    -0.7933 H       
  36 H36           -3.5799    10.6985     0.9866 H       
  37 H37           -4.0976    12.9477     2.0689 H       
  38 H38           -6.7439    15.3291     0.2234 H       
@<TRIPOS>BOND
   1    1    2 1
   2    2    3 ar
   3    2    7 ar
   4    3    4 ar
   5    3   29 1
   6    4    5 ar
   7    4   30 1
   8    5    6 ar
   9    5    8 1
  10    6    7 ar
  11    6   31 1
  12    7   32 1
  13    8    9 1
  14    8   12 2
  15    9   10 2
  16    9   33 1
  17   10   11 1
  18   10   17 1
  19   11   12 1
  20   11   13 am
  21   13   14 2
  22   13   15 am
  23   15   16 1
  24   15   34 1
  25   16   17 2
  26   16   18 1
  27   18   19 1
  28   19   20 1
  29   19   35 1
  30   19   36 1
  31   20   21 1
  32   20   27 2
  33   21   22 am
  34   21   37 1
  35   22   23 2
  36   22   24 am
  37   24   25 am
  38   24   38 1
  39   25   26 2
  40   25   27 1
  41   27   28 1

#	End of record

