#	Name: ASD04560018
#	Creating user name:	WinNT
#	Creation time:	15. 06. 2019 20:49

#	Modifying user name:	WinNT
#	Modification time:	15. 06. 2019 20:49

#	Program:	/corina/corina34_cracker 3.40 0067  02.08.2006

@<TRIPOS>MOLECULE
ASD04560018
  60   63    0    0    0
SMALL
NO_CHARGES


@<TRIPOS>ATOM
   1 C1            -0.0173     1.3666     0.0244 C.ar    
   2 C2             0.0010    -0.0041     0.0241 C.ar    
   3 C3             1.2157    -0.6859     0.0136 C.ar    
   4 C4             2.4151     0.0225     0.0039 C.ar    
   5 C5             2.4031     1.3933     0.0042 C.ar    
   6 C6             1.1852     2.0805     0.0143 C.ar    
   7 C7             1.1690     3.5549     0.0141 C.2     
   8 O8             2.2154     4.1746     0.0053 O.2     
   9 N9            -0.0055     4.2159     0.0238 N.am    
  10 C10           -0.0226     5.6108     0.1367 C.ar    
  11 C11           -0.9921     6.3504    -0.5279 C.ar    
  12 C12            0.9079     7.6335     1.0278 C.ar    
  13 C13            0.9265     6.2569     0.9179 C.ar    
  14 F14           -0.0727     9.7160     0.4686 F       
  15 S15            1.2351    -2.4478     0.0132 S.3     
  16 C16            3.0069    -2.8364    -0.0020 C.3     
  17 C17           -1.0071     7.7268    -0.4152 C.ar    
  18 C18           -0.0563     8.3694     0.3597 C.ar    
  19 C19            3.1932    -4.3318    -0.0038 C.ar    
  20 C20            3.2692    -5.0244    -1.2109 C.ar    
  21 B21            3.1611    -4.2496    -2.5720 Du      
  22 C22            3.4421    -6.4078    -1.2052 C.ar    
  23 C23            3.5370    -7.0835    -0.0062 C.ar    
  24 C24            3.4604    -6.3908     1.1894 C.ar    
  25 C25            3.2946    -5.0173     1.1896 C.ar    
  26 O26            3.2180    -4.7971    -3.8969 O.3     
  27 C27            3.9886    -3.8407    -4.6546 C.3     
  28 C28            3.8293    -2.5130    -3.8861 C.3     
  29 O29            2.9774    -2.8396    -2.7634 O.3     
  30 C30            5.4601    -4.2574    -4.6996 C.3     
  31 C31            3.4276    -3.7070    -6.0718 C.3     
  32 C32            5.1907    -2.0119    -3.3998 C.3     
  33 C33            3.1582    -1.4614    -4.7720 C.3     
  34 H34           -0.9594     1.8947     0.0280 H       
  35 H35           -0.9274    -0.5560     0.0322 H       
  36 H36            3.3553    -0.5088    -0.0035 H       
  37 H37            3.3333     1.9420    -0.0029 H       
  38 H38           -0.8390     3.7249    -0.0474 H       
  39 H39           -1.7336     5.8496    -1.1326 H       
  40 H40            1.6459     8.1363     1.6353 H       
  41 H41            1.6784     5.6833     1.4393 H       
  42 H42            3.4643    -2.4122    -0.8959 H       
  43 H43            3.4794    -2.4125     0.8840 H       
  44 H44           -1.7607     8.3024    -0.9321 H       
  45 H45            3.5013    -6.9494    -2.1376 H       
  46 H46            3.6710    -8.1551    -0.0006 H       
  47 H47            3.5345    -6.9239     2.1257 H       
  48 H48            3.2358    -4.4815     2.1255 H       
  49 H49            5.5488    -5.2245    -5.1945 H       
  50 H50            6.0320    -3.5124    -5.2527 H       
  51 H51            5.8477    -4.3322    -3.6836 H       
  52 H52            2.3846    -3.3943    -6.0217 H       
  53 H53            4.0038    -2.9631    -6.6220 H       
  54 H54            3.4947    -4.6682    -6.5813 H       
  55 H55            5.8454    -1.8501    -4.2562 H       
  56 H56            5.0609    -1.0742    -2.8595 H       
  57 H57            5.6357    -2.7543    -2.7374 H       
  58 H58            2.1733    -1.8166    -5.0750 H       
  59 H59            3.0532    -0.5305    -4.2149 H       
  60 H60            3.7701    -1.2881    -5.6573 H       
@<TRIPOS>BOND
   1    1    2 ar
   2    1    6 ar
   3    1   34 1
   4    2    3 ar
   5    2   35 1
   6    3    4 ar
   7    3   15 1
   8    4    5 ar
   9    4   36 1
  10    5    6 ar
  11    5   37 1
  12    6    7 1
  13    7    8 2
  14    7    9 am
  15    9   10 1
  16    9   38 1
  17   10   11 ar
  18   10   13 ar
  19   11   17 ar
  20   11   39 1
  21   12   13 ar
  22   12   18 ar
  23   12   40 1
  24   13   41 1
  25   14   18 1
  26   15   16 1
  27   16   19 1
  28   16   42 1
  29   16   43 1
  30   17   18 ar
  31   17   44 1
  32   19   20 ar
  33   19   25 ar
  34   20   21 1
  35   20   22 ar
  36   21   26 1
  37   21   29 1
  38   22   23 ar
  39   22   45 1
  40   23   24 ar
  41   23   46 1
  42   24   25 ar
  43   24   47 1
  44   25   48 1
  45   26   27 1
  46   27   28 1
  47   27   30 1
  48   27   31 1
  49   28   29 1
  50   28   32 1
  51   28   33 1
  52   30   49 1
  53   30   50 1
  54   30   51 1
  55   31   52 1
  56   31   53 1
  57   31   54 1
  58   32   55 1
  59   32   56 1
  60   32   57 1
  61   33   58 1
  62   33   59 1
  63   33   60 1

#	End of record

