#	Name: ASD05170047
#	Creating user name:	WinNT
#	Creation time:	15. 06. 2019 20:57

#	Modifying user name:	WinNT
#	Modification time:	15. 06. 2019 20:57

#	Program:	/corina/corina34_cracker 3.40 0067  02.08.2006

@<TRIPOS>MOLECULE
ASD05170047
  42   45    0    0    0
SMALL
NO_CHARGES


@<TRIPOS>ATOM
   1 C1            -0.0173     1.4248     0.0099 C.3     
   2 O2             0.0021    -0.0041     0.0020 O.3     
   3 C3            -1.1981    -0.6363     0.0101 C.ar    
   4 C4            -1.2421    -2.0296     0.0088 C.ar    
   5 C5            -2.4669    -2.6600     0.0165 C.ar    
   6 C6            -3.6368    -1.8773     0.0256 C.ar    
   7 C7            -4.9283    -2.6003     0.0329 C.ar    
   8 C8            -5.0328    -3.7541    -0.7529 C.ar    
   9 C9            -6.2189    -4.4763    -0.7755 C.ar    
  10 C10           -7.3042    -4.0492    -0.0118 C.ar    
  11 C11           -7.1973    -2.9096     0.7582 C.ar    
  12 C12           -6.0173    -2.1825     0.7793 C.ar    
  13 C13           -5.9633    -0.9325     1.6149 C.3     
  14 N14           -5.7821     0.2282     0.7529 N.am    
  15 C15           -6.8544     1.2232     0.6734 C.3     
  16 C16           -4.6782     0.4168     0.0363 C.2     
  17 O17           -4.6213     1.4107    -0.6611 O.2     
  18 C18           -3.5197    -0.4919     0.0267 C.ar    
  19 N19           -2.3051     0.0725     0.0245 N.ar    
  20 C20           -6.3307    -5.6983    -1.6100 C.ar    
  21 C21           -7.5224    -6.4283    -1.6434 C.ar    
  22 C22           -7.5774    -7.5599    -2.4370 C.ar    
  23 C23           -6.4590    -7.9304    -3.1671 C.ar    
  24 F24           -6.5070    -9.0347    -3.9439 F       
  25 N25           -5.3471    -7.2193    -3.1148 N.ar    
  26 C26           -5.2519    -6.1321    -2.3764 C.ar    
  27 H27            1.0053     1.8021     0.0021 H       
  28 H28           -0.5445     1.7859    -0.8732 H       
  29 H29           -0.5275     1.7763     0.9067 H       
  30 H30           -0.3292    -2.6065     0.0014 H       
  31 H31           -2.5285    -3.7382     0.0153 H       
  32 H32           -4.1900    -4.0829    -1.3429 H       
  33 H33           -8.2275    -4.6095    -0.0233 H       
  34 H34           -8.0394    -2.5815     1.3494 H       
  35 H35           -6.8943    -0.8284     2.1721 H       
  36 H36           -5.1292    -0.9991     2.3134 H       
  37 H37           -6.6998     1.9858     1.4366 H       
  38 H38           -6.8458     1.6886    -0.3123 H       
  39 H39           -7.8154     0.7354     0.8365 H       
  40 H40           -8.3788    -6.1166    -1.0638 H       
  41 H41           -8.4816    -8.1484    -2.4869 H       
  42 H42           -4.3273    -5.5742    -2.3625 H       
@<TRIPOS>BOND
   1    1    2 1
   2    1   27 1
   3    1   28 1
   4    1   29 1
   5    2    3 1
   6    3   19 ar
   7    3    4 ar
   8    4    5 ar
   9    4   30 1
  10    5    6 ar
  11    5   31 1
  12    6   18 ar
  13    6    7 1
  14    7   12 ar
  15    7    8 ar
  16    8    9 ar
  17    8   32 1
  18    9   10 ar
  19    9   20 1
  20   10   11 ar
  21   10   33 1
  22   11   12 ar
  23   11   34 1
  24   12   13 1
  25   13   14 1
  26   13   35 1
  27   13   36 1
  28   14   15 1
  29   14   16 am
  30   15   37 1
  31   15   38 1
  32   15   39 1
  33   16   17 2
  34   16   18 1
  35   18   19 ar
  36   20   26 ar
  37   20   21 ar
  38   21   22 ar
  39   21   40 1
  40   22   23 ar
  41   22   41 1
  42   23   24 1
  43   23   25 ar
  44   25   26 ar
  45   26   42 1

#	End of record

