#	Name: ASD05430200
#	Creating user name:	WinNT
#	Creation time:	15. 06. 2019 21:00

#	Modifying user name:	WinNT
#	Modification time:	15. 06. 2019 21:00

#	Program:	/corina/corina34_cracker 3.40 0067  02.08.2006

@<TRIPOS>MOLECULE
ASD05430200
  71   76    0    0    0
SMALL
NO_CHARGES


@<TRIPOS>ATOM
   1 C1             0.1384     1.2285    -0.9383 C.ar    
   2 C2             0.0192    -0.0131    -0.3147 C.ar    
   3 C3             1.0865    -0.5395     0.4016 C.ar    
   4 C4             2.2682     0.1624     0.4991 C.ar    
   5 C5             2.3951     1.4081    -0.1242 C.ar    
   6 C6             1.3206     1.9381    -0.8448 C.ar    
   7 C7             4.9230    -0.0065    -0.1051 C.3     
   8 C8             4.8270     1.5012     0.0670 C.2     
   9 C9             3.6566     2.1597    -0.0208 C.2     
  10 C10            6.1792    -0.3098    -0.9322 C.3     
  11 C11            7.4995     0.1978    -0.3383 C.3     
  12 N12            7.3320     1.5958     0.0528 N.pl3   
  13 C13            6.1045     2.1969     0.3378 C.2     
  14 C14           -0.7146     3.0149    -2.2557 C.3     
  15 O15           -0.9066     1.7383    -1.6430 O.3     
  16 N16           -1.1804    -0.7313    -0.4106 N.pl3   
  17 C17           -2.4283    -0.2556    -0.1627 C.2     
  18 C18           -1.3165    -2.0450    -0.7780 C.2     
  19 C19           -2.6327    -2.3269    -0.7376 C.2     
  20 N20           -3.2870    -1.2187    -0.3598 N.2     
  21 C21           -3.2622    -3.6565    -1.0648 C.3     
  22 C22           -1.9891     3.4210    -2.9983 C.3     
  23 C23            6.2139    -1.6296    -1.7029 C.3     
  24 C24            6.0411    -0.3075    -2.4541 C.3     
  25 C25            8.3474     2.6395     0.2109 C.3     
  26 O26            7.6700     3.6403     0.9992 O.3     
  27 N27            6.2830     3.3667     0.8570 N.2     
  28 C28            9.5491     2.1057     0.9472 C.2     
  29 C29           10.7267     2.1163     0.3735 C.2     
  30 C30            8.7482     3.1994    -1.1296 C.ar    
  31 C31            9.2626     4.4796    -1.2175 C.ar    
  32 C32            8.6066     2.4303    -2.2696 C.ar    
  33 C33            8.9747     2.9424    -3.4993 C.ar    
  34 C34            9.4851     4.2263    -3.5893 C.ar    
  35 C35            9.6310     4.9939    -2.4462 C.ar    
  36 F36            9.8453     4.7280    -4.7909 F       
  37 S37           12.1317     1.4923     1.2344 S.o2    
  38 O38           13.0980     2.5285     1.1258 O.2     
  39 O39           11.6203     1.0971     2.4999 O.2     
  40 C40           12.6436     0.0413     0.2735 C.3     
  41 H41            0.9898    -1.5011     0.8837 H       
  42 H42            3.0963    -0.2491     1.0570 H       
  43 H43            1.4145     2.8995    -1.3279 H       
  44 H44            5.0003    -0.4846     0.8714 H       
  45 H45            4.0400    -0.3747    -0.6275 H       
  46 H46            3.6429     3.2396    -0.0154 H       
  47 H47            7.7596    -0.3979     0.5367 H       
  48 H48            8.2900     0.1193    -1.0847 H       
  49 H49           -0.4893     3.7559    -1.4886 H       
  50 H50            0.1145     2.9584    -2.9610 H       
  51 H51           -2.6696     0.7508     0.1461 H       
  52 H52           -0.5209    -2.7236    -1.0481 H       
  53 H53           -3.3227    -4.2622    -0.1606 H       
  54 H54           -4.2643    -3.4961    -1.4624 H       
  55 H55           -2.6548    -4.1730    -1.8081 H       
  56 H56           -1.8427     4.3948    -3.4657 H       
  57 H57           -2.2145     2.6801    -3.7653 H       
  58 H58           -2.8183     3.4775    -2.2930 H       
  59 H59            7.1750    -2.1363    -1.7904 H       
  60 H60            5.3438    -2.2814    -1.6244 H       
  61 H61            5.0573    -0.0898    -2.8700 H       
  62 H62            6.8885     0.0553    -3.0359 H       
  63 H63            9.4394     1.7145     1.9478 H       
  64 H64           10.8364     2.5076    -0.6271 H       
  65 H65            9.3763     5.0781    -0.3258 H       
  66 H66            8.2085     1.4289    -2.1991 H       
  67 H67            8.8647     2.3412    -4.3897 H       
  68 H68           10.0286     5.9956    -2.5152 H       
  69 H69           12.8920     0.3476    -0.7427 H       
  70 H70           13.5177    -0.4134     0.7398 H       
  71 H71           11.8288    -0.6822     0.2460 H       
@<TRIPOS>BOND
   1    1    2 ar
   2    1    6 ar
   3    1   15 1
   4    2    3 ar
   5    2   16 1
   6    3    4 ar
   7    3   41 1
   8    4    5 ar
   9    4   42 1
  10    5    6 ar
  11    5    9 1
  12    6   43 1
  13    7    8 1
  14    7   10 1
  15    7   44 1
  16    7   45 1
  17    8    9 2
  18    8   13 1
  19    9   46 1
  20   10   11 1
  21   10   23 1
  22   10   24 1
  23   11   12 1
  24   11   47 1
  25   11   48 1
  26   12   13 1
  27   12   25 1
  28   13   27 2
  29   14   15 1
  30   14   22 1
  31   14   49 1
  32   14   50 1
  33   16   17 1
  34   16   18 1
  35   17   20 2
  36   17   51 1
  37   18   19 2
  38   18   52 1
  39   19   20 1
  40   19   21 1
  41   21   53 1
  42   21   54 1
  43   21   55 1
  44   22   56 1
  45   22   57 1
  46   22   58 1
  47   23   24 1
  48   23   59 1
  49   23   60 1
  50   24   61 1
  51   24   62 1
  52   25   26 1
  53   25   28 1
  54   25   30 1
  55   26   27 1
  56   28   29 2
  57   28   63 1
  58   29   37 1
  59   29   64 1
  60   30   31 ar
  61   30   32 ar
  62   31   35 ar
  63   31   65 1
  64   32   33 ar
  65   32   66 1
  66   33   34 ar
  67   33   67 1
  68   34   35 ar
  69   34   36 1
  70   35   68 1
  71   37   38 2
  72   37   39 2
  73   37   40 1
  74   40   69 1
  75   40   70 1
  76   40   71 1

#	End of record

