#	Name: ASD01910157
#	Creating user name:	WinNT
#	Creation time:	15. 06. 2019 19:55

#	Modifying user name:	WinNT
#	Modification time:	15. 06. 2019 19:55

#	Program:	/corina/corina34_cracker 3.40 0067  02.08.2006

@<TRIPOS>MOLECULE
ASD01910157
  44   46    0    0    0
SMALL
NO_CHARGES


@<TRIPOS>ATOM
   1 C1             0.0502     1.2909     0.1374 C.ar    
   2 C2            -1.0362     1.7119    -0.6143 C.ar    
   3 C3            -0.9409     2.8476    -1.4040 C.ar    
   4 C4             0.2354     3.5647    -1.4453 C.ar    
   5 C5             1.3327     3.1454    -0.6898 C.ar    
   6 C6             1.2314     2.0005     0.1036 C.ar    
   7 C7             2.5960     3.9095    -0.7304 C.2     
   8 N8             3.6534     3.5027    -0.0004 N.am    
   9 C9             4.8777     4.1694    -0.1114 C.ar    
  10 C10            4.9056     5.5434    -0.3012 C.ar    
  11 C11            6.1227     6.2013    -0.4104 C.ar    
  12 C12            7.3088     5.4825    -0.3294 C.ar    
  13 C13            7.2776     4.1140    -0.1404 C.ar    
  14 C14            6.0678     3.4570    -0.0260 C.ar    
  15 N15            6.1552     7.5862    -0.6021 N.am    
  16 C16            7.1300     8.3226    -0.0331 C.2     
  17 C17            7.1072     9.7929    -0.1500 C.ar    
  18 C18            6.0773    10.4261    -0.8495 C.ar    
  19 C19            6.0618    11.8002    -0.9551 C.ar    
  20 C20            7.0635    12.5573    -0.3705 C.ar    
  21 C21            8.0880    11.9442     0.3236 C.ar    
  22 C22            8.1160    10.5632     0.4452 C.ar    
  23 O23            9.1215     9.9595     1.1271 O.3     
  24 C24           10.1207    10.8082     1.6958 C.3     
  25 O25            2.6821     4.9054    -1.4224 O.2     
  26 O26            8.0283     7.7750     0.5767 O.2     
  27 F27           -2.1916     1.0127    -0.5775 F       
  28 H28           -0.0307     0.4079     0.7540 H       
  29 H29           -1.7900     3.1708    -1.9881 H       
  30 H30            0.3087     4.4490    -2.0610 H       
  31 H31            2.0768     1.6721     0.6900 H       
  32 H32            3.5652     2.7476     0.6020 H       
  33 H33            3.9821     6.0999    -0.3641 H       
  34 H34            8.2563     5.9937    -0.4146 H       
  35 H35            8.2010     3.5575    -0.0778 H       
  36 H36            6.0468     2.3873     0.1217 H       
  37 H37            5.4761     8.0167    -1.1447 H       
  38 H38            5.2944     9.8397    -1.3073 H       
  39 H39            5.2653    12.2888    -1.4965 H       
  40 H40            7.0435    13.6336    -0.4582 H       
  41 H41            8.8658    12.5413     0.7761 H       
  42 H42           10.6054    11.3797     0.9043 H       
  43 H43            9.6553    11.4925     2.4052 H       
  44 H44           10.8634    10.1998     2.2117 H       
@<TRIPOS>BOND
   1    1    2 ar
   2    1    6 ar
   3    1   28 1
   4    2    3 ar
   5    2   27 1
   6    3    4 ar
   7    3   29 1
   8    4    5 ar
   9    4   30 1
  10    5    6 ar
  11    5    7 1
  12    6   31 1
  13    7    8 am
  14    7   25 2
  15    8    9 1
  16    8   32 1
  17    9   10 ar
  18    9   14 ar
  19   10   11 ar
  20   10   33 1
  21   11   12 ar
  22   11   15 1
  23   12   13 ar
  24   12   34 1
  25   13   14 ar
  26   13   35 1
  27   14   36 1
  28   15   16 am
  29   15   37 1
  30   16   17 1
  31   16   26 2
  32   17   18 ar
  33   17   22 ar
  34   18   19 ar
  35   18   38 1
  36   19   20 ar
  37   19   39 1
  38   20   21 ar
  39   20   40 1
  40   21   22 ar
  41   21   41 1
  42   22   23 1
  43   23   24 1
  44   24   42 1
  45   24   43 1
  46   24   44 1

#	End of record

