#	Name: ASD08178248
#	Creating user name:	WinNT
#	Creation time:	15. 06. 2019 21:18

#	Modifying user name:	WinNT
#	Modification time:	15. 06. 2019 21:18

#	Program:	/corina/corina34_cracker 3.40 0067  02.08.2006

@<TRIPOS>MOLECULE
ASD08178248
  66   69    0    0    0
SMALL
NO_CHARGES


@<TRIPOS>ATOM
   1 N1            -0.0168     1.3902     0.0097 N.am    
   2 C2            -0.2172     0.0103     0.0230 C.ar    
   3 C3             0.8687    -0.8560    -0.0926 C.ar    
   4 N4            -1.4395    -0.4831     0.1512 N.ar    
   5 N5            -1.6665    -1.7463     0.1680 N.ar    
   6 C6            -0.7003    -2.6366     0.0592 C.ar    
   7 C7             0.6164    -2.2189    -0.0739 C.ar    
   8 C8            -1.0250    -4.1080     0.0858 C.3     
   9 C9            -1.8117    -4.4337     1.3569 C.3     
  10 C10           -2.1414    -5.9275     1.3839 C.3     
  11 C11           -2.9281    -6.2533     2.6551 C.3     
  12 C12           -3.2528    -7.7247     2.6817 C.2     
  13 N13           -2.5219    -8.6590     3.2016 N.2     
  14 N14           -2.9697    -9.8367     3.1220 N.2     
  15 C15           -4.1138   -10.0082     2.5312 C.2     
  16 S16           -4.7002    -8.4829     2.0170 S.3     
  17 N17           -4.7584   -11.2272     2.3511 N.am    
  18 C18           -4.1940   -12.3622     2.8092 C.2     
  19 C19           -4.8926   -13.6831     2.6140 C.3     
  20 O20           -3.1239   -12.3204     3.3784 O.2     
  21 C21           -4.9714   -13.9971     1.1422 C.ar    
  22 C22           -6.1057   -13.6662     0.4249 C.ar    
  23 C23           -6.1786   -13.9535    -0.9256 C.ar    
  24 C24           -5.1175   -14.5721    -1.5590 C.ar    
  25 C25           -3.9817   -14.9035    -0.8414 C.ar    
  26 C26           -3.9071   -14.6107     0.5085 C.ar    
  27 C27           -1.0750     2.2249     0.0167 C.2     
  28 O28           -2.2000     1.7785    -0.0599 O.2     
  29 C29           -0.8602     3.7129     0.1199 C.3     
  30 C30           -2.1936     4.4150     0.1067 C.ar    
  31 C31           -2.8556     4.6613     1.2937 C.ar    
  32 C32           -4.0830     5.3081     1.2809 C.ar    
  33 C33           -4.6422     5.7060     0.0754 C.ar    
  34 C34           -3.9760     5.4573    -1.1092 C.ar    
  35 C35           -2.7507     4.8173    -1.0934 C.ar    
  36 Cl36          -2.6485   -15.6810    -1.6363 Cl      
  37 O37           -4.1603   -14.7125     3.2821 O.3     
  38 O38           -4.7365     5.5511     2.4474 O.3     
  39 C39           -5.9955     6.2212     2.3583 C.3     
  40 F40           -6.8768     5.4572     1.5859 F       
  41 F41           -6.5261     6.3895     3.6418 F       
  42 F42           -5.8162     7.4731     1.7601 F       
  43 H43            0.8842     1.7494    -0.0006 H       
  44 H44            1.8750    -0.4772    -0.1940 H       
  45 H45            1.4202    -2.9344    -0.1642 H       
  46 H46           -1.6243    -4.3636    -0.7880 H       
  47 H47           -0.1000    -4.6844     0.0732 H       
  48 H48           -1.2124    -4.1780     2.2307 H       
  49 H49           -2.7367    -3.8572     1.3695 H       
  50 H50           -2.7407    -6.1832     0.5101 H       
  51 H51           -1.2164    -6.5040     1.3714 H       
  52 H52           -2.3288    -5.9976     3.5289 H       
  53 H53           -3.8531    -5.6768     2.6676 H       
  54 H54           -5.6143   -11.2606     1.8959 H       
  55 H55           -5.8994   -13.6263     3.0278 H       
  56 H56           -6.9355   -13.1834     0.9196 H       
  57 H57           -7.0651   -13.6948    -1.4855 H       
  58 H58           -5.1748   -14.7971    -2.6137 H       
  59 H59           -3.0209   -14.8691     1.0691 H       
  60 H60           -0.3386     3.9412     1.0493 H       
  61 H61           -0.2621     4.0532    -0.7255 H       
  62 H62           -2.4183     4.3502     2.2309 H       
  63 H63           -5.5976     6.2093     0.0628 H       
  64 H64           -4.4109     5.7669    -2.0480 H       
  65 H65           -2.2315     4.6239    -2.0204 H       
  66 H66           -3.2534   -14.8196     2.9642 H       
@<TRIPOS>BOND
   1    1    2 1
   2    1   27 am
   3    1   43 1
   4    2    3 ar
   5    2    4 ar
   6    3    7 ar
   7    3   44 1
   8    4    5 ar
   9    5    6 ar
  10    6    7 ar
  11    6    8 1
  12    7   45 1
  13    8    9 1
  14    8   46 1
  15    8   47 1
  16    9   10 1
  17    9   48 1
  18    9   49 1
  19   10   11 1
  20   10   50 1
  21   10   51 1
  22   11   12 1
  23   11   52 1
  24   11   53 1
  25   12   13 2
  26   12   16 1
  27   13   14 1
  28   14   15 2
  29   15   16 1
  30   15   17 1
  31   17   18 am
  32   17   54 1
  33   18   19 1
  34   18   20 2
  35   19   21 1
  36   19   37 1
  37   19   55 1
  38   21   22 ar
  39   21   26 ar
  40   22   23 ar
  41   22   56 1
  42   23   24 ar
  43   23   57 1
  44   24   25 ar
  45   24   58 1
  46   25   26 ar
  47   25   36 1
  48   26   59 1
  49   27   28 2
  50   27   29 1
  51   29   30 1
  52   29   60 1
  53   29   61 1
  54   30   31 ar
  55   30   35 ar
  56   31   32 ar
  57   31   62 1
  58   32   33 ar
  59   32   38 1
  60   33   34 ar
  61   33   63 1
  62   34   35 ar
  63   34   64 1
  64   35   65 1
  65   37   66 1
  66   38   39 1
  67   39   40 1
  68   39   41 1
  69   39   42 1

#	End of record

