#	Name: ASD02038344
#	Creating user name:	WinNT
#	Creation time:	15. 06. 2019 20:16

#	Modifying user name:	WinNT
#	Modification time:	15. 06. 2019 20:16

#	Program:	/corina/corina34_cracker 3.40 0067  02.08.2006

@<TRIPOS>MOLECULE
ASD02038344
  51   53    0    0    0
SMALL
NO_CHARGES


@<TRIPOS>ATOM
   1 C1            -0.5051     1.8098     1.2906 C.3     
   2 C2            -0.4016     0.2730     1.2437 C.3     
   3 N3             1.0337     0.0223     1.0450 N.am    
   4 C4             1.6805     1.1936     0.9829 C.2     
   5 N5             0.8830     2.2619     1.1132 N.am    
   6 C6             1.6571    -1.2986     0.9327 C.3     
   7 C7             1.6816    -1.7279    -0.5356 C.3     
   8 C8             2.3328    -3.1075    -0.6528 C.3     
   9 O9             2.4614    -3.4578    -2.0322 O.3     
  10 C10            3.1804    -5.0654    -3.6315 C.ar    
  11 C11            3.0254    -4.6631    -2.3132 C.ar    
  12 O12            2.8828     1.2794     0.8232 O.2     
  13 C13            1.3040     3.5968     1.0851 C.ar    
  14 C14            0.3679     4.6220     1.1133 C.ar    
  15 C15            2.6586     3.8979     1.0347 C.ar    
  16 C16            3.0714     5.2156     1.0075 C.ar    
  17 C17            2.1363     6.2354     1.0304 C.ar    
  18 C18            0.7859     5.9381     1.0859 C.ar    
  19 Cl19           2.6584     7.8907     0.9967 Cl      
  20 C20            3.7535    -6.2889    -3.9177 C.ar    
  21 C21            4.1745    -7.1164    -2.8852 C.ar    
  22 C22            4.0190    -6.7129    -1.5656 C.ar    
  23 C23            3.4457    -5.4890    -1.2812 C.ar    
  24 N24            4.7549    -8.3566    -3.1742 N.am    
  25 O25            0.3447    -1.7881    -1.0366 O.3     
  26 S26            3.8859    -9.7489    -2.9540 S.o2    
  27 O27            4.7683   -10.7822    -3.3699 O.2     
  28 O28            3.4322    -9.6699    -1.6097 O.2     
  29 C29            2.4925    -9.5998    -4.1058 C.3     
  30 H30           -1.1334     2.1759     0.4786 H       
  31 H31           -0.8941     2.1379     2.2545 H       
  32 H32           -0.7394    -0.1621     2.1844 H       
  33 H33           -0.9786    -0.1241     0.4085 H       
  34 H34            2.6769    -1.2528     1.3149 H       
  35 H35            1.0838    -2.0215     1.5131 H       
  36 H36            2.2550    -1.0050    -1.1160 H       
  37 H37            3.3195    -3.0840    -0.1904 H       
  38 H38            1.7117    -3.8465    -0.1467 H       
  39 H39            2.8488    -4.4235    -4.4343 H       
  40 H40           -0.6861     4.3905     1.1563 H       
  41 H41            3.3888     3.1023     1.0171 H       
  42 H42            4.1248     5.4503     0.9686 H       
  43 H43            0.0581     6.7358     1.1033 H       
  44 H44            3.8738    -6.6021    -4.9442 H       
  45 H45            4.3459    -7.3561    -0.7620 H       
  46 H46            3.3250    -5.1748    -0.2550 H       
  47 H47            5.6662    -8.4006    -3.5036 H       
  48 H48           -0.2239    -2.4129    -0.5661 H       
  49 H49            2.8658    -9.6015    -5.1299 H       
  50 H50            1.8134   -10.4407    -3.9653 H       
  51 H51            1.9610    -8.6676    -3.9144 H       
@<TRIPOS>BOND
   1    1    2 1
   2    1    5 1
   3    1   30 1
   4    1   31 1
   5    2    3 1
   6    2   32 1
   7    2   33 1
   8    3    4 am
   9    3    6 1
  10    4    5 am
  11    4   12 2
  12    5   13 1
  13    6    7 1
  14    6   34 1
  15    6   35 1
  16    7    8 1
  17    7   25 1
  18    7   36 1
  19    8    9 1
  20    8   37 1
  21    8   38 1
  22    9   11 1
  23   10   11 ar
  24   10   20 ar
  25   10   39 1
  26   11   23 ar
  27   13   14 ar
  28   13   15 ar
  29   14   18 ar
  30   14   40 1
  31   15   16 ar
  32   15   41 1
  33   16   17 ar
  34   16   42 1
  35   17   18 ar
  36   17   19 1
  37   18   43 1
  38   20   21 ar
  39   20   44 1
  40   21   22 ar
  41   21   24 1
  42   22   23 ar
  43   22   45 1
  44   23   46 1
  45   24   26 am
  46   24   47 1
  47   25   48 1
  48   26   27 2
  49   26   28 2
  50   26   29 1
  51   29   49 1
  52   29   50 1
  53   29   51 1

#	End of record

