#	Name: ASD05430738
#	Creating user name:	WinNT
#	Creation time:	15. 06. 2019 21:00

#	Modifying user name:	WinNT
#	Modification time:	15. 06. 2019 21:00

#	Program:	/corina/corina34_cracker 3.40 0067  02.08.2006

@<TRIPOS>MOLECULE
ASD05430738
  71   76    0    0    0
SMALL
NO_CHARGES


@<TRIPOS>ATOM
   1 C1            -0.1561     1.4390     0.4448 C.2     
   2 C2            -0.1016     0.0703     0.1392 C.2     
   3 N3            -1.2692    -0.6661     0.0752 N.pl3   
   4 C4            -2.3598    -0.1095     0.7314 C.2     
   5 N5            -2.5248     1.2592     0.7741 N.am    
   6 C6            -1.4496     2.0884     0.6861 C.2     
   7 O7            -1.5541     3.2956     0.8040 O.2     
   8 C8            -3.8690     1.8251     0.9129 C.3     
   9 C9            -3.9746     2.5676     2.2464 C.3     
  10 C10           -4.1289     2.7856    -0.2189 C.ar    
  11 C11           -3.6799     2.4908    -1.4926 C.ar    
  12 C12           -3.9183     3.3719    -2.5307 C.ar    
  13 C13           -4.6061     4.5477    -2.2952 C.ar    
  14 C14           -5.0560     4.8420    -1.0216 C.ar    
  15 C15           -4.8213     3.9589     0.0156 C.ar    
  16 N16            1.1004     1.9035     0.4460 N.2     
  17 C17            1.9214     0.9158     0.1603 C.2     
  18 N18            1.1948    -0.2380    -0.0363 N.pl3   
  19 C19            3.3923     1.0270     0.0646 C.ar    
  20 C20            4.0164     2.2555     0.2861 C.ar    
  21 C21            5.3927     2.3550     0.1956 C.ar    
  22 C22            6.1533     1.2293    -0.1164 C.ar    
  23 C23            5.5315     0.0077    -0.3370 C.ar    
  24 C24            4.1602    -0.0981    -0.2418 C.ar    
  25 N25            7.5488     1.3309    -0.2080 N.pl3   
  26 C26            8.2461     2.2540    -0.9197 C.2     
  27 N27            9.5213     2.0269    -0.7582 N.2     
  28 C28            9.6854     0.9684     0.0490 C.2     
  29 C29            8.4670     0.5211     0.4086 C.2     
  30 C30           11.0049     0.3836     0.4825 C.3     
  31 C31           -1.3512    -1.9446    -0.6355 C.3     
  32 N32           -3.2330    -0.8856     1.3099 N.2     
  33 C33           -2.9891    -2.3276     1.3941 C.3     
  34 C34           -2.1822    -2.8391     2.5893 C.3     
  35 C35           -3.6884    -3.0981     2.5158 C.3     
  36 O36            6.0037     3.5504     0.4103 O.3     
  37 C37            5.1623     4.6617     0.7252 C.3     
  38 S38           -4.9173     5.7019    -3.6542 Du      
  39 F39           -6.4407     5.8712    -3.1617 F       
  40 F40           -3.3938     5.5326    -4.1468 F       
  41 F41           -5.3585     4.4734    -4.5966 F       
  42 F42           -5.1940     6.7286    -4.8631 F       
  43 F43           -4.4761     6.9304    -2.7118 F       
  44 H44           -4.6058     1.0223     0.8846 H       
  45 H45           -4.9747     2.9886     2.3497 H       
  46 H46           -3.7866     1.8728     3.0650 H       
  47 H47           -3.2378     3.3703     2.2747 H       
  48 H48           -3.1425     1.5723    -1.6766 H       
  49 H49           -3.5669     3.1419    -3.5257 H       
  50 H50           -5.5930     5.7608    -0.8376 H       
  51 H51           -5.1728     4.1889     1.0106 H       
  52 H52            1.5527    -1.1115    -0.2596 H       
  53 H53            3.4256     3.1268     0.5274 H       
  54 H54            6.1236    -0.8625    -0.5788 H       
  55 H55            3.6790    -1.0496    -0.4135 H       
  56 H56            7.8172     3.0434    -1.5192 H       
  57 H57            8.2542    -0.3184     1.0538 H       
  58 H58           11.3311     0.8663     1.4038 H       
  59 H59           10.8892    -0.6865     0.6542 H       
  60 H60           11.7489     0.5482    -0.2970 H       
  61 H61           -1.1329    -2.7589     0.0553 H       
  62 H62           -2.3551    -2.0712    -1.0408 H       
  63 H63           -0.6267    -1.9547    -1.4498 H       
  64 H64           -2.8544    -2.8381     0.4405 H       
  65 H65           -1.5171    -3.6863     2.4220 H       
  66 H66           -1.8329    -2.1026     3.3129 H       
  67 H67           -4.3299    -2.5321     3.1911 H       
  68 H68           -4.0141    -4.1157     2.3002 H       
  69 H69            5.7750     5.5511     0.8720 H       
  70 H70            4.4643     4.8326    -0.0943 H       
  71 H71            4.6059     4.4490     1.6380 H       
@<TRIPOS>BOND
   1    1    2 2
   2    1   16 1
   3    1    6 1
   4    2    3 1
   5    2   18 1
   6    3    4 1
   7    3   31 1
   8    4    5 1
   9    4   32 2
  10    5    6 am
  11    5    8 1
  12    6    7 2
  13    8    9 1
  14    8   10 1
  15    8   44 1
  16    9   45 1
  17    9   46 1
  18    9   47 1
  19   10   11 ar
  20   10   15 ar
  21   11   12 ar
  22   11   48 1
  23   12   13 ar
  24   12   49 1
  25   13   14 ar
  26   13   38 1
  27   14   15 ar
  28   14   50 1
  29   15   51 1
  30   16   17 2
  31   17   18 1
  32   17   19 1
  33   18   52 1
  34   19   20 ar
  35   19   24 ar
  36   20   21 ar
  37   20   53 1
  38   21   22 ar
  39   21   36 1
  40   22   23 ar
  41   22   25 1
  42   23   24 ar
  43   23   54 1
  44   24   55 1
  45   25   26 1
  46   25   29 1
  47   26   27 2
  48   26   56 1
  49   27   28 1
  50   28   29 2
  51   28   30 1
  52   29   57 1
  53   30   58 1
  54   30   59 1
  55   30   60 1
  56   31   61 1
  57   31   62 1
  58   31   63 1
  59   32   33 1
  60   33   34 1
  61   33   35 1
  62   33   64 1
  63   34   35 1
  64   34   65 1
  65   34   66 1
  66   35   67 1
  67   35   68 1
  68   36   37 1
  69   37   69 1
  70   37   70 1
  71   37   71 1
  72   38   39 1
  73   38   40 1
  74   38   41 1
  75   38   42 1
  76   38   43 1

#	End of record

