#	Name: ASD01200151
#	Creating user name:	WinNT
#	Creation time:	15. 06. 2019 19:08

#	Modifying user name:	WinNT
#	Modification time:	15. 06. 2019 19:08

#	Program:	/corina/corina34_cracker 3.40 0067  02.08.2006

@<TRIPOS>MOLECULE
ASD01200151
  55   58    0    0    0
SMALL
NO_CHARGES


@<TRIPOS>ATOM
   1 C1            -0.0194     1.3710    -0.0076 C.ar    
   2 C2             0.0019    -0.0107    -0.0149 C.ar    
   3 C3             1.2120    -0.6905    -0.0244 C.ar    
   4 C4             2.3957     0.0123    -0.0266 C.ar    
   5 C5             2.3867     1.4100    -0.0192 C.ar    
   6 C6             3.8452    -0.4045    -0.0359 C.3     
   7 N7             4.6286     0.8363    -0.0333 N.am    
   8 C8             3.7832     1.8813    -0.0236 C.2     
   9 O9             4.1222     3.0488    -0.0192 O.2     
  10 S10            4.2221    -1.3830     1.4443 S.3     
  11 C11            6.0911     0.9220    -0.0393 C.3     
  12 C12            6.5863     0.9583    -1.4621 C.ar    
  13 C13            3.6322    -3.0397     0.9994 C.3     
  14 C14            3.8786    -3.9855     2.1466 C.2     
  15 O15            4.4006    -3.5817     3.1640 O.2     
  16 N16            3.5187    -5.2800     2.0418 N.am    
  17 C17            3.8428    -6.1780     3.0576 C.ar    
  18 N18            4.5870    -5.7758     4.0755 N.ar    
  19 C19            4.9162    -6.5930     5.0575 C.ar    
  20 C20            4.4922    -7.9071     5.0574 C.ar    
  21 C21            3.7095    -8.3686     4.0076 C.ar    
  22 C22            3.3765    -7.4864     2.9951 C.ar    
  23 C23            6.7428     2.1707    -2.1070 C.ar    
  24 C24            7.1969     2.2093    -3.4126 C.ar    
  25 C25            7.4965     1.0312    -4.0768 C.ar    
  26 C26            7.3392    -0.1898    -3.4272 C.ar    
  27 C27            6.8885    -0.2212    -2.1178 C.ar    
  28 O28            7.9427     1.0674    -5.3610 O.3     
  29 O29            7.6315    -1.3491    -4.0753 O.3     
  30 C30            7.4463    -2.5642    -3.3465 C.3     
  31 C31            8.0794     2.3557    -5.9642 C.3     
  32 F32            1.2281    -2.0414    -0.0311 F       
  33 C33            1.1637     2.0876    -0.0097 C.ar    
  34 F34            1.1376     3.4384    -0.0029 F       
  35 H35           -0.9644     1.8938    -0.0047 H       
  36 H36           -0.9260    -0.5634    -0.0128 H       
  37 H37            4.0629    -0.9831    -0.9336 H       
  38 H38            6.4040     1.8291     0.4776 H       
  39 H39            6.5081     0.0522     0.4685 H       
  40 H40            2.5644    -2.9996     0.7845 H       
  41 H41            4.1674    -3.3912     0.1174 H       
  42 H42            3.0341    -5.5869     1.2595 H       
  43 H43            5.5254    -6.2296     5.8719 H       
  44 H44            4.7667    -8.5691     5.8653 H       
  45 H45            3.3651    -9.3919     3.9839 H       
  46 H46            2.7689    -7.8117     2.1636 H       
  47 H47            6.5097     3.0899    -1.5902 H       
  48 H48            7.3177     3.1579    -3.9144 H       
  49 H49            6.7656    -1.1672    -1.6115 H       
  50 H50            8.0803    -2.5564    -2.4599 H       
  51 H51            6.4023    -2.6520    -3.0458 H       
  52 H52            7.7149    -3.4112    -3.9779 H       
  53 H53            8.7890     2.9520    -5.3906 H       
  54 H54            8.4426     2.2419    -6.9856 H       
  55 H55            7.1110     2.8557    -5.9765 H       
@<TRIPOS>BOND
   1    1    2 ar
   2    1   33 ar
   3    1   35 1
   4    2    3 ar
   5    2   36 1
   6    3    4 ar
   7    3   32 1
   8    4    5 ar
   9    4    6 1
  10    5   33 ar
  11    5    8 1
  12    6    7 1
  13    6   10 1
  14    6   37 1
  15    7    8 am
  16    7   11 1
  17    8    9 2
  18   10   13 1
  19   11   12 1
  20   11   38 1
  21   11   39 1
  22   12   23 ar
  23   12   27 ar
  24   13   14 1
  25   13   40 1
  26   13   41 1
  27   14   15 2
  28   14   16 am
  29   16   17 1
  30   16   42 1
  31   17   18 ar
  32   17   22 ar
  33   18   19 ar
  34   19   20 ar
  35   19   43 1
  36   20   21 ar
  37   20   44 1
  38   21   22 ar
  39   21   45 1
  40   22   46 1
  41   23   24 ar
  42   23   47 1
  43   24   25 ar
  44   24   48 1
  45   25   26 ar
  46   25   28 1
  47   26   27 ar
  48   26   29 1
  49   27   49 1
  50   28   31 1
  51   29   30 1
  52   30   50 1
  53   30   51 1
  54   30   52 1
  55   31   53 1
  56   31   54 1
  57   31   55 1
  58   33   34 1

#	End of record

