#	Name: ASD06660108
#	Creating user name:	WinNT
#	Creation time:	15. 06. 2019 21:08

#	Modifying user name:	WinNT
#	Modification time:	15. 06. 2019 21:08

#	Program:	/corina/corina34_cracker 3.40 0067  02.08.2006

@<TRIPOS>MOLECULE
ASD06660108
  79   83    0    0    0
SMALL
NO_CHARGES


@<TRIPOS>ATOM
   1 C1            -0.5921     1.5292     1.0853 C.2     
   2 C2            -0.3894     0.0959     0.6663 C.3     
   3 C3            -1.3803    -0.2555    -0.4453 C.3     
   4 O4             0.3136     2.3223     0.9833 O.2     
   5 O5            -1.7806     1.9259     1.5668 O.3     
   6 C6            -1.2772    -1.7248    -0.7642 C.ar    
   7 C7            -2.0368    -2.6391    -0.0576 C.ar    
   8 C8            -1.9446    -3.9863    -0.3473 C.ar    
   9 C9            -1.0877    -4.4225    -1.3498 C.ar    
  10 C10           -0.3261    -3.5013    -2.0577 C.ar    
  11 C11           -0.4273    -2.1551    -1.7666 C.ar    
  12 N12           -0.9918    -5.7843    -1.6451 N.3     
  13 C13           -0.0329    -6.0208    -2.7318 C.3     
  14 C14           -0.0611    -7.4993    -3.1260 C.3     
  15 C15            0.2987    -8.3542    -1.9076 C.3     
  16 C16           -0.6858    -8.0533    -0.7742 C.3     
  17 C17           -0.6395    -6.5587    -0.4482 C.3     
  18 C18            0.2129    -9.8359    -2.2794 C.3     
  19 N19            0.6716   -10.6498    -1.1510 N.pl3   
  20 C20            0.6844   -12.0360    -1.2538 C.ar    
  21 C21            0.2603   -12.6440    -2.4312 C.ar    
  22 C22            0.2783   -14.0241    -2.5197 C.ar    
  23 C23            0.7215   -14.7528    -1.4237 C.ar    
  24 C24            1.1280   -14.0841    -0.2868 C.ar    
  25 N25            1.1052   -12.7657    -0.2323 N.ar    
  26 C26            2.0004    -0.1893     1.0467 C.2     
  27 C27            3.3895    -0.2747     0.5512 C.ar    
  28 C28            4.0053    -1.5211     0.4089 C.ar    
  29 C29            5.2991    -1.6006    -0.0526 C.ar    
  30 C30            5.9974    -0.4350    -0.3790 C.ar    
  31 C31            5.3821     0.8111    -0.2363 C.ar    
  32 C32            4.0857     0.8903     0.2194 C.ar    
  33 O33            1.7785    -0.2176     2.2416 O.2     
  34 N34            0.9792    -0.0800     0.1740 N.am    
  35 O35            8.1619     0.5220    -1.2207 O.3     
  36 C36            7.3865    -0.5204    -0.8744 C.2     
  37 N37            8.0708    -1.6266    -1.0503 N.2     
  38 C38            9.2889    -1.3087    -1.5099 C.2     
  39 C39            9.3520     0.0323    -1.6185 C.2     
  40 C40            3.4194     2.2340     0.3664 C.3     
  41 C41            3.2524    -2.7781     0.7613 C.3     
  42 C42            2.4444    -3.2455    -0.4509 C.3     
  43 H43           -0.5550    -0.5596     1.5213 H       
  44 H44           -2.3933    -0.0257    -0.1150 H       
  45 H45           -1.1479     0.3270    -1.3368 H       
  46 H46           -1.8627     2.8549     1.8225 H       
  47 H47           -2.7025    -2.2993     0.7220 H       
  48 H48           -2.5379    -4.6998     0.2052 H       
  49 H49            0.3411    -3.8372    -2.8377 H       
  50 H50            0.1610    -1.4379    -2.3198 H       
  51 H51           -0.3025    -5.4101    -3.5934 H       
  52 H52            0.9692    -5.7534    -2.3966 H       
  53 H53           -1.0594    -7.7641    -3.4744 H       
  54 H54            0.6620    -7.6776    -3.9219 H       
  55 H55            1.3118    -8.1173    -1.5827 H       
  56 H56           -1.6940    -8.3268    -1.0856 H       
  57 H57           -0.4092    -8.6273     0.1101 H       
  58 H58            0.3654    -6.2888    -0.1237 H       
  59 H59           -1.3498    -6.3387     0.3488 H       
  60 H60           -0.8198   -10.0919    -2.5161 H       
  61 H61            0.8433   -10.0298    -3.1473 H       
  62 H62            0.9664   -10.2214    -0.3322 H       
  63 H63           -0.0787   -12.0465    -3.2645 H       
  64 H64           -0.0454   -14.5238    -3.4208 H       
  65 H65            0.7474   -15.8319    -1.4605 H       
  66 H66            1.4734   -14.6470     0.5678 H       
  67 H67            5.7751    -2.5638    -0.1622 H       
  68 H68            5.9220     1.7119    -0.4879 H       
  69 H69            1.1503    -0.1179    -0.7801 H       
  70 H70           10.0794    -2.0042    -1.7502 H       
  71 H71           10.1991     0.6079    -1.9612 H       
  72 H72            3.6066     2.6248     1.3666 H       
  73 H73            3.8242     2.9232    -0.3747 H       
  74 H74            2.3456     2.1257     0.2137 H       
  75 H75            3.9593    -3.5565     1.0488 H       
  76 H76            2.5767    -2.5760     1.5924 H       
  77 H77            1.8227    -4.0948    -0.1676 H       
  78 H78            1.8097    -2.4312    -0.8004 H       
  79 H79            3.1251    -3.5435    -1.2483 H       
@<TRIPOS>BOND
   1    1    2 1
   2    1    4 2
   3    1    5 1
   4    2    3 1
   5    2   34 1
   6    2   43 1
   7    3    6 1
   8    3   44 1
   9    3   45 1
  10    5   46 1
  11    6    7 ar
  12    6   11 ar
  13    7    8 ar
  14    7   47 1
  15    8    9 ar
  16    8   48 1
  17    9   10 ar
  18    9   12 1
  19   10   11 ar
  20   10   49 1
  21   11   50 1
  22   12   13 1
  23   12   17 1
  24   13   14 1
  25   13   51 1
  26   13   52 1
  27   14   15 1
  28   14   53 1
  29   14   54 1
  30   15   16 1
  31   15   18 1
  32   15   55 1
  33   16   17 1
  34   16   56 1
  35   16   57 1
  36   17   58 1
  37   17   59 1
  38   18   19 1
  39   18   60 1
  40   18   61 1
  41   19   20 1
  42   19   62 1
  43   20   21 ar
  44   20   25 ar
  45   21   22 ar
  46   21   63 1
  47   22   23 ar
  48   22   64 1
  49   23   24 ar
  50   23   65 1
  51   24   25 ar
  52   24   66 1
  53   26   27 1
  54   26   33 2
  55   26   34 am
  56   27   28 ar
  57   27   32 ar
  58   28   29 ar
  59   28   41 1
  60   29   30 ar
  61   29   67 1
  62   30   31 ar
  63   30   36 1
  64   31   32 ar
  65   31   68 1
  66   32   40 1
  67   34   69 1
  68   35   36 1
  69   35   39 1
  70   36   37 2
  71   37   38 1
  72   38   39 2
  73   38   70 1
  74   39   71 1
  75   40   72 1
  76   40   73 1
  77   40   74 1
  78   41   42 1
  79   41   75 1
  80   41   76 1
  81   42   77 1
  82   42   78 1
  83   42   79 1

#	End of record

