#	Name: ASD01903010
#	Creating user name:	WinNT
#	Creation time:	15. 06. 2019 19:54

#	Modifying user name:	WinNT
#	Modification time:	15. 06. 2019 19:54

#	Program:	/corina/corina34_cracker 3.40 0067  02.08.2006

@<TRIPOS>MOLECULE
ASD01903010
  26   27    0    0    0
SMALL
NO_CHARGES


@<TRIPOS>ATOM
   1 C1            -0.0024     1.3866    -0.2247 C.ar    
   2 C2             0.0133     0.0010    -0.2379 C.ar    
   3 C3             1.2046    -0.6809    -0.0312 C.ar    
   4 C4             2.3750     0.0201     0.1879 C.ar    
   5 C5             2.3636     1.4016     0.2023 C.ar    
   6 C6             1.1745     2.0893    -0.0044 C.ar    
   7 N7             1.1628     3.4873     0.0097 N.am    
   8 C8             0.1025     4.1473     0.5163 C.2     
   9 O9            -0.8794     3.5302     0.8831 O.2     
  10 C10            0.1327     5.6150     0.6256 C.2     
  11 O11           -1.1370    -0.6899    -0.4528 O.3     
  12 S12           -1.1650     6.6211     1.2621 S.3     
  13 C13           -0.2277     8.0241     0.9804 C.2     
  14 C14            0.9513     7.6652     0.4485 C.2     
  15 N15            1.1282     6.3822     0.2717 N.2     
  16 C16           -1.0468    -2.1161    -0.4531 C.3     
  17 H17           -0.9275     1.9188    -0.3898 H       
  18 H18            1.2166    -1.7608    -0.0412 H       
  19 H19            3.3005    -0.5129     0.3485 H       
  20 H20            3.2796     1.9471     0.3745 H       
  21 H21            1.9178     3.9823    -0.3451 H       
  22 H22           -0.5355     9.0367     1.1957 H       
  23 H23            1.7077     8.3903     0.1872 H       
  24 H24           -0.3617    -2.4366    -1.2380 H       
  25 H25           -0.6767    -2.4569     0.5138 H       
  26 H26           -2.0333    -2.5425    -0.6355 H       
@<TRIPOS>BOND
   1    1    2 ar
   2    1    6 ar
   3    1   17 1
   4    2    3 ar
   5    2   11 1
   6    3    4 ar
   7    3   18 1
   8    4    5 ar
   9    4   19 1
  10    5    6 ar
  11    5   20 1
  12    6    7 1
  13    7    8 am
  14    7   21 1
  15    8    9 2
  16    8   10 1
  17   10   12 1
  18   10   15 2
  19   11   16 1
  20   12   13 1
  21   13   14 2
  22   13   22 1
  23   14   15 1
  24   14   23 1
  25   16   24 1
  26   16   25 1
  27   16   26 1

#	End of record

