#	Name: ASD00241005
#	Creating user name:	WinNT
#	Creation time:	15. 06. 2019 18:33

#	Modifying user name:	WinNT
#	Modification time:	15. 06. 2019 18:33

#	Program:	/corina/corina34_cracker 3.40 0067  02.08.2006

@<TRIPOS>MOLECULE
ASD00241005
  51   53    0    0    0
SMALL
NO_CHARGES


@<TRIPOS>ATOM
   1 C1             0.1701     1.4185    -0.1180 C.3     
   2 C2             0.4667    -0.0928    -0.2409 C.3     
   3 C3            -0.1084    -0.4770    -1.6223 C.3     
   4 O4            -0.1172     0.7560    -2.3742 O.3     
   5 C5            -0.5491     1.7687    -1.4395 C.3     
   6 C6             0.4867    -2.8054    -2.4171 C.ar    
   7 C7             1.5864    -3.3476    -3.1028 C.ar    
   8 N8            -0.5112    -3.6074    -2.0598 N.ar    
   9 C9            -0.4733    -4.8923    -2.3426 C.ar    
  10 N10            0.5387    -5.4474    -2.9845 N.ar    
  11 C11            1.5808    -4.7251    -3.3821 C.ar    
  12 N12            2.4478    -2.3302    -3.3439 N.2     
  13 C13            1.9585    -1.2249    -2.8615 C.2     
  14 N14            0.7518    -1.4667    -2.2755 N.pl3   
  15 C15           -0.1259     3.1566    -1.9247 C.3     
  16 N16           -0.7955     3.4556    -3.1976 N.3     
  17 C17           -2.2035     3.8136    -2.9803 C.3     
  18 C18           -2.9171     3.8729    -4.3064 C.2     
  19 C19           -3.9970     3.1575    -4.5016 C.2     
  20 C20           -4.7105     3.2167    -5.8276 C.3     
  21 N21           -4.8442     1.8592    -6.3729 N.3     
  22 O22            1.3863     2.1593     0.0018 O.3     
  23 O23           -0.1952    -0.8190     0.7966 O.3     
  24 N24            2.6364    -5.3155    -4.0544 N.pl3   
  25 C25            2.6295     0.1224    -2.9354 C.3     
  26 C26           -0.0890     4.5168    -3.9275 C.3     
  27 H27           -0.4794     1.6120     0.7357 H       
  28 H28            1.5409    -0.2750    -0.2104 H       
  29 H29           -1.1218    -0.8644    -1.5169 H       
  30 H30           -1.6301     1.7257    -1.3061 H       
  31 H31           -1.3006    -5.5162    -2.0379 H       
  32 H32           -0.4078     3.9028    -1.1818 H       
  33 H33            0.9544     3.1774    -2.0687 H       
  34 H34           -2.6758     3.0628    -2.3469 H       
  35 H35           -2.2599     4.7872    -2.4935 H       
  36 H36           -2.5382     4.5052    -5.0957 H       
  37 H37           -4.3758     2.5251    -3.7123 H       
  38 H38           -5.7004     3.6514    -5.6885 H       
  39 H39           -4.1377     3.8322    -6.5213 H       
  40 H40           -5.3198     1.8722    -7.2627 H       
  41 H41           -3.9438     1.4106    -6.4508 H       
  42 H42            1.9082     1.9347     0.7842 H       
  43 H43            0.0849    -0.5734     1.6890 H       
  44 H44            2.6212    -6.2674    -4.2406 H       
  45 H45            3.3915    -4.7776    -4.3396 H       
  46 H46            2.3228     0.6314    -3.8492 H       
  47 H47            2.3395     0.7206    -2.0716 H       
  48 H48            3.7114    -0.0101    -2.9389 H       
  49 H49            0.9572     4.2375    -4.0522 H       
  50 H50           -0.5483     4.6520    -4.9067 H       
  51 H51           -0.1518     5.4484    -3.3650 H       
@<TRIPOS>BOND
   1    1    2 1
   2    1   22 1
   3    1    5 1
   4    1   27 1
   5    2    3 1
   6    2   23 1
   7    2   28 1
   8    3    4 1
   9    3   14 1
  10    3   29 1
  11    4    5 1
  12    5   15 1
  13    5   30 1
  14    6    7 ar
  15    6    8 ar
  16    6   14 1
  17    7   12 1
  18    7   11 ar
  19    8    9 ar
  20    9   10 ar
  21    9   31 1
  22   10   11 ar
  23   11   24 1
  24   12   13 2
  25   13   14 1
  26   13   25 1
  27   15   16 1
  28   15   32 1
  29   15   33 1
  30   16   17 1
  31   16   26 1
  32   17   18 1
  33   17   34 1
  34   17   35 1
  35   18   19 2
  36   18   36 1
  37   19   20 1
  38   19   37 1
  39   20   21 1
  40   20   38 1
  41   20   39 1
  42   21   40 1
  43   21   41 1
  44   22   42 1
  45   23   43 1
  46   24   44 1
  47   24   45 1
  48   25   46 1
  49   25   47 1
  50   25   48 1
  51   26   49 1
  52   26   50 1
  53   26   51 1

#	End of record

