#	Name: ASD00069144
#	Creating user name:	WinNT
#	Creation time:	15. 06. 2019 18:29

#	Modifying user name:	WinNT
#	Modification time:	15. 06. 2019 18:29

#	Program:	/corina/corina34_cracker 3.40 0067  02.08.2006

@<TRIPOS>MOLECULE
ASD00069144
  60   63    0    0    0
SMALL
NO_CHARGES


@<TRIPOS>ATOM
   1 C1            -0.0062     1.2017    -1.1005 C.2     
   2 N2             0.0380    -0.0844    -0.8324 N.2     
   3 C3             1.2712    -0.5405    -1.0847 C.2     
   4 C4             2.0273     0.5082    -1.5293 C.2     
   5 N5             1.2272     1.5976    -1.5388 N.pl3   
   6 C6            -1.1888     2.0704    -0.9585 C.2     
   7 O7            -1.1128     3.2517    -1.2380 O.2     
   8 N8            -2.3543     1.5556    -0.5191 N.am    
   9 C9            -3.4450     2.3995    -0.2755 C.ar    
  10 C10           -4.7363     1.8743    -0.2150 C.ar    
  11 C11           -5.8118     2.7157     0.0265 C.ar    
  12 C12           -5.6027     4.0705     0.2065 C.ar    
  13 C13           -4.3233     4.5908     0.1466 C.ar    
  14 C14           -3.2443     3.7586    -0.0880 C.ar    
  15 N15           -4.9453     0.5033    -0.3980 N.3     
  16 C16           -5.5720    -0.0962     0.7870 C.3     
  17 C17           -5.6522    -1.6143     0.6104 C.3     
  18 C18           -6.4733    -1.9349    -0.6416 C.3     
  19 C19           -5.8264    -1.2589    -1.8536 C.3     
  20 C20           -5.7411     0.2488    -1.6056 C.3     
  21 C21           -6.5061    -3.4492    -0.8576 C.3     
  22 N22           -7.2612    -4.0830     0.2314 N.3     
  23 C23           -8.7066    -3.8952     0.0485 C.3     
  24 C24           -6.9258    -5.5087     0.3444 C.3     
  25 C25            1.3468    -4.2243    -0.3004 C.ar    
  26 C26            0.8697    -2.9283    -0.4478 C.ar    
  27 C27            1.7361    -1.9385    -0.9114 C.ar    
  28 C28            3.0557    -2.2988    -1.2093 C.ar    
  29 C29            3.4504    -3.6073    -1.0360 C.ar    
  30 N30            2.6041    -4.5197    -0.5947 N.ar    
  31 N31            0.4972    -5.2211     0.1661 N.pl3   
  32 H32            3.0673     0.4730    -1.8184 H       
  33 H33            1.4810     2.4946    -1.8070 H       
  34 H34           -2.4376     0.6005    -0.3715 H       
  35 H35           -6.8127     2.3127     0.0736 H       
  36 H36           -6.4415     4.7244     0.3942 H       
  37 H37           -4.1656     5.6498     0.2880 H       
  38 H38           -2.2457     4.1678    -0.1297 H       
  39 H39           -4.9759     0.1357     1.6697 H       
  40 H40           -6.5765     0.3085     0.9107 H       
  41 H41           -4.6471    -2.0215     0.5005 H       
  42 H42           -6.1315    -2.0574     1.4833 H       
  43 H43           -7.4898    -1.5619    -0.5159 H       
  44 H44           -4.8240    -1.6605    -2.0023 H       
  45 H45           -6.4302    -1.4482    -2.7412 H       
  46 H46           -6.7448     0.6520    -1.4707 H       
  47 H47           -5.2679     0.7314    -2.4607 H       
  48 H48           -6.9877    -3.6700    -1.8102 H       
  49 H49           -5.4874    -3.8370    -0.8670 H       
  50 H50           -9.0274    -4.4056    -0.8596 H       
  51 H51           -9.2381    -4.3095     0.9052 H       
  52 H52           -8.9269    -2.8310    -0.0357 H       
  53 H53           -5.8606    -5.6162     0.5490 H       
  54 H54           -7.4988    -5.9534     1.1580 H       
  55 H55           -7.1691    -6.0144    -0.5901 H       
  56 H56           -0.1560    -2.6907    -0.2073 H       
  57 H57            3.7557    -1.5601    -1.5709 H       
  58 H58            4.4672    -3.8909    -1.2643 H       
  59 H59           -0.4234    -5.0097     0.3867 H       
  60 H60            0.8251    -6.1280     0.2711 H       
@<TRIPOS>BOND
   1    1    2 2
   2    1    5 1
   3    1    6 1
   4    2    3 1
   5    3    4 2
   6    3   27 1
   7    4    5 1
   8    4   32 1
   9    5   33 1
  10    6    7 2
  11    6    8 am
  12    8    9 1
  13    8   34 1
  14    9   10 ar
  15    9   14 ar
  16   10   11 ar
  17   10   15 1
  18   11   12 ar
  19   11   35 1
  20   12   13 ar
  21   12   36 1
  22   13   14 ar
  23   13   37 1
  24   14   38 1
  25   15   16 1
  26   15   20 1
  27   16   17 1
  28   16   39 1
  29   16   40 1
  30   17   18 1
  31   17   41 1
  32   17   42 1
  33   18   19 1
  34   18   21 1
  35   18   43 1
  36   19   20 1
  37   19   44 1
  38   19   45 1
  39   20   46 1
  40   20   47 1
  41   21   22 1
  42   21   48 1
  43   21   49 1
  44   22   23 1
  45   22   24 1
  46   23   50 1
  47   23   51 1
  48   23   52 1
  49   24   53 1
  50   24   54 1
  51   24   55 1
  52   25   26 ar
  53   25   30 ar
  54   25   31 1
  55   26   27 ar
  56   26   56 1
  57   27   28 ar
  58   28   29 ar
  59   28   57 1
  60   29   30 ar
  61   29   58 1
  62   31   59 1
  63   31   60 1

#	End of record

