#	Name: ASD02560005
#	Creating user name:	WinNT
#	Creation time:	15. 06. 2019 20:24

#	Modifying user name:	WinNT
#	Modification time:	15. 06. 2019 20:24

#	Program:	/corina/corina34_cracker 3.40 0067  02.08.2006

@<TRIPOS>MOLECULE
ASD02560005
  48   49    0    0    0
SMALL
NO_CHARGES


@<TRIPOS>ATOM
   1 N1             0.3648     1.4579     0.1561 N.am    
   2 C2             0.0998     0.1403     0.0950 C.2     
   3 N3             1.0906    -0.7605    -0.0383 N.am    
   4 C4             2.3998    -0.3469    -0.1149 C.2     
   5 C5             2.6861     0.9899    -0.0547 C.2     
   6 C6             1.6334     1.9065     0.0844 C.2     
   7 O7             1.8649     3.1024     0.1397 O.2     
   8 O8            -1.0524    -0.2424     0.1616 O.2     
   9 C9             4.1122     1.4704    -0.1358 C.3     
  10 C10            4.2718     2.3918    -1.3467 C.3     
  11 S11            3.6965    -1.5272    -0.2882 S.3     
  12 C12            3.6341    -2.3049     1.3450 C.3     
  13 C13            0.7729    -2.1892    -0.1017 C.3     
  14 O14            0.2166    -2.4971    -1.3814 O.3     
  15 C15            1.1811    -2.5631    -2.4338 C.3     
  16 C16            0.4686    -2.8197    -3.7632 C.3     
  17 C17            4.5500    -3.5304     1.3617 C.3     
  18 C18            4.4972    -4.1877     2.7423 C.3     
  19 C19            4.9644    -3.1874     3.8016 C.3     
  20 C20            4.0485    -1.9620     3.7849 C.3     
  21 C21            4.1012    -1.3046     2.4043 C.3     
  22 C22            4.4648     2.2386     1.1396 C.3     
  23 H23           -0.3643     2.0910     0.2485 H       
  24 H24            4.7787     0.6143    -0.2402 H       
  25 H25            5.3033     2.7394    -1.4054 H       
  26 H26            4.0206     1.8446    -2.2553 H       
  27 H27            3.6053     3.2480    -1.2423 H       
  28 H28            2.6112    -2.6127     1.5620 H       
  29 H29            1.6825    -2.7707     0.0486 H       
  30 H30            0.0512    -2.4358     0.6771 H       
  31 H31            1.7241    -1.6196    -2.4887 H       
  32 H32            1.8815    -3.3743    -2.2344 H       
  33 H33           -0.2317    -2.0086    -3.9626 H       
  34 H34            1.2043    -2.8700    -4.5659 H       
  35 H35           -0.0743    -3.7633    -3.7083 H       
  36 H36            4.2172    -4.2430     0.6071 H       
  37 H37            5.5728    -3.2225     1.1447 H       
  38 H38            3.4744    -4.4956     2.9593 H       
  39 H39            5.1497    -5.0608     2.7542 H       
  40 H40            4.9268    -3.6557     4.7852 H       
  41 H41            5.9872    -2.8796     3.5846 H       
  42 H42            3.0256    -2.2698     4.0019 H       
  43 H43            4.3813    -1.2493     4.5396 H       
  44 H44            5.1241    -0.9968     2.1873 H       
  45 H45            3.4488    -0.4316     2.3924 H       
  46 H46            4.3510     1.5822     2.0023 H       
  47 H47            5.4962     2.5862     1.0809 H       
  48 H48            3.7982     3.0948     1.2440 H       
@<TRIPOS>BOND
   1    1    2 am
   2    1    6 am
   3    1   23 1
   4    2    3 am
   5    2    8 2
   6    3    4 1
   7    3   13 1
   8    4    5 2
   9    4   11 1
  10    5    6 1
  11    5    9 1
  12    6    7 2
  13    9   10 1
  14    9   22 1
  15    9   24 1
  16   10   25 1
  17   10   26 1
  18   10   27 1
  19   11   12 1
  20   12   17 1
  21   12   21 1
  22   12   28 1
  23   13   14 1
  24   13   29 1
  25   13   30 1
  26   14   15 1
  27   15   16 1
  28   15   31 1
  29   15   32 1
  30   16   33 1
  31   16   34 1
  32   16   35 1
  33   17   18 1
  34   17   36 1
  35   17   37 1
  36   18   19 1
  37   18   38 1
  38   18   39 1
  39   19   20 1
  40   19   40 1
  41   19   41 1
  42   20   21 1
  43   20   42 1
  44   20   43 1
  45   21   44 1
  46   21   45 1
  47   22   46 1
  48   22   47 1
  49   22   48 1

#	End of record

