#	Name: ASD01120032
#	Creating user name:	WinNT
#	Creation time:	15. 06. 2019 18:58

#	Modifying user name:	WinNT
#	Modification time:	15. 06. 2019 18:58

#	Program:	/corina/corina34_cracker 3.40 0067  02.08.2006

@<TRIPOS>MOLECULE
ASD01120032
  51   54    0    0    0
SMALL
NO_CHARGES


@<TRIPOS>ATOM
   1 C1            -0.0901     1.3500     0.6471 C.ar    
   2 C2            -0.0520    -0.0391     0.4627 C.ar    
   3 C3            -1.1845    -0.7311     0.0943 C.ar    
   4 C4            -2.3852    -0.0371    -0.0974 C.ar    
   5 C5            -2.4160     1.3670     0.0908 C.ar    
   6 C6            -1.2521     2.0460     0.4703 C.ar    
   7 N7            -3.5162    -0.6644    -0.4569 N.ar    
   8 C8            -4.6262     0.0128    -0.6296 C.ar    
   9 N9            -4.7024     1.3239    -0.4653 N.ar    
  10 C10           -3.6441     2.0409    -0.1108 C.ar    
  11 N11           -3.7382     3.4079     0.0575 N.pl3   
  12 C12           -4.9823     4.0392    -0.0323 C.ar    
  13 O13            1.0410     2.0112     1.0113 O.3     
  14 O14            1.1146    -0.7099     0.6490 O.3     
  15 C15           -6.1275     3.3762     0.3809 C.ar    
  16 C16           -7.3663     4.0104     0.2892 C.ar    
  17 C17           -7.4447     5.3086    -0.2180 C.ar    
  18 C18           -6.2987     5.9604    -0.6267 C.ar    
  19 C19           -5.0704     5.3342    -0.5306 C.ar    
  20 C20           -8.5923     3.3099     0.7272 C.2     
  21 C21            0.9384     3.4260     1.1837 C.3     
  22 C22            2.3011     3.9905     1.5902 C.3     
  23 C23            1.0892    -2.1242     0.4460 C.3     
  24 C24            2.4834    -2.7009     0.7000 C.3     
  25 C25           -9.8584     3.7992     0.6968 C.2     
  26 N26          -10.6706     2.8476     1.1805 N.2     
  27 C27           -9.9560     1.8058     1.5022 C.2     
  28 O28           -8.6686     2.0578     1.2291 O.3     
  29 C29          -10.4922     0.5227     2.0828 C.3     
  30 H30           -1.1464    -1.8013    -0.0459 H       
  31 H31           -1.2709     3.1162     0.6149 H       
  32 H32           -5.5178    -0.5234    -0.9192 H       
  33 H33           -2.9411     3.9304     0.2380 H       
  34 H34           -6.0607     2.3717     0.7721 H       
  35 H35           -8.4022     5.8029    -0.2908 H       
  36 H36           -6.3616     6.9647    -1.0188 H       
  37 H37           -4.1772     5.8492    -0.8520 H       
  38 H38            0.6201     3.8840     0.2472 H       
  39 H39            0.2075     3.6452     1.9621 H       
  40 H40            2.2228     5.0697     1.7217 H       
  41 H41            2.6194     3.5325     2.5267 H       
  42 H42            3.0320     3.7714     0.8118 H       
  43 H43            0.3773    -2.5776     1.1357 H       
  44 H44            0.7886    -2.3387    -0.5795 H       
  45 H45            3.1953    -2.2475     0.0103 H       
  46 H46            2.7841    -2.4864     1.7255 H       
  47 H47            2.4641    -3.7797     0.5451 H       
  48 H48          -10.1571     4.7763     0.3469 H       
  49 H49          -10.7445    -0.1642     1.2749 H       
  50 H50           -9.7351     0.0689     2.7223 H       
  51 H51          -11.3849     0.7352     2.6711 H       
@<TRIPOS>BOND
   1    1    2 ar
   2    1   13 1
   3    1    6 ar
   4    2    3 ar
   5    2   14 1
   6    3    4 ar
   7    3   30 1
   8    4    5 ar
   9    4    7 ar
  10    5    6 ar
  11    5   10 ar
  12    6   31 1
  13    7    8 ar
  14    8    9 ar
  15    8   32 1
  16    9   10 ar
  17   10   11 1
  18   11   12 1
  19   11   33 1
  20   12   15 ar
  21   12   19 ar
  22   13   21 1
  23   14   23 1
  24   15   16 ar
  25   15   34 1
  26   16   17 ar
  27   16   20 1
  28   17   18 ar
  29   17   35 1
  30   18   19 ar
  31   18   36 1
  32   19   37 1
  33   20   25 2
  34   20   28 1
  35   21   22 1
  36   21   38 1
  37   21   39 1
  38   22   40 1
  39   22   41 1
  40   22   42 1
  41   23   24 1
  42   23   43 1
  43   23   44 1
  44   24   45 1
  45   24   46 1
  46   24   47 1
  47   25   26 1
  48   25   48 1
  49   26   27 2
  50   27   28 1
  51   27   29 1
  52   29   49 1
  53   29   50 1
  54   29   51 1

#	End of record

