#	Name: ASD01908012
#	Creating user name:	WinNT
#	Creation time:	15. 06. 2019 19:54

#	Modifying user name:	WinNT
#	Modification time:	15. 06. 2019 19:54

#	Program:	/corina/corina34_cracker 3.40 0067  02.08.2006

@<TRIPOS>MOLECULE
ASD01908012
  36   37    0    0    0
SMALL
NO_CHARGES


@<TRIPOS>ATOM
   1 C1            -0.0184     1.5028     0.0103 C.2     
   2 C2             0.0021    -0.0041     0.0020 C.3     
   3 S3            -1.6960    -0.6306     0.0149 S.3     
   4 C4            -1.3740    -2.4116     0.0022 C.1     
   5 N5            -1.1719    -3.5295    -0.0057 N.1     
   6 N6             3.3827     2.7438    -0.0142 N.pl3   
   7 N7             2.6561     3.9393    -0.0014 N.2     
   8 C8             1.3823     3.6619     0.0085 C.2     
   9 C9             1.2417     2.2533     0.0023 C.2     
  10 C10            2.5185     1.7180    -0.0119 C.2     
  11 C11            0.2572     4.6644     0.0239 C.3     
  12 C12            4.8433     2.6312    -0.0334 C.3     
  13 C13            5.3918     3.4090    -1.2018 C.ar    
  14 C14            5.7273     4.7414    -1.0475 C.ar    
  15 C15            6.2303     5.4566    -2.1170 C.ar    
  16 C16            6.3987     4.8368    -3.3467 C.ar    
  17 C17            6.0613     3.4997    -3.4990 C.ar    
  18 C18            5.5640     2.7874    -2.4248 C.ar    
  19 O19            6.8929     5.5383    -4.4005 O.3     
  20 C20            7.0395     4.8357    -5.6362 C.3     
  21 O21           -1.0771     2.0950     0.0185 O.2     
  22 H22            0.5123    -0.3556    -0.8948 H       
  23 H23            0.5293    -0.3651     0.8851 H       
  24 H24            2.7719     0.6682    -0.0201 H       
  25 H25           -0.0235     4.9113    -1.0000 H       
  26 H26           -0.6014     4.2391     0.5436 H       
  27 H27            0.5828     5.5680     0.5393 H       
  28 H28            5.2509     3.0332     0.8942 H       
  29 H29            5.1256     1.5828    -0.1301 H       
  30 H30            5.5957     5.2235    -0.0901 H       
  31 H31            6.4919     6.4974    -1.9961 H       
  32 H32            6.1914     3.0150    -4.4553 H       
  33 H33            5.3056     1.7453    -2.5416 H       
  34 H34            7.4425     5.5098    -6.3919 H       
  35 H35            7.7205     3.9959    -5.4981 H       
  36 H36            6.0672     4.4652    -5.9611 H       
@<TRIPOS>BOND
   1    1    2 1
   2    1    9 1
   3    1   21 2
   4    2    3 1
   5    2   22 1
   6    2   23 1
   7    3    4 1
   8    4    5 3
   9    6    7 1
  10    6   10 1
  11    6   12 1
  12    7    8 2
  13    8    9 1
  14    8   11 1
  15    9   10 2
  16   10   24 1
  17   11   25 1
  18   11   26 1
  19   11   27 1
  20   12   13 1
  21   12   28 1
  22   12   29 1
  23   13   14 ar
  24   13   18 ar
  25   14   15 ar
  26   14   30 1
  27   15   16 ar
  28   15   31 1
  29   16   17 ar
  30   16   19 1
  31   17   18 ar
  32   17   32 1
  33   18   33 1
  34   19   20 1
  35   20   34 1
  36   20   35 1
  37   20   36 1

#	End of record

