#	Name: ASD05430138
#	Creating user name:	WinNT
#	Creation time:	15. 06. 2019 20:59

#	Modifying user name:	WinNT
#	Modification time:	15. 06. 2019 20:59

#	Program:	/corina/corina34_cracker 3.40 0067  02.08.2006

@<TRIPOS>MOLECULE
ASD05430138
  66   72    0    0    0
SMALL
NO_CHARGES


@<TRIPOS>ATOM
   1 C1             0.1868     1.1576    -1.0654 C.ar    
   2 C2             0.0190    -0.0152    -0.3189 C.ar    
   3 C3             1.0349    -0.4751     0.5061 C.ar    
   4 C4             2.2231     0.2155     0.6026 C.ar    
   5 C5             2.4023     1.3912    -0.1357 C.ar    
   6 C6             1.3785     1.8531    -0.9609 C.ar    
   7 C7             4.8893    -0.0288    -0.1179 C.3     
   8 C8             4.8360     1.4745     0.0369 C.2     
   9 C9             3.6675     2.1378    -0.0400 C.2     
  10 C10            6.2997    -0.4670    -0.4986 C.3     
  11 C11            7.0962     0.5743    -1.2824 C.3     
  12 N12            7.2022     1.7930    -0.4800 N.pl3   
  13 C13            6.1009     2.1918     0.2749 C.2     
  14 C14            8.2689     3.7634    -1.4149 C.ar    
  15 C15            9.3424     4.1550    -2.1929 C.ar    
  16 C16            9.2081     5.2092    -3.0764 C.ar    
  17 C17            7.9977     5.8732    -3.1822 C.ar    
  18 C18            6.9232     5.4800    -2.4025 C.ar    
  19 C19            7.0599     4.4256    -1.5197 C.ar    
  20 N20           -1.1834    -0.7287    -0.4056 N.pl3   
  21 N21           -2.3027    -0.4009    -1.1881 N.2     
  22 C22           -3.1990    -1.3286    -0.9733 C.2     
  23 N23           -2.7083    -2.2135    -0.1062 N.2     
  24 C24           -1.4943    -1.8694     0.2407 C.2     
  25 C25           -4.5664    -1.3869    -1.6039 C.3     
  26 N26            6.2053     3.1362     1.1514 N.2     
  27 C27           -0.2603     3.1332    -2.1176 C.3     
  28 O28           -0.6654     1.7654    -1.9370 O.3     
  29 C29            8.4148     2.6097    -0.4563 C.3     
  30 C30            8.6089     3.1426     0.9676 C.3     
  31 O31            7.4237     3.7940     1.4123 O.3     
  32 F32            7.8654     6.9041    -4.0452 F       
  33 C33            7.0860    -1.0743     0.6749 C.3     
  34 O34            7.4993    -2.0795    -0.2732 O.3     
  35 C35            6.3540    -1.8700    -1.1246 C.3     
  36 C36            1.2629     3.0744    -1.8522 C.3     
  37 C37            8.9300     1.9775     1.9059 C.3     
  38 O38            9.2257     2.4832     3.2094 O.3     
  39 H39            0.8933    -1.3808     1.0772 H       
  40 H40            3.0118    -0.1480     1.2445 H       
  41 H41            4.6065    -0.4994     0.8237 H       
  42 H42            4.1924    -0.3368    -0.8974 H       
  43 H43            3.6580     3.2177    -0.0315 H       
  44 H44            8.0935     0.1881    -1.4931 H       
  45 H45            6.5839     0.7970    -2.2184 H       
  46 H46           10.2865     3.6371    -2.1099 H       
  47 H47           10.0471     5.5151    -3.6838 H       
  48 H48            5.9786     5.9972    -2.4841 H       
  49 H49            6.2219     4.1188    -0.9114 H       
  50 H50           -0.8558    -2.4027     0.9294 H       
  51 H51           -4.5134    -1.9512    -2.5349 H       
  52 H52           -5.2607    -1.8768    -0.9212 H       
  53 H53           -4.9142    -0.3750    -1.8116 H       
  54 H54           -0.4623     3.4648    -3.1361 H       
  55 H55           -0.7543     3.7814    -1.3938 H       
  56 H56            9.2732     2.0012    -0.7410 H       
  57 H57            9.4367     3.8516     0.9785 H       
  58 H58            7.9002    -0.4445     1.0335 H       
  59 H59            6.4554    -1.4573     1.4774 H       
  60 H60            5.4984    -2.4977    -0.8756 H       
  61 H61            6.5896    -1.8695    -2.1889 H       
  62 H62            1.6021     3.9700    -1.3316 H       
  63 H63            1.8156     2.9325    -2.7809 H       
  64 H64            8.0711     1.3088     1.9619 H       
  65 H65            9.7921     1.4306     1.5242 H       
  66 H66            9.4391     1.7984     3.8578 H       
@<TRIPOS>BOND
   1    1    2 ar
   2    1    6 ar
   3    1   28 1
   4    2    3 ar
   5    2   20 1
   6    3    4 ar
   7    3   39 1
   8    4    5 ar
   9    4   40 1
  10    5    6 ar
  11    5    9 1
  12    6   36 1
  13    7    8 1
  14    7   10 1
  15    7   41 1
  16    7   42 1
  17    8    9 2
  18    8   13 1
  19    9   43 1
  20   10   11 1
  21   10   33 1
  22   10   35 1
  23   11   12 1
  24   11   44 1
  25   11   45 1
  26   12   13 1
  27   12   29 1
  28   13   26 2
  29   14   15 ar
  30   14   19 ar
  31   14   29 1
  32   15   16 ar
  33   15   46 1
  34   16   17 ar
  35   16   47 1
  36   17   18 ar
  37   17   32 1
  38   18   19 ar
  39   18   48 1
  40   19   49 1
  41   20   21 1
  42   20   24 1
  43   21   22 2
  44   22   23 1
  45   22   25 1
  46   23   24 2
  47   24   50 1
  48   25   51 1
  49   25   52 1
  50   25   53 1
  51   26   31 1
  52   27   28 1
  53   27   36 1
  54   27   54 1
  55   27   55 1
  56   29   30 1
  57   29   56 1
  58   30   31 1
  59   30   37 1
  60   30   57 1
  61   33   34 1
  62   33   58 1
  63   33   59 1
  64   34   35 1
  65   35   60 1
  66   35   61 1
  67   36   62 1
  68   36   63 1
  69   37   38 1
  70   37   64 1
  71   37   65 1
  72   38   66 1

#	End of record

