#	Name: ASD03090718
#	Creating user name:	WinNT
#	Creation time:	15. 06. 2019 20:29

#	Modifying user name:	WinNT
#	Modification time:	15. 06. 2019 20:29

#	Program:	/corina/corina34_cracker 3.40 0067  02.08.2006

@<TRIPOS>MOLECULE
ASD03090718
  41   42    0    0    0
SMALL
NO_CHARGES


@<TRIPOS>ATOM
   1 N1            -0.0162     1.3436     0.0094 N.am    
   2 C2             0.1023     0.0010     0.0185 C.2     
   3 O3             1.2004    -0.5130    -0.0738 O.2     
   4 N4            -0.9963    -0.7717     0.1298 N.am    
   5 O5            -1.4203    -4.1668     0.2178 O.3     
   6 N6            -1.8417    -3.0337     0.2396 N.2     
   7 C7            -0.8736    -2.1610     0.1392 C.2     
   8 C8             0.3282    -2.9116     0.0410 C.2     
   9 C9            -0.0852    -4.1981     0.0971 C.2     
  10 C10            0.7848    -5.4270     0.0355 C.3     
  11 C11            0.6064    -6.2430     1.3174 C.3     
  12 C12            0.3815    -6.2774    -1.1707 C.3     
  13 C13            1.1326     2.1493    -0.0210 C.ar    
  14 C14            1.0902     3.4434     0.4926 C.ar    
  15 C15            2.2253     4.2361     0.4618 C.ar    
  16 C16            3.4020     3.7406    -0.0801 C.ar    
  17 C17            3.4429     2.4514    -0.5914 C.ar    
  18 C18            2.3123     1.6558    -0.5571 C.ar    
  19 O19            4.5165     4.5192    -0.1108 O.3     
  20 C20            4.4030     5.8361     0.4323 C.3     
  21 O21           -0.0643     3.9279     1.0232 O.3     
  22 C22           -0.0347     5.2632     1.5313 C.3     
  23 Br23           5.0485     1.7790    -1.3301 Br      
  24 H24           -0.8955     1.7529     0.0199 H       
  25 H25           -1.8723    -0.3617     0.2034 H       
  26 H26            1.3379    -2.5410    -0.0565 H       
  27 H27            1.8286    -5.1286    -0.0630 H       
  28 H28           -0.4373    -6.5413     1.4158 H       
  29 H29            1.2357    -7.1319     1.2728 H       
  30 H30            0.8937    -5.6371     2.1767 H       
  31 H31            0.5087    -5.6961    -2.0840 H       
  32 H32            1.0108    -7.1663    -1.2153 H       
  33 H33           -0.6622    -6.5758    -1.0723 H       
  34 H34            2.1943     5.2399     0.8592 H       
  35 H35            2.3470     0.6511    -0.9518 H       
  36 H36            4.1189     5.7727     1.4827 H       
  37 H37            5.3610     6.3488     0.3454 H       
  38 H38            3.6427     6.3914    -0.1170 H       
  39 H39            0.7056     5.3322     2.3284 H       
  40 H40            0.2304     5.9515     0.7288 H       
  41 H41           -1.0172     5.5243     1.9243 H       
@<TRIPOS>BOND
   1    1    2 am
   2    1   13 1
   3    1   24 1
   4    2    3 2
   5    2    4 am
   6    4    7 1
   7    4   25 1
   8    5    6 1
   9    5    9 1
  10    6    7 2
  11    7    8 1
  12    8    9 2
  13    8   26 1
  14    9   10 1
  15   10   11 1
  16   10   12 1
  17   10   27 1
  18   11   28 1
  19   11   29 1
  20   11   30 1
  21   12   31 1
  22   12   32 1
  23   12   33 1
  24   13   14 ar
  25   13   18 ar
  26   14   15 ar
  27   14   21 1
  28   15   16 ar
  29   15   34 1
  30   16   17 ar
  31   16   19 1
  32   17   18 ar
  33   17   23 1
  34   18   35 1
  35   19   20 1
  36   20   36 1
  37   20   37 1
  38   20   38 1
  39   21   22 1
  40   22   39 1
  41   22   40 1
  42   22   41 1

#	End of record

