#	Name: ASD01042004
#	Creating user name:	WinNT
#	Creation time:	15. 06. 2019 18:58

#	Modifying user name:	WinNT
#	Modification time:	15. 06. 2019 18:58

#	Program:	/corina/corina34_cracker 3.40 0067  02.08.2006

@<TRIPOS>MOLECULE
ASD01042004
  85   88    0    0    0
SMALL
NO_CHARGES


@<TRIPOS>ATOM
   1 C1             1.4526     3.5419    -1.8995 C.3     
   2 C2             1.0817     2.1150    -2.3033 C.3     
   3 C3             1.3626     1.2107    -1.1053 C.3     
   4 C4             2.7137     1.4210    -0.4750 C.2     
   5 C5             3.4407     2.4956    -0.7587 C.2     
   6 C6             2.9741     3.5429    -1.7269 C.3     
   7 C7             3.2132     0.4327     0.5022 C.2     
   8 C8             4.5129     0.3796     0.7918 C.2     
   9 C9             5.4157     1.3269     0.0555 C.3     
  10 C10            4.7737     2.6920    -0.0313 C.3     
  11 C11            6.8974     1.2856     0.2850 C.3     
  12 C12            7.4951     2.6345     0.6375 C.3     
  13 C13            7.1098     3.6989    -0.3696 C.3     
  14 C14            5.6380     3.7138    -0.7338 C.3     
  15 C15            7.4872     0.4393     1.4186 C.3     
  16 C16            8.9667     0.8300     1.2981 C.3     
  17 C17            8.9925     2.2368     0.6965 C.3     
  18 C18            9.7245     3.1962     1.6433 C.3     
  19 C19           11.1853     2.8301     1.6987 C.2     
  20 C20           11.7405     2.4859     2.8557 C.2     
  21 C21           13.1666     2.1285     2.9098 C.2     
  22 C22           13.7218     1.7843     4.0668 C.2     
  23 C23           12.8908     1.7601     5.3237 C.3     
  24 C24           15.1826     1.4182     4.1222 C.3     
  25 C25            9.5772     4.6301     1.1304 C.3     
  26 C26            7.1906     3.1038     2.0632 C.3     
  27 O27           -0.3065     2.0500    -2.6477 O.3     
  28 C28            0.2798     1.4243    -0.0464 C.3     
  29 C29            7.5371     0.7714    -1.0401 C.3     
  30 C30            1.2815    -0.2451    -1.5864 C.3     
  31 C31            4.3346     3.2021     1.3424 C.3     
  32 O32            3.5731     4.4009     1.1843 O.3     
  33 C33            3.4738     5.1875     2.3732 C.3     
  34 O34            3.5324     2.2095     1.9851 O.3     
  35 C35            3.4026     2.3914     3.3965 C.3     
  36 H36            1.1730     4.2411    -2.6938 H       
  37 H37            0.9689     3.8327    -0.9714 H       
  38 H38            1.6842     1.8013    -3.1589 H       
  39 H39            3.4313     3.3623    -2.6970 H       
  40 H40            3.2804     4.5266    -1.3720 H       
  41 H41            2.5334    -0.2484     0.9889 H       
  42 H42            4.8900    -0.3111     1.5172 H       
  43 H43            5.3174     0.9441    -1.0114 H       
  44 H44            7.3852     4.6886     0.0356 H       
  45 H45            7.7087     3.5717    -1.2858 H       
  46 H46            5.5460     3.5714    -1.8247 H       
  47 H47            5.2367     4.7214    -0.5300 H       
  48 H48            7.0709     0.6491     2.3911 H       
  49 H49            7.3666    -0.6297     1.1903 H       
  50 H50            9.4200     0.8497     2.2960 H       
  51 H51            9.5074     0.1247     0.6719 H       
  52 H52            9.4459     2.2622    -0.2824 H       
  53 H53            9.2930     3.1213     2.6414 H       
  54 H54           11.7809     2.8475     0.7979 H       
  55 H55           11.1449     2.4686     3.7565 H       
  56 H56           13.7622     2.1459     2.0090 H       
  57 H57           12.4506     0.7708     5.4492 H       
  58 H58           13.5231     1.9880     6.1818 H       
  59 H59           12.0975     2.5039     5.2491 H       
  60 H60           15.6141     1.4932     3.1240 H       
  61 H61           15.7028     2.1000     4.7950 H       
  62 H62           15.2876     0.3967     4.4876 H       
  63 H63            8.5512     4.9661     1.2804 H       
  64 H64           10.2571     5.2833     1.6774 H       
  65 H65            9.8184     4.6626     0.0679 H       
  66 H66            7.9882     2.7784     2.7310 H       
  67 H67            7.1230     4.1916     2.0810 H       
  68 H68            6.2438     2.6755     2.3922 H       
  69 H69           -0.5563     2.6244    -3.3843 H       
  70 H70           -0.6947     1.1788    -0.4686 H       
  71 H71            0.4774     0.7802     0.8103 H       
  72 H72            0.2850     2.4663     0.2735 H       
  73 H73            7.2983     1.4605    -1.8502 H       
  74 H74            8.6190     0.7108    -0.9216 H       
  75 H75            7.1414    -0.2167    -1.2751 H       
  76 H76            2.0232    -0.4114    -2.3677 H       
  77 H77            1.4784    -0.9157    -0.7500 H       
  78 H78            0.2855    -0.4417    -1.9831 H       
  79 H79            5.2146     3.4084     1.9517 H       
  80 H80            2.7485     4.7345     3.0490 H       
  81 H81            4.4471     5.2322     2.8617 H       
  82 H82            3.1499     6.1959     2.1156 H       
  83 H83            2.9813     1.4901     3.8418 H       
  84 H84            4.3838     2.5860     3.8295 H       
  85 H85            2.7438     3.2368     3.5948 H       
@<TRIPOS>BOND
   1    1    2 1
   2    1    6 1
   3    1   36 1
   4    1   37 1
   5    2    3 1
   6    2   27 1
   7    2   38 1
   8    3    4 1
   9    3   28 1
  10    3   30 1
  11    4    5 2
  12    4    7 1
  13    5    6 1
  14    5   10 1
  15    6   39 1
  16    6   40 1
  17    7    8 2
  18    7   41 1
  19    8    9 1
  20    8   42 1
  21    9   10 1
  22    9   11 1
  23    9   43 1
  24   10   31 1
  25   10   14 1
  26   11   12 1
  27   11   15 1
  28   11   29 1
  29   12   13 1
  30   12   26 1
  31   12   17 1
  32   13   14 1
  33   13   44 1
  34   13   45 1
  35   14   46 1
  36   14   47 1
  37   15   16 1
  38   15   48 1
  39   15   49 1
  40   16   17 1
  41   16   50 1
  42   16   51 1
  43   17   18 1
  44   17   52 1
  45   18   19 1
  46   18   25 1
  47   18   53 1
  48   19   20 2
  49   19   54 1
  50   20   21 1
  51   20   55 1
  52   21   22 2
  53   21   56 1
  54   22   23 1
  55   22   24 1
  56   23   57 1
  57   23   58 1
  58   23   59 1
  59   24   60 1
  60   24   61 1
  61   24   62 1
  62   25   63 1
  63   25   64 1
  64   25   65 1
  65   26   66 1
  66   26   67 1
  67   26   68 1
  68   27   69 1
  69   28   70 1
  70   28   71 1
  71   28   72 1
  72   29   73 1
  73   29   74 1
  74   29   75 1
  75   30   76 1
  76   30   77 1
  77   30   78 1
  78   31   32 1
  79   31   34 1
  80   31   79 1
  81   32   33 1
  82   33   80 1
  83   33   81 1
  84   33   82 1
  85   34   35 1
  86   35   83 1
  87   35   84 1
  88   35   85 1

#	End of record

