#	Name: ASD01910248
#	Creating user name:	WinNT
#	Creation time:	15. 06. 2019 19:55

#	Modifying user name:	WinNT
#	Modification time:	15. 06. 2019 19:55

#	Program:	/corina/corina34_cracker 3.40 0067  02.08.2006

@<TRIPOS>MOLECULE
ASD01910248
  48   52    0    0    0
SMALL
NO_CHARGES


@<TRIPOS>ATOM
   1 C1             0.4628     0.9643    -0.1541 C.2     
   2 C2             1.5518     2.0044    -0.0960 C.3     
   3 C3             1.4872     2.8821    -1.3480 C.3     
   4 C4             2.6131     3.9178    -1.3056 C.3     
   5 C5             2.4309     4.8142    -0.0767 C.3     
   6 N6             2.3465     3.9653     1.1195 N.am    
   7 C7             1.3576     2.8791     1.1466 C.3     
   8 C8             3.1608     4.1790     2.1720 C.2     
   9 C9             2.9787     3.4041     3.4156 C.ar    
  10 O10            4.0452     5.0099     2.0975 O.2     
  11 N11            0.6271    -0.3351    -0.1491 N.2     
  12 C12           -0.6180    -0.8589    -0.2131 C.2     
  13 N13           -1.4569     0.1436    -0.2528 N.2     
  14 O14           -0.8525     1.1945    -0.2147 O.3     
  15 C15           -0.9670    -2.3009    -0.2350 C.ar    
  16 C16           -2.3017    -2.6959    -0.3030 C.ar    
  17 C17           -2.6217    -4.0376    -0.3236 C.ar    
  18 C18           -1.6182    -4.9921    -0.2768 C.ar    
  19 C19           -0.2898    -4.6037    -0.2091 C.ar    
  20 C20            0.0393    -3.2641    -0.1934 C.ar    
  21 F21           -1.9360    -6.3050    -0.2968 F       
  22 C22            4.0961     2.9103     4.1029 C.ar    
  23 C23            3.9443     2.1931     5.2526 C.ar    
  24 C24            2.6712     1.9411     5.7595 C.ar    
  25 C25            1.5400     2.4321     5.0779 C.ar    
  26 C26            1.6980     3.1694     3.9075 C.ar    
  27 N27            2.2151     1.2670     6.8665 N.pl3   
  28 C28            0.8479     1.3123     6.9112 C.2     
  29 C29            0.3776     2.0010     5.8599 C.2     
  30 H30            2.5229     1.5119    -0.0466 H       
  31 H31            1.6006     2.2586    -2.2348 H       
  32 H32            0.5250     3.3930    -1.3841 H       
  33 H33            3.5745     3.4078    -1.2445 H       
  34 H34            2.5808     4.5274    -2.2086 H       
  35 H35            3.2825     5.4886     0.0131 H       
  36 H36            1.5130     5.3930    -0.1796 H       
  37 H37            0.3522     3.3001     1.1435 H       
  38 H38            1.5009     2.2767     2.0436 H       
  39 H39           -3.0844    -1.9526    -0.3392 H       
  40 H40           -3.6558    -4.3446    -0.3760 H       
  41 H41            0.4892    -5.3508    -0.1728 H       
  42 H42            1.0749    -2.9622    -0.1406 H       
  43 H43            5.0872     3.0996     3.7178 H       
  44 H44            4.8141     1.8186     5.7719 H       
  45 H45            0.8342     3.5481     3.3811 H       
  46 H46            2.7789     0.8239     7.5197 H       
  47 H47            0.2377     0.8604     7.6792 H       
  48 H48           -0.6594     2.2000     5.6335 H       
@<TRIPOS>BOND
   1    1   11 2
   2    1    2 1
   3    1   14 1
   4    2    3 1
   5    2    7 1
   6    2   30 1
   7    3    4 1
   8    3   31 1
   9    3   32 1
  10    4    5 1
  11    4   33 1
  12    4   34 1
  13    5    6 1
  14    5   35 1
  15    5   36 1
  16    6    7 1
  17    6    8 am
  18    7   37 1
  19    7   38 1
  20    8    9 1
  21    8   10 2
  22    9   22 ar
  23    9   26 ar
  24   11   12 1
  25   12   13 2
  26   12   15 1
  27   13   14 1
  28   15   16 ar
  29   15   20 ar
  30   16   17 ar
  31   16   39 1
  32   17   18 ar
  33   17   40 1
  34   18   19 ar
  35   18   21 1
  36   19   20 ar
  37   19   41 1
  38   20   42 1
  39   22   23 ar
  40   22   43 1
  41   23   24 ar
  42   23   44 1
  43   24   25 ar
  44   24   27 1
  45   25   26 ar
  46   25   29 1
  47   26   45 1
  48   27   28 1
  49   27   46 1
  50   28   29 2
  51   28   47 1
  52   29   48 1

#	End of record

