#	Name: ASD01410299
#	Creating user name:	WinNT
#	Creation time:	15. 06. 2019 19:17

#	Modifying user name:	WinNT
#	Modification time:	15. 06. 2019 19:17

#	Program:	/corina/corina34_cracker 3.40 0067  02.08.2006

@<TRIPOS>MOLECULE
ASD01410299
  57   61    0    0    0
SMALL
NO_CHARGES


@<TRIPOS>ATOM
   1 O1            -0.0397     1.8171    -0.4322 O.3     
   2 C2            -0.1718     0.4834    -0.4144 C.2     
   3 C3             1.0504    -0.0666    -0.1778 C.2     
   4 C4             1.9770     1.0652    -0.0466 C.2     
   5 C5             1.2356     2.1724    -0.2142 C.2     
   6 N6             2.3276    -2.1593    -0.8206 N.pl3   
   7 C7             1.3774    -1.5047    -0.0743 C.2     
   8 C8             0.7863    -2.3854     0.7736 C.2     
   9 C9             1.3790    -3.6533     0.5642 C.ar    
  10 C10            2.3490    -3.4884    -0.4458 C.ar    
  11 C11            1.1766    -4.9156     1.1414 C.ar    
  12 C12            1.9157    -5.9803     0.7270 C.ar    
  13 C13            2.8833    -5.8258    -0.2775 C.ar    
  14 C14            3.0969    -4.5773    -0.8617 C.ar    
  15 C15           -1.5438    -2.9095     1.4407 C.3     
  16 C16           -2.6533    -2.5882     2.4440 C.3     
  17 C17           -2.1704    -2.9115     3.8593 C.3     
  18 C18           -0.9331    -2.0708     4.1805 C.3     
  19 C19            0.1764    -2.3922     3.1772 C.3     
  20 C20           -0.3065    -2.0688     1.7619 C.3     
  21 C21            2.5508    -1.7623    -3.2042 C.ar    
  22 C22            2.8794    -2.8784    -3.9486 C.ar    
  23 C23            2.3039    -3.0775    -5.1899 C.ar    
  24 C24            1.3977    -2.1604    -5.6906 C.ar    
  25 C25            1.0644    -1.0426    -4.9515 C.ar    
  26 C26            1.6408    -0.8396    -3.7038 C.ar    
  27 C27            3.1741    -1.5491    -1.8488 C.3     
  28 N28            1.3059     0.2900    -2.9536 N.pl3   
  29 C29            3.6771    -6.9868    -0.7166 C.2     
  30 O30            4.5157    -6.8557    -1.5864 O.2     
  31 O31            3.4731    -8.1943    -0.1537 O.3     
  32 H32           -1.0921    -0.0622    -0.5624 H       
  33 H33            3.0387     1.0170     0.1456 H       
  34 H34            1.6066     3.1861    -0.1796 H       
  35 H35            0.4340    -5.0425     1.9153 H       
  36 H36            1.7568    -6.9504     1.1743 H       
  37 H37            3.8418    -4.4604    -1.6349 H       
  38 H38           -1.2909    -3.9678     1.5053 H       
  39 H39           -1.8879    -2.6792     0.4324 H       
  40 H40           -2.9063    -1.5299     2.3793 H       
  41 H41           -3.5348    -3.1871     2.2151 H       
  42 H42           -2.9608    -2.6826     4.5741 H       
  43 H43           -1.9174    -3.9698     3.9240 H       
  44 H44           -1.1861    -1.0125     4.1158 H       
  45 H45           -0.5890    -2.3012     5.1888 H       
  46 H46            1.0579    -1.7932     3.4060 H       
  47 H47            0.4294    -3.4504     3.2419 H       
  48 H48           -0.5595    -1.0106     1.6972 H       
  49 H49            3.5869    -3.5963    -3.5607 H       
  50 H50            2.5629    -3.9508    -5.7700 H       
  51 H51            0.9506    -2.3185    -6.6609 H       
  52 H52            0.3570    -0.3267    -5.3433 H       
  53 H53            3.2672    -0.4804    -1.6557 H       
  54 H54            4.1618    -2.0097    -1.8267 H       
  55 H55            1.8120     0.5099    -2.1558 H       
  56 H56            0.5672     0.8544    -3.2303 H       
  57 H57            4.0180    -8.9260    -0.4746 H       
@<TRIPOS>BOND
   1    1    2 1
   2    1    5 1
   3    2    3 2
   4    2   32 1
   5    3    4 1
   6    3    7 1
   7    4    5 2
   8    4   33 1
   9    5   34 1
  10    6    7 1
  11    6   10 1
  12    6   27 1
  13    7    8 2
  14    8    9 1
  15    8   20 1
  16    9   10 ar
  17    9   11 ar
  18   10   14 ar
  19   11   12 ar
  20   11   35 1
  21   12   13 ar
  22   12   36 1
  23   13   14 ar
  24   13   29 1
  25   14   37 1
  26   15   16 1
  27   15   20 1
  28   15   38 1
  29   15   39 1
  30   16   17 1
  31   16   40 1
  32   16   41 1
  33   17   18 1
  34   17   42 1
  35   17   43 1
  36   18   19 1
  37   18   44 1
  38   18   45 1
  39   19   20 1
  40   19   46 1
  41   19   47 1
  42   20   48 1
  43   21   22 ar
  44   21   26 ar
  45   21   27 1
  46   22   23 ar
  47   22   49 1
  48   23   24 ar
  49   23   50 1
  50   24   25 ar
  51   24   51 1
  52   25   26 ar
  53   25   52 1
  54   26   28 1
  55   27   53 1
  56   27   54 1
  57   28   55 1
  58   28   56 1
  59   29   30 2
  60   29   31 1
  61   31   57 1

#	End of record

