#	Name: ASD01901324
#	Creating user name:	WinNT
#	Creation time:	15. 06. 2019 19:53

#	Modifying user name:	WinNT
#	Modification time:	15. 06. 2019 19:53

#	Program:	/corina/corina34_cracker 3.40 0067  02.08.2006

@<TRIPOS>MOLECULE
ASD01901324
  38   41    0    0    0
SMALL
NO_CHARGES


@<TRIPOS>ATOM
   1 C1            -0.0167     1.3774     0.0096 C.ar    
   2 C2             0.0021    -0.0041     0.0020 C.ar    
   3 C3             1.2125    -0.6825    -0.0132 C.ar    
   4 C4             2.4047     0.0214    -0.0208 C.ar    
   5 C5             2.3942     1.4017    -0.0128 C.ar    
   6 C6             1.1820     2.0879     0.0020 C.ar    
   7 C7             1.1672     3.5721     0.0096 C.2     
   8 N8             0.6193     5.5986    -1.0708 N.2     
   9 C9             0.6301     4.2882    -1.0822 C.2     
  10 C10            1.6681     4.2646     1.0762 C.2     
  11 C11            1.1133     6.2866    -0.0304 C.2     
  12 N12            1.2078     7.5880     0.2023 N.2     
  13 N13            1.6387     5.6276     1.0512 N.pl3   
  14 C14            2.0527     6.5799     1.9430 C.2     
  15 C15            1.7759     7.7826     1.3961 C.2     
  16 C16            2.0597     9.1215     2.0268 C.3     
  17 O17            2.6729     8.9266     3.3028 O.3     
  18 C18            2.9958    10.0419     4.0089 C.ar    
  19 C19            2.7228    11.2980     3.4871 C.ar    
  20 C20            3.5938     9.9262     5.2554 C.ar    
  21 C21            3.9211    11.0614     5.9713 C.ar    
  22 C22            3.6528    12.3122     5.4466 C.ar    
  23 C23            3.0521    12.4302     4.2069 C.ar    
  24 F24            1.2277    -2.0334    -0.0201 F       
  25 F25           -1.1589    -0.6949     0.0098 F       
  26 H26           -0.9586     1.9056     0.0170 H       
  27 H27            3.3446    -0.5104    -0.0326 H       
  28 H28            3.3251     1.9493    -0.0180 H       
  29 H29            0.2271     3.7541    -1.9300 H       
  30 H30            2.0804     3.7405     1.9257 H       
  31 H31            2.5137     6.4025     2.9035 H       
  32 H32            2.7312     9.6909     1.3842 H       
  33 H33            1.1257     9.6693     2.1524 H       
  34 H34            2.2536    11.3907     2.5187 H       
  35 H35            3.8029     8.9494     5.6659 H       
  36 H36            4.3866    10.9719     6.9417 H       
  37 H37            3.9091    13.1986     6.0080 H       
  38 H38            2.8398    13.4083     3.8010 H       
@<TRIPOS>BOND
   1    1    2 ar
   2    1    6 ar
   3    1   26 1
   4    2    3 ar
   5    2   25 1
   6    3    4 ar
   7    3   24 1
   8    4    5 ar
   9    4   27 1
  10    5    6 ar
  11    5   28 1
  12    6    7 1
  13    7   10 2
  14    7    9 1
  15    8    9 2
  16    8   11 1
  17    9   29 1
  18   10   13 1
  19   10   30 1
  20   11   13 1
  21   11   12 2
  22   12   15 1
  23   13   14 1
  24   14   15 2
  25   14   31 1
  26   15   16 1
  27   16   17 1
  28   16   32 1
  29   16   33 1
  30   17   18 1
  31   18   20 ar
  32   18   19 ar
  33   19   23 ar
  34   19   34 1
  35   20   21 ar
  36   20   35 1
  37   21   22 ar
  38   21   36 1
  39   22   23 ar
  40   22   37 1
  41   23   38 1

#	End of record

