#	Name: ASD01152229
#	Creating user name:	WinNT
#	Creation time:	15. 06. 2019 19:05

#	Modifying user name:	WinNT
#	Modification time:	15. 06. 2019 19:05

#	Program:	/corina/corina34_cracker 3.40 0067  02.08.2006

@<TRIPOS>MOLECULE
ASD01152229
  44   46    0    0    0
SMALL
NO_CHARGES


@<TRIPOS>ATOM
   1 N1            -0.1519     1.1933     0.2712 N.2     
   2 N2            -0.0654    -0.0847     0.1778 N.am    
   3 C3             1.1093    -0.7339     0.1902 C.2     
   4 N4             2.2757    -0.0672     0.3025 N.am    
   5 C5             2.2451     1.2824     0.4039 C.2     
   6 C6             0.9252     1.9415     0.3850 C.2     
   7 C7             0.8150     3.4063     0.4915 C.2     
   8 O8             1.8176     4.0851     0.5961 O.2     
   9 O9            -0.3978     3.9941     0.4728 O.3     
  10 O10            3.2702     1.9291     0.5076 O.2     
  11 O11            1.1217    -1.9458     0.0988 O.2     
  12 C12            3.5506    -0.7888     0.3151 C.3     
  13 C13            4.0625    -0.9288    -1.0953 C.ar    
  14 C14            4.8837     0.0452    -1.6321 C.ar    
  15 C15            5.3536    -0.0826    -2.9256 C.ar    
  16 C16            5.0019    -1.1856    -3.6833 C.ar    
  17 C17            4.1800    -2.1600    -3.1455 C.ar    
  18 C18            3.7154    -2.0338    -1.8499 C.ar    
  19 Cl19           5.5912    -1.3465    -5.3082 Cl      
  20 C20           -1.2433    -0.8304     0.0589 C.ar    
  21 C21           -2.2033    -0.4687    -0.8763 C.ar    
  22 C22           -3.3697    -1.2107    -0.9910 C.ar    
  23 C23           -3.5738    -2.3130    -0.1700 C.ar    
  24 C24           -2.6166    -2.6705     0.7598 C.ar    
  25 C25           -1.4510    -1.9371     0.8728 C.ar    
  26 C26           -3.9667    -0.3548    -3.1291 C.2     
  27 C27           -5.0057    -0.0613    -4.1804 C.3     
  28 O28           -2.7945    -0.1461    -3.3601 O.2     
  29 N29           -4.3400    -0.8491    -1.9321 N.am    
  30 H30           -0.4196     4.9581     0.5455 H       
  31 H31            4.2756    -0.2350     0.9116 H       
  32 H32            3.4038    -1.7782     0.7482 H       
  33 H33            5.1579     0.9063    -1.0407 H       
  34 H34            5.9949     0.6785    -3.3450 H       
  35 H35            3.9052    -3.0212    -3.7364 H       
  36 H36            3.0774    -2.7965    -1.4285 H       
  37 H37           -2.0425     0.3887    -1.5130 H       
  38 H38           -4.4819    -2.8908    -0.2586 H       
  39 H39           -2.7777    -3.5277     1.3966 H       
  40 H40           -0.7025    -2.2220     1.5973 H       
  41 H41           -5.1578    -0.9465    -4.7980 H       
  42 H42           -5.9444     0.2105    -3.6976 H       
  43 H43           -4.6665     0.7643    -4.8060 H       
  44 H44           -5.2814    -0.9543    -1.7231 H       
@<TRIPOS>BOND
   1    1    2 1
   2    1    6 2
   3    2    3 am
   4    2   20 1
   5    3    4 am
   6    3   11 2
   7    4    5 am
   8    4   12 1
   9    5    6 1
  10    5   10 2
  11    6    7 1
  12    7    8 2
  13    7    9 1
  14    9   30 1
  15   12   13 1
  16   12   31 1
  17   12   32 1
  18   13   14 ar
  19   13   18 ar
  20   14   15 ar
  21   14   33 1
  22   15   16 ar
  23   15   34 1
  24   16   17 ar
  25   16   19 1
  26   17   18 ar
  27   17   35 1
  28   18   36 1
  29   20   21 ar
  30   20   25 ar
  31   21   22 ar
  32   21   37 1
  33   22   23 ar
  34   22   29 1
  35   23   24 ar
  36   23   38 1
  37   24   25 ar
  38   24   39 1
  39   25   40 1
  40   26   27 1
  41   26   28 2
  42   26   29 am
  43   27   41 1
  44   27   42 1
  45   27   43 1
  46   29   44 1

#	End of record

