#	Name: ASD01140139
#	Creating user name:	WinNT
#	Creation time:	15. 06. 2019 19:00

#	Modifying user name:	WinNT
#	Modification time:	15. 06. 2019 19:00

#	Program:	/corina/corina34_cracker 3.40 0067  02.08.2006

@<TRIPOS>MOLECULE
ASD01140139
  22   23    0    0    0
SMALL
NO_CHARGES


@<TRIPOS>ATOM
   1 C1            -0.0166     1.3757     0.0096 C.ar    
   2 C2             0.0021    -0.0041     0.0020 C.ar    
   3 C3             1.2187    -0.6826    -0.0133 C.ar    
   4 C4             2.4143     0.0378    -0.0209 C.ar    
   5 C5             2.3850     1.4194    -0.0132 C.ar    
   6 C6             1.1718     2.0878     0.0021 C.ar    
   7 C7             1.2435    -2.1659    -0.0210 C.ar    
   8 C8             2.0208    -2.8475    -0.9554 C.ar    
   9 C9             2.0405    -4.2275    -0.9577 C.ar    
  10 C10            1.2902    -4.9339    -0.0351 C.ar    
  11 C11            0.5168    -4.2626     0.8947 C.ar    
  12 C12            0.4941    -2.8827     0.9099 C.ar    
  13 F13            1.1474     3.4386     0.0096 F       
  14 F14            3.5975    -0.6142    -0.0353 F       
  15 H15           -0.9599     1.9018     0.0169 H       
  16 H16           -0.9254    -0.5573     0.0083 H       
  17 H17            3.3090     1.9786    -0.0190 H       
  18 H18            2.6064    -2.2968    -1.6767 H       
  19 H19            2.6425    -4.7567    -1.6815 H       
  20 H20            1.3080    -6.0138    -0.0409 H       
  21 H21           -0.0671    -4.8192     1.6128 H       
  22 H22           -0.1101    -2.3595     1.6363 H       
@<TRIPOS>BOND
   1    1    2 ar
   2    1    6 ar
   3    1   15 1
   4    2    3 ar
   5    2   16 1
   6    3    4 ar
   7    3    7 1
   8    4    5 ar
   9    4   14 1
  10    5    6 ar
  11    5   17 1
  12    6   13 1
  13    7    8 ar
  14    7   12 ar
  15    8    9 ar
  16    8   18 1
  17    9   10 ar
  18    9   19 1
  19   10   11 ar
  20   10   20 1
  21   11   12 ar
  22   11   21 1
  23   12   22 1

#	End of record

