#	Name: ASD04882435
#	Creating user name:	WinNT
#	Creation time:	15. 06. 2019 20:54

#	Modifying user name:	WinNT
#	Modification time:	15. 06. 2019 20:54

#	Program:	/corina/corina34_cracker 3.40 0067  02.08.2006

@<TRIPOS>MOLECULE
ASD04882435
  78   83    0    0    0
SMALL
NO_CHARGES


@<TRIPOS>ATOM
   1 C1            -0.0215     1.4012    -0.0092 C.ar    
   2 C2            -0.0116     0.0036    -0.0052 C.ar    
   3 C3            -1.2094    -0.7019    -0.0170 C.ar    
   4 C4            -2.4096    -0.0268    -0.0325 C.ar    
   5 C5            -2.4267     1.3708    -0.0366 C.ar    
   6 C6            -1.2239     2.0825    -0.0186 C.ar    
   7 N7             1.1998    -0.6830     0.0100 N.3     
   8 C8             1.3065    -1.5362     1.2018 C.3     
   9 C9             1.3728    -1.4731    -1.2170 C.3     
  10 C10            2.7466    -2.1474    -1.1969 C.3     
  11 N11            2.8534    -3.0005    -0.0052 N.3     
  12 C12            2.6804    -2.2105     1.2218 C.3     
  13 C13           -3.7126     2.0937    -0.0537 C.2     
  14 O14           -3.7265     3.3096    -0.0573 O.2     
  15 N15           -4.8719     1.4065    -0.0655 N.am    
  16 N16            1.1866     2.1110     0.0021 N.am    
  17 C17            1.2296     3.3600     0.5068 C.2     
  18 C18            2.5162     4.0733     0.5999 C.2     
  19 C19            2.7115     5.3279     1.0899 C.2     
  20 C20            4.0684    -3.6893     0.0101 C.ar    
  21 C21            5.2665    -2.9869     0.0214 C.ar    
  22 C22            4.0811    -5.0785     0.0199 C.ar    
  23 C23            5.2840    -5.7563     0.0349 C.ar    
  24 C24            6.4753    -5.0538     0.0408 C.ar    
  25 C25            6.4663    -3.6712     0.0365 C.ar    
  26 C26           -6.1489     2.1244    -0.0825 C.3     
  27 C27           -7.3003     1.1169    -0.0933 C.3     
  28 C28           -8.6339     1.8667    -0.1110 C.3     
  29 C29           -9.7680     0.8743    -0.1216 C.2     
  30 N30          -10.3365     0.3913     0.9311 N.2     
  31 S31          -10.4924     0.2311    -1.5305 S.3     
  32 C32          -11.5925    -0.7239    -0.5394 C.2     
  33 C33          -11.3172    -0.4687     0.7432 C.2     
  34 C34            2.7834    -5.8448     0.0145 C.3     
  35 O35            0.2069     3.8985     0.8853 O.2     
  36 N36            3.7329     3.5991     0.2178 N.2     
  37 C37            4.6245     4.5142     0.4546 C.2     
  38 O38            4.0251     5.5869     0.9903 O.3     
  39 C39            6.0999     4.3880     0.1749 C.3     
  40 C40            6.7245     5.3961    -0.7918 C.3     
  41 C41            7.0167     5.4912     0.7070 C.3     
  42 C42          -12.6591    -1.6590    -1.0482 C.3     
  43 H43           -1.1986    -1.7819    -0.0142 H       
  44 H44           -3.3385    -0.5778    -0.0419 H       
  45 H45           -1.2340     3.1625    -0.0213 H       
  46 H46            1.1876    -0.9264     2.0974 H       
  47 H47            0.5278    -2.2984     1.1743 H       
  48 H48            0.5947    -2.2346    -1.2719 H       
  49 H49            1.3021    -0.8173    -2.0848 H       
  50 H50            2.8655    -2.7571    -2.0925 H       
  51 H51            3.5254    -1.3852    -1.1695 H       
  52 H52            3.4584    -1.4490     1.2767 H       
  53 H53            2.7510    -2.8662     2.0896 H       
  54 H54           -4.8609     0.4366    -0.0627 H       
  55 H55            1.9919     1.7035    -0.3533 H       
  56 H56            1.9539     5.9894     1.4836 H       
  57 H57            5.2601    -1.9069     0.0180 H       
  58 H58            5.2946    -6.8362     0.0425 H       
  59 H59            7.4148    -5.5864     0.0533 H       
  60 H60            7.3983    -3.1257     0.0410 H       
  61 H61           -6.2242     2.7528     0.8049 H       
  62 H62           -6.2033     2.7479    -0.9749 H       
  63 H63           -7.2249     0.4885    -0.9807 H       
  64 H64           -7.2459     0.4934     0.7991 H       
  65 H65           -8.7092     2.4951     0.7764 H       
  66 H66           -8.6883     2.4902    -1.0035 H       
  67 H67          -11.8530    -0.9312     1.5590 H       
  68 H68            2.4791    -6.0367    -1.0144 H       
  69 H69            2.9189    -6.7923     0.5360 H       
  70 H70            2.0139    -5.2597     0.5179 H       
  71 H71            6.4908     3.3705     0.1629 H       
  72 H72            7.5265     5.0419    -1.4395 H       
  73 H73            6.0682     6.1506    -1.2255 H       
  74 H74            6.5527     6.3084     1.2593 H       
  75 H75            8.0110     5.1997     1.0453 H       
  76 H76          -12.2401    -2.6584    -1.1660 H       
  77 H77          -13.4832    -1.6924    -0.3355 H       
  78 H78          -13.0255    -1.3028    -2.0109 H       
@<TRIPOS>BOND
   1    1    2 ar
   2    1   16 1
   3    1    6 ar
   4    2    3 ar
   5    2    7 1
   6    3    4 ar
   7    3   43 1
   8    4    5 ar
   9    4   44 1
  10    5    6 ar
  11    5   13 1
  12    6   45 1
  13    7    8 1
  14    7    9 1
  15    8   12 1
  16    8   46 1
  17    8   47 1
  18    9   10 1
  19    9   48 1
  20    9   49 1
  21   10   11 1
  22   10   50 1
  23   10   51 1
  24   11   12 1
  25   11   20 1
  26   12   52 1
  27   12   53 1
  28   13   14 2
  29   13   15 am
  30   15   26 1
  31   15   54 1
  32   16   17 am
  33   16   55 1
  34   17   18 1
  35   17   35 2
  36   18   36 1
  37   18   19 2
  38   19   38 1
  39   19   56 1
  40   20   21 ar
  41   20   22 ar
  42   21   25 ar
  43   21   57 1
  44   22   23 ar
  45   22   34 1
  46   23   24 ar
  47   23   58 1
  48   24   25 ar
  49   24   59 1
  50   25   60 1
  51   26   27 1
  52   26   61 1
  53   26   62 1
  54   27   28 1
  55   27   63 1
  56   27   64 1
  57   28   29 1
  58   28   65 1
  59   28   66 1
  60   29   30 2
  61   29   31 1
  62   30   33 1
  63   31   32 1
  64   32   33 2
  65   32   42 1
  66   33   67 1
  67   34   68 1
  68   34   69 1
  69   34   70 1
  70   36   37 2
  71   37   38 1
  72   37   39 1
  73   39   40 1
  74   39   41 1
  75   39   71 1
  76   40   41 1
  77   40   72 1
  78   40   73 1
  79   41   74 1
  80   41   75 1
  81   42   76 1
  82   42   77 1
  83   42   78 1

#	End of record

