#	Name: ASD03092052
#	Creating user name:	WinNT
#	Creation time:	15. 06. 2019 20:31

#	Modifying user name:	WinNT
#	Modification time:	15. 06. 2019 20:31

#	Program:	/corina/corina34_cracker 3.40 0067  02.08.2006

@<TRIPOS>MOLECULE
ASD03092052
  44   47    0    0    0
SMALL
NO_CHARGES


@<TRIPOS>ATOM
   1 N1             0.1403     1.5179     0.0347 N.am    
   2 C2             0.1268     0.1493    -0.0406 C.2     
   3 C3            -1.1780    -0.2427    -0.0884 C.2     
   4 C4            -1.9756     0.9120    -0.0412 C.2     
   5 N5            -1.1891     1.9592     0.0383 N.2     
   6 N6            -3.3726     0.9406    -0.0678 N.pl3   
   7 C7            -4.0494     2.1533     0.0842 C.ar    
   8 C8            -3.5027     3.3240    -0.4251 C.ar    
   9 C9            -4.1754     4.5220    -0.2733 C.ar    
  10 C10           -5.3921     4.5550     0.3854 C.ar    
  11 C11           -5.2738     2.1898     0.7404 C.ar    
  12 C12            1.3095    -0.7382    -0.0662 C.ar    
  13 C13            1.2367     2.2991     0.0996 C.2     
  14 C14            1.3001    -1.9683     0.6010 C.ar    
  15 C15            2.4251    -2.7650     0.5505 C.ar    
  16 N16            3.4981    -2.3808    -0.1140 N.ar    
  17 C17            3.5490    -1.2293    -0.7565 C.ar    
  18 C18            2.4674    -0.3737    -0.7633 C.ar    
  19 C19            4.8042    -0.8464    -1.4973 C.3     
  20 N20            1.1119     3.6404     0.0565 N.am    
  21 O21            2.3376     1.7941     0.1971 O.2     
  22 C22            2.3037     4.4895     0.1271 C.3     
  23 C23            2.2133     5.8866    -0.4902 C.3     
  24 C24           -5.9384     3.3905     0.8934 C.ar    
  25 C25            2.2401     5.7225     1.0308 C.3     
  26 Cl26          -3.4933     5.9864    -0.9088 Cl      
  27 H27           -1.5347    -1.2601    -0.1519 H       
  28 H28           -3.8723     0.1185    -0.1918 H       
  29 H29           -2.5531     3.2985    -0.9389 H       
  30 H30           -5.9158     5.4921     0.5033 H       
  31 H31           -5.7035     1.2803     1.1336 H       
  32 H32            0.4254    -2.2889     1.1475 H       
  33 H33            2.4276    -3.7161     1.0622 H       
  34 H34            2.5161     0.5672    -1.2913 H       
  35 H35            4.7462    -1.2108    -2.5230 H       
  36 H36            4.9063     0.2388    -1.5025 H       
  37 H37            5.6680    -1.2903    -1.0023 H       
  38 H38            0.2331     4.0435    -0.0212 H       
  39 H39            3.2578     3.9676     0.0537 H       
  40 H40            3.1080     6.2839    -0.9693 H       
  41 H41            1.2671     6.1739    -0.9488 H       
  42 H42           -6.8879     3.4197     1.4073 H       
  43 H43            1.3115     5.9019     1.5728 H       
  44 H44            3.1525     6.0119     1.5522 H       
@<TRIPOS>BOND
   1    1    2 1
   2    1   13 am
   3    1    5 1
   4    2    3 2
   5    2   12 1
   6    3    4 1
   7    3   27 1
   8    4    5 2
   9    4    6 1
  10    6    7 1
  11    6   28 1
  12    7    8 ar
  13    7   11 ar
  14    8    9 ar
  15    8   29 1
  16    9   10 ar
  17    9   26 1
  18   10   24 ar
  19   10   30 1
  20   11   24 ar
  21   11   31 1
  22   12   14 ar
  23   12   18 ar
  24   13   20 am
  25   13   21 2
  26   14   15 ar
  27   14   32 1
  28   15   16 ar
  29   15   33 1
  30   16   17 ar
  31   17   18 ar
  32   17   19 1
  33   18   34 1
  34   19   35 1
  35   19   36 1
  36   19   37 1
  37   20   22 1
  38   20   38 1
  39   22   23 1
  40   22   25 1
  41   22   39 1
  42   23   25 1
  43   23   40 1
  44   23   41 1
  45   24   42 1
  46   25   43 1
  47   25   44 1

#	End of record

