#	Name: ASD02198828
#	Creating user name:	WinNT
#	Creation time:	15. 06. 2019 20:20

#	Modifying user name:	WinNT
#	Modification time:	15. 06. 2019 20:20

#	Program:	/corina/corina34_cracker 3.40 0067  02.08.2006

@<TRIPOS>MOLECULE
ASD02198828
  56   61    0    0    0
SMALL
NO_CHARGES


@<TRIPOS>ATOM
   1 O1            -0.5484     1.4112    -0.5299 O.3     
   2 C2            -1.3166     6.0576    -0.9300 C.2     
   3 C3            -0.2845     5.1869    -1.0630 C.2     
   4 N4            -0.1478     4.1399    -0.2186 N.pl3   
   5 N5            -0.9610     3.9000     0.7429 N.2     
   6 C6            -2.0042     4.6653     0.9834 C.2     
   7 C7            -2.2404     5.8323     0.1185 C.2     
   8 C8             0.9355     3.2744    -0.4037 C.ar    
   9 C9             0.7170     1.9060    -0.5587 C.ar    
  10 C10            1.7917     1.0521    -0.7417 C.ar    
  11 C11            3.0832     1.5597    -0.7704 C.ar    
  12 C12            3.2987     2.9235    -0.6152 C.ar    
  13 C13            2.2294     3.7778    -0.4384 C.ar    
  14 C14           -2.9209     4.3586     2.1001 C.2     
  15 N15           -3.2658     5.1983     3.1216 N.pl3   
  16 N16           -4.1541     4.5105     3.9578 N.2     
  17 C17           -4.3441     3.3093     3.4730 C.2     
  18 C18           -3.5939     3.1740     2.3048 C.2     
  19 C19           -2.8119     6.5113     3.3005 C.ar    
  20 C20           -3.6974     7.5061     3.6937 C.ar    
  21 C21           -3.2466     8.7997     3.8697 C.ar    
  22 C22           -1.9151     9.1047     3.6547 C.ar    
  23 C23           -1.0309     8.1164     3.2626 C.ar    
  24 C24           -1.4743     6.8197     3.0905 C.ar    
  25 O25           -3.1936     6.5756     0.2982 O.2     
  26 N26            4.1711     0.6955    -0.9556 N.pl3   
  27 N27            4.1014    -0.6934    -1.1243 N.2     
  28 C28            5.3196    -1.1497    -1.2686 C.2     
  29 C29            6.2040    -0.0679    -1.1966 C.2     
  30 C30            5.4734     1.0557    -1.0089 C.2     
  31 C31           -0.6970    -0.0004    -0.6953 C.3     
  32 C32           -2.1810    -0.3676    -0.6349 C.3     
  33 C33           -2.5601    -1.8243    -0.9090 C.3     
  34 C34           -2.6398    -1.2678     0.5140 C.3     
  35 H35           -1.4273     6.8975    -1.5999 H       
  36 H36            0.4371     5.3320    -1.8534 H       
  37 H37            1.6250    -0.0082    -0.8617 H       
  38 H38            4.3045     3.3162    -0.6375 H       
  39 H39            2.3996     4.8375    -0.3181 H       
  40 H40           -4.9797     2.5501     3.9041 H       
  41 H41           -3.5439     2.2961     1.6778 H       
  42 H42           -4.7375     7.2686     3.8614 H       
  43 H43           -3.9349     9.5739     4.1752 H       
  44 H44           -1.5650    10.1170     3.7930 H       
  45 H45            0.0083     8.3578     3.0951 H       
  46 H46           -0.7832     6.0482     2.7846 H       
  47 H47            5.5948    -2.1834    -1.4175 H       
  48 H48            7.2795    -0.1199    -1.2795 H       
  49 H49            5.8613     2.0590    -0.9125 H       
  50 H50           -0.2881    -0.2980    -1.6609 H       
  51 H51           -0.1619    -0.5178     0.1009 H       
  52 H52           -2.8706     0.4046    -0.9759 H       
  53 H53           -3.4992    -2.0105    -1.4300 H       
  54 H54           -1.7522    -2.5211    -1.1324 H       
  55 H55           -1.8844    -1.5985     1.2267 H       
  56 H56           -3.6315    -1.0880     0.9292 H       
@<TRIPOS>BOND
   1    1   31 1
   2    1    9 1
   3    2    3 2
   4    2    7 1
   5    2   35 1
   6    3    4 1
   7    3   36 1
   8    4    5 1
   9    4    8 1
  10    5    6 2
  11    6    7 1
  12    6   14 1
  13    7   25 2
  14    8    9 ar
  15    8   13 ar
  16    9   10 ar
  17   10   11 ar
  18   10   37 1
  19   11   12 ar
  20   11   26 1
  21   12   13 ar
  22   12   38 1
  23   13   39 1
  24   14   15 1
  25   14   18 2
  26   15   16 1
  27   15   19 1
  28   16   17 2
  29   17   18 1
  30   17   40 1
  31   18   41 1
  32   19   20 ar
  33   19   24 ar
  34   20   21 ar
  35   20   42 1
  36   21   22 ar
  37   21   43 1
  38   22   23 ar
  39   22   44 1
  40   23   24 ar
  41   23   45 1
  42   24   46 1
  43   26   27 1
  44   26   30 1
  45   27   28 2
  46   28   29 1
  47   28   47 1
  48   29   30 2
  49   29   48 1
  50   30   49 1
  51   31   32 1
  52   31   50 1
  53   31   51 1
  54   32   33 1
  55   32   34 1
  56   32   52 1
  57   33   34 1
  58   33   53 1
  59   33   54 1
  60   34   55 1
  61   34   56 1

#	End of record

