#	Name: ASD01884300
#	Creating user name:	WinNT
#	Creation time:	15. 06. 2019 19:47

#	Modifying user name:	WinNT
#	Modification time:	15. 06. 2019 19:47

#	Program:	/corina/corina34_cracker 3.40 0067  02.08.2006

@<TRIPOS>MOLECULE
ASD01884300
  30   31    0    0    0
SMALL
NO_CHARGES


@<TRIPOS>ATOM
   1 C1            -0.0398     1.3273    -0.3023 C.ar    
   2 N2            -0.0115     0.0108    -0.2360 N.ar    
   3 C3            -1.1147    -0.7029    -0.1281 C.ar    
   4 C4            -2.3558    -0.0848    -0.0803 C.ar    
   5 C5            -2.4223     1.3036    -0.1478 C.ar    
   6 C6            -1.2384     2.0149    -0.2550 C.ar    
   7 C7            -5.2003     0.0945     1.4053 C.ar    
   8 C8            -4.6731    -0.1652     0.1495 C.ar    
   9 C9            -5.3559     0.2505    -0.9873 C.ar    
  10 C10           -6.5586     0.9215    -0.8623 C.ar    
  11 C11           -7.0806     1.1787     0.3924 C.ar    
  12 C12           -6.4026     0.7659     1.5239 C.ar    
  13 C13           -1.0267    -2.2057    -0.0566 C.3     
  14 O14           -3.4904    -0.8246     0.0305 O.3     
  15 C15            1.2522     2.0933    -0.4250 C.3     
  16 F16           -4.8453    -0.0001    -2.2127 F       
  17 N17           -8.3677     1.8979     0.5237 N.pl3   
  18 O18           -8.9659     2.2626    -0.4726 O.2     
  19 O19           -8.8285     2.1251     1.6280 O.2     
  20 H20           -3.3733     1.8143    -0.1131 H       
  21 H21           -1.2520     3.0934    -0.3097 H       
  22 H22           -4.6739    -0.2314     2.2902 H       
  23 H23           -7.0904     1.2451    -1.7448 H       
  24 H24           -6.8129     0.9683     2.5023 H       
  25 H25           -0.9394    -2.5153     0.9849 H       
  26 H26           -1.9252    -2.6433    -0.4917 H       
  27 H27           -0.1520    -2.5452    -0.6111 H       
  28 H28            1.4978     2.2250    -1.4788 H       
  29 H29            1.1421     3.0695     0.0472 H       
  30 H30            2.0512     1.5394     0.0678 H       
@<TRIPOS>BOND
   1    1    2 ar
   2    1   15 1
   3    1    6 ar
   4    2    3 ar
   5    3    4 ar
   6    3   13 1
   7    4    5 ar
   8    4   14 1
   9    5    6 ar
  10    5   20 1
  11    6   21 1
  12    7    8 ar
  13    7   12 ar
  14    7   22 1
  15    8    9 ar
  16    8   14 1
  17    9   10 ar
  18    9   16 1
  19   10   11 ar
  20   10   23 1
  21   11   12 ar
  22   11   17 1
  23   12   24 1
  24   13   25 1
  25   13   26 1
  26   13   27 1
  27   15   28 1
  28   15   29 1
  29   15   30 1
  30   17   18 2
  31   17   19 2

#	End of record

