#	Name: ASD03900044
#	Creating user name:	WinNT
#	Creation time:	15. 06. 2019 20:47

#	Modifying user name:	WinNT
#	Modification time:	15. 06. 2019 20:47

#	Program:	/corina/corina34_cracker 3.40 0067  02.08.2006

@<TRIPOS>MOLECULE
ASD03900044
  49   52    0    0    0
SMALL
NO_CHARGES


@<TRIPOS>ATOM
   1 C1             0.2833     1.2911     0.2144 C.3     
   2 C2             0.7635    -0.0213     0.7784 C.ar    
   3 C3             1.4512     2.1271    -0.2418 C.ar    
   4 C4             1.4790     2.6295    -1.5297 C.ar    
   5 C5             2.4904     2.3953     0.6299 C.ar    
   6 C6             3.5618     3.1618     0.2143 C.ar    
   7 C7             3.5946     3.6626    -1.0791 C.ar    
   8 C8             2.5482     3.3965    -1.9502 C.ar    
   9 C9             1.5962    -0.8313     0.0286 C.ar    
  10 C10            0.3753    -0.4107     2.0470 C.ar    
  11 C11            0.8145    -1.6130     2.5665 C.ar    
  12 C12            1.6458    -2.4300     1.8141 C.ar    
  13 C13            2.0382    -2.0346     0.5435 C.ar    
  14 O14            2.0793    -3.6135     2.3230 O.3     
  15 C15           -0.6799     1.0561    -0.9297 C.2     
  16 C16           -0.5356     2.0403     1.2402 C.ar    
  17 C17           -1.8051     2.1863     0.6958 C.ar    
  18 N18           -1.8562     1.5996    -0.5743 N.am    
  19 C19           -0.2419     2.5410     2.4886 C.ar    
  20 C20           -1.2185     3.1989     3.2157 C.ar    
  21 C21           -2.4864     3.3507     2.6845 C.ar    
  22 C22           -2.7835     2.8496     1.4342 C.ar    
  23 O23           -0.4357     0.4846    -1.9713 O.2     
  24 O24            4.6478     4.4170    -1.4905 O.3     
  25 C25            5.7621     3.7618    -1.8535 C.2     
  26 O26            5.8198     2.5601    -1.7418 O.2     
  27 C27            6.9408     4.5252    -2.4002 C.3     
  28 C28            1.2097    -4.6365     2.3126 C.2     
  29 O29            0.1373    -4.5124     1.7701 O.2     
  30 C30            1.5714    -5.9396     2.9776 C.3     
  31 H31            0.6643     2.4217    -2.2076 H       
  32 H32            2.4642     2.0055     1.6368 H       
  33 H33            4.3731     3.3713     0.8957 H       
  34 H34            2.5716     3.7849    -2.9577 H       
  35 H35            1.9011    -0.5233    -0.9606 H       
  36 H36           -0.2716     0.2259     2.6325 H       
  37 H37            0.5112    -1.9165     3.5576 H       
  38 H38            2.6849    -2.6691    -0.0443 H       
  39 H39           -2.6493     1.5872    -1.1326 H       
  40 H40            0.7493     2.4202     2.9001 H       
  41 H41           -0.9912     3.5925     4.1954 H       
  42 H42           -3.2485     3.8639     3.2523 H       
  43 H43           -3.7757     2.9728     1.0260 H       
  44 H44            6.7042     5.5889    -2.4264 H       
  45 H45            7.8080     4.3615    -1.7605 H       
  46 H46            7.1626     4.1773    -3.4091 H       
  47 H47            2.5695    -5.8627     3.4089 H       
  48 H48            0.8508    -6.1576     3.7658 H       
  49 H49            1.5555    -6.7411     2.2391 H       
@<TRIPOS>BOND
   1    1    2 1
   2    1    3 1
   3    1   15 1
   4    1   16 1
   5    2    9 ar
   6    2   10 ar
   7    3    4 ar
   8    3    5 ar
   9    4    8 ar
  10    4   31 1
  11    5    6 ar
  12    5   32 1
  13    6    7 ar
  14    6   33 1
  15    7    8 ar
  16    7   24 1
  17    8   34 1
  18    9   13 ar
  19    9   35 1
  20   10   11 ar
  21   10   36 1
  22   11   12 ar
  23   11   37 1
  24   12   13 ar
  25   12   14 1
  26   13   38 1
  27   14   28 1
  28   15   23 2
  29   15   18 am
  30   16   17 ar
  31   16   19 ar
  32   17   18 1
  33   17   22 ar
  34   18   39 1
  35   19   20 ar
  36   19   40 1
  37   20   21 ar
  38   20   41 1
  39   21   22 ar
  40   21   42 1
  41   22   43 1
  42   24   25 1
  43   25   26 2
  44   25   27 1
  45   27   44 1
  46   27   45 1
  47   27   46 1
  48   28   29 2
  49   28   30 1
  50   30   47 1
  51   30   48 1
  52   30   49 1

#	End of record

