#	Name: ASD04880284
#	Creating user name:	WinNT
#	Creation time:	15. 06. 2019 20:53

#	Modifying user name:	WinNT
#	Modification time:	15. 06. 2019 20:53

#	Program:	/corina/corina34_cracker 3.40 0067  02.08.2006

@<TRIPOS>MOLECULE
ASD04880284
  45   47    0    0    0
SMALL
NO_CHARGES


@<TRIPOS>ATOM
   1 C1            -0.0121     1.4644     0.0386 C.3     
   2 N2             0.0038    -0.0071     0.0404 N.am    
   3 N3             1.3265    -0.4433     0.0810 N.2     
   4 C4             2.1943     0.5090     0.1065 C.2     
   5 C5             1.4817     1.8424     0.0837 C.3     
   6 C6            -1.0835    -0.8028     0.0088 C.2     
   7 C7            -0.9242    -2.2673    -0.1123 C.ar    
   8 O8            -2.1955    -0.3160     0.0798 O.2     
   9 C9            -2.0342    -3.1019    -0.0011 C.ar    
  10 C10            3.6564     0.3266     0.1510 C.ar    
  11 C11            4.5007     1.4396     0.1762 C.ar    
  12 C12            5.8681     1.2667     0.2179 C.ar    
  13 C13            6.4089    -0.0108     0.2348 C.ar    
  14 C14            5.5733    -1.1252     0.2095 C.ar    
  15 C15            4.2013    -0.9599     0.1740 C.ar    
  16 O16            6.1072    -2.3759     0.2258 O.3     
  17 O17            7.7576    -0.1755     0.2759 O.3     
  18 C18            8.5555     1.0098     0.2996 C.3     
  19 C19            5.1915    -3.4726     0.1980 C.3     
  20 C20           -1.8753    -4.4812    -0.1170 C.ar    
  21 C21           -0.6060    -5.0183    -0.3435 C.ar    
  22 C22            0.4902    -4.1854    -0.4526 C.ar    
  23 C23            0.3391    -2.8175    -0.3442 C.ar    
  24 C24           -3.0476    -5.3746     0.0001 C.2     
  25 N25           -2.8922    -6.7087    -0.1122 N.am    
  26 O26           -4.1516    -4.9059     0.1977 O.2     
  27 H27           -0.4760     1.8419    -0.8727 H       
  28 H28           -0.5304     1.8434     0.9194 H       
  29 H29            1.7596     2.4092    -0.8049 H       
  30 H30            1.7052     2.4108     0.9865 H       
  31 H31           -3.0135    -2.6816     0.1744 H       
  32 H32            4.0824     2.4352     0.1627 H       
  33 H33            6.5196     2.1278     0.2369 H       
  34 H34            3.5525    -1.8230     0.1547 H       
  35 H35            8.3054     1.5985     1.1822 H       
  36 H36            9.6104     0.7370     0.3318 H       
  37 H37            8.3595     1.5978    -0.5970 H       
  38 H38            4.5374    -3.4220     1.0684 H       
  39 H39            4.5916    -3.4221    -0.7107 H       
  40 H40            5.7470    -4.4103     0.2149 H       
  41 H41           -0.4814    -6.0873    -0.4331 H       
  42 H42            1.4695    -4.6059    -0.6275 H       
  43 H43            1.2005    -2.1717    -0.4305 H       
  44 H44           -2.0112    -7.0827    -0.2698 H       
  45 H45           -3.6613    -7.2947    -0.0354 H       
@<TRIPOS>BOND
   1    1    2 1
   2    1    5 1
   3    1   27 1
   4    1   28 1
   5    2    3 1
   6    2    6 am
   7    3    4 2
   8    4    5 1
   9    4   10 1
  10    5   29 1
  11    5   30 1
  12    6    7 1
  13    6    8 2
  14    7    9 ar
  15    7   23 ar
  16    9   20 ar
  17    9   31 1
  18   10   11 ar
  19   10   15 ar
  20   11   12 ar
  21   11   32 1
  22   12   13 ar
  23   12   33 1
  24   13   14 ar
  25   13   17 1
  26   14   15 ar
  27   14   16 1
  28   15   34 1
  29   16   19 1
  30   17   18 1
  31   18   35 1
  32   18   36 1
  33   18   37 1
  34   19   38 1
  35   19   39 1
  36   19   40 1
  37   20   21 ar
  38   20   24 1
  39   21   22 ar
  40   21   41 1
  41   22   23 ar
  42   22   42 1
  43   23   43 1
  44   24   25 am
  45   24   26 2
  46   25   44 1
  47   25   45 1

#	End of record

