#	Name: ASD08150428
#	Creating user name:	WinNT
#	Creation time:	15. 06. 2019 21:16

#	Modifying user name:	WinNT
#	Modification time:	15. 06. 2019 21:16

#	Program:	/corina/corina34_cracker 3.40 0067  02.08.2006

@<TRIPOS>MOLECULE
ASD08150428
  40   44    0    0    0
SMALL
NO_CHARGES


@<TRIPOS>ATOM
   1 N1             0.4717     2.1149     1.7782 N.am    
   2 C2             0.7440     1.1732     2.7024 C.2     
   3 C3             1.9573     0.4563     2.6694 C.2     
   4 C4             2.8730     0.7075     1.6993 C.2     
   5 C5             2.5899     1.6974     0.7254 C.ar    
   6 C6             3.5050     1.9965    -0.3022 C.ar    
   7 N7             3.2411     2.9099    -1.1996 N.ar    
   8 C8             2.0962     3.6096    -1.1962 C.ar    
   9 C9             1.1177     3.3750    -0.1990 C.ar    
  10 C10            1.3727     2.3930     0.7868 C.ar    
  11 C11           -0.0720     4.1099    -0.2041 C.ar    
  12 C12           -0.2810     5.0627    -1.1878 C.ar    
  13 C13            0.6919     5.2893    -2.1713 C.ar    
  14 C14            1.8539     4.5826    -2.1797 C.ar    
  15 O15           -0.0698     0.9382     3.5794 O.2     
  16 C16           -1.5404     5.8464    -1.2008 C.2     
  17 C17           -0.7434     2.8092     1.8292 C.ar    
  18 C18           -1.8641     2.2969     1.1895 C.ar    
  19 C19           -3.0624     2.9837     1.2416 C.ar    
  20 C20           -3.1451     4.1826     1.9317 C.ar    
  21 C21           -2.0278     4.6946     2.5697 C.ar    
  22 C22           -0.8303     4.0084     2.5247 C.ar    
  23 Cl23          -4.4643     2.3445     0.4417 Cl      
  24 C24           -2.7305     5.3188    -0.8590 C.2     
  25 F25           -4.3170     4.8528     1.9818 F       
  26 S26           -3.9804     6.5481    -0.9968 S.3     
  27 C27           -2.7998     7.7402    -1.5223 C.2     
  28 C28           -1.5883     7.1917    -1.5624 C.2     
  29 H29            2.1591    -0.2949     3.4186 H       
  30 H30            3.8040     0.1610     1.6703 H       
  31 H31            4.4421     1.4618    -0.3498 H       
  32 H32           -0.8223     3.9358     0.5530 H       
  33 H33            0.5163     6.0348    -2.9328 H       
  34 H34            2.5927     4.7704    -2.9447 H       
  35 H35           -1.7994     1.3627     0.6514 H       
  36 H36           -2.0940     5.6295     3.1064 H       
  37 H37            0.0407     4.4084     3.0225 H       
  38 H38           -2.8929     4.2972    -0.5483 H       
  39 H39           -3.0241     8.7668    -1.7716 H       
  40 H40           -0.7096     7.7450    -1.8594 H       
@<TRIPOS>BOND
   1    1    2 am
   2    1   10 1
   3    1   17 1
   4    2    3 1
   5    2   15 2
   6    3    4 2
   7    3   29 1
   8    4    5 1
   9    4   30 1
  10    5    6 ar
  11    5   10 ar
  12    6    7 ar
  13    6   31 1
  14    7    8 ar
  15    8    9 ar
  16    8   14 ar
  17    9   10 ar
  18    9   11 ar
  19   11   12 ar
  20   11   32 1
  21   12   13 ar
  22   12   16 1
  23   13   14 ar
  24   13   33 1
  25   14   34 1
  26   16   24 2
  27   16   28 1
  28   17   18 ar
  29   17   22 ar
  30   18   19 ar
  31   18   35 1
  32   19   20 ar
  33   19   23 1
  34   20   21 ar
  35   20   25 1
  36   21   22 ar
  37   21   36 1
  38   22   37 1
  39   24   26 1
  40   24   38 1
  41   26   27 1
  42   27   28 2
  43   27   39 1
  44   28   40 1

#	End of record

