#	Name: ASD01917367
#	Creating user name:	WinNT
#	Creation time:	15. 06. 2019 20:09

#	Modifying user name:	WinNT
#	Modification time:	15. 06. 2019 20:09

#	Program:	/corina/corina34_cracker 3.40 0067  02.08.2006

@<TRIPOS>MOLECULE
ASD01917367
  52   56    0    0    0
SMALL
NO_CHARGES


@<TRIPOS>ATOM
   1 C1            -0.0171     1.4098     0.0098 C.ar    
   2 C2             0.0021    -0.0041     0.0020 C.ar    
   3 C3            -1.1913    -0.7247     0.0414 C.ar    
   4 C4            -2.3837    -0.0618     0.0742 C.ar    
   5 C5            -2.4202     1.3391     0.0663 C.ar    
   6 C6            -1.2412     2.0760     0.0357 C.ar    
   7 N7             1.1597     2.0752     0.0021 N.2     
   8 C8             2.3196     1.4676    -0.0397 C.2     
   9 N9             2.4199     0.1196    -0.1574 N.am    
  10 C10            1.3102    -0.6629    -0.0625 C.2     
  11 O11            1.4014    -1.8765    -0.0317 O.2     
  12 C12           -3.7213     2.0385     0.0903 C.2     
  13 C13           -4.7631     1.9877    -1.0034 C.3     
  14 N14           -5.6648     3.1344    -0.7429 N.3     
  15 C15           -5.5316     3.3384     0.7188 C.3     
  16 C16           -4.1632     2.8064     1.0778 C.2     
  17 C17           -6.9760     2.8249    -1.0852 C.ar    
  18 N18           -7.2617     1.6273    -1.5720 N.ar    
  19 C19           -8.4931     1.2933    -1.9093 C.ar    
  20 C20           -9.5340     2.1882    -1.7655 C.ar    
  21 C21           -9.2766     3.4552    -1.2583 C.ar    
  22 C22           -7.9774     3.7745    -0.9078 C.ar    
  23 C23            3.5356     2.3451     0.1020 C.3     
  24 C24            4.7920     1.6925    -0.4307 C.3     
  25 C25            4.8964     0.2361    -0.0269 C.3     
  26 C26            3.6794    -0.5619    -0.4367 C.3     
  27 C27            6.1347    -0.3739    -0.6867 C.3     
  28 C28            5.0554     0.1529     1.4925 C.3     
  29 H29           -1.1718    -1.8045     0.0457 H       
  30 H30           -3.3068    -0.6214     0.1060 H       
  31 H31           -1.2737     3.1555     0.0325 H       
  32 H32           -4.2905     2.0936    -1.9799 H       
  33 H33           -5.3189     1.0515    -0.9520 H       
  34 H34           -5.6022     4.3991     0.9597 H       
  35 H35           -6.3012     2.7781     1.2496 H       
  36 H36           -3.6273     3.0227     1.9902 H       
  37 H37           -8.6888     0.3070    -2.3034 H       
  38 H38          -10.5384     1.9062    -2.0448 H       
  39 H39          -10.0738     4.1736    -1.1364 H       
  40 H40           -7.7419     4.7506    -0.5100 H       
  41 H41            3.3642     3.2744    -0.4412 H       
  42 H42            3.6803     2.5782     1.1569 H       
  43 H43            4.7909     1.7587    -1.5187 H       
  44 H44            5.6595     2.2291    -0.0464 H       
  45 H45            3.6886    -1.5122     0.0971 H       
  46 H46            3.7378    -0.7641    -1.5062 H       
  47 H47            7.0238     0.1641    -0.3580 H       
  48 H48            6.2186    -1.4228    -0.4020 H       
  49 H49            6.0438    -0.2977    -1.7703 H       
  50 H50            4.1895     0.6075     1.9739 H       
  51 H51            5.1314    -0.8920     1.7932 H       
  52 H52            5.9586     0.6841     1.7929 H       
@<TRIPOS>BOND
   1    1    2 ar
   2    1    7 1
   3    1    6 ar
   4    2    3 ar
   5    2   10 1
   6    3    4 ar
   7    3   29 1
   8    4    5 ar
   9    4   30 1
  10    5    6 ar
  11    5   12 1
  12    6   31 1
  13    7    8 2
  14    8    9 1
  15    8   23 1
  16    9   10 am
  17    9   26 1
  18   10   11 2
  19   12   13 1
  20   12   16 2
  21   13   14 1
  22   13   32 1
  23   13   33 1
  24   14   15 1
  25   14   17 1
  26   15   16 1
  27   15   34 1
  28   15   35 1
  29   16   36 1
  30   17   18 ar
  31   17   22 ar
  32   18   19 ar
  33   19   20 ar
  34   19   37 1
  35   20   21 ar
  36   20   38 1
  37   21   22 ar
  38   21   39 1
  39   22   40 1
  40   23   24 1
  41   23   41 1
  42   23   42 1
  43   24   25 1
  44   24   43 1
  45   24   44 1
  46   25   26 1
  47   25   27 1
  48   25   28 1
  49   26   45 1
  50   26   46 1
  51   27   47 1
  52   27   48 1
  53   27   49 1
  54   28   50 1
  55   28   51 1
  56   28   52 1

#	End of record

