#	Name: ASD00311365
#	Creating user name:	WinNT
#	Creation time:	15. 06. 2019 18:34

#	Modifying user name:	WinNT
#	Modification time:	15. 06. 2019 18:34

#	Program:	/corina/corina34_cracker 3.40 0067  02.08.2006

@<TRIPOS>MOLECULE
ASD00311365
  39   42    0    0    0
SMALL
NO_CHARGES


@<TRIPOS>ATOM
   1 C1            -0.0179     1.4700     0.0101 C.2     
   2 C2             0.0021    -0.0041     0.0020 C.ar    
   3 C3             1.2225    -0.6873    -0.0133 C.ar    
   4 C4             1.2401    -2.0529    -0.0209 C.ar    
   5 C5             0.0395    -2.7674    -0.0137 C.ar    
   6 C6            -1.1799    -2.0858     0.0016 C.ar    
   7 C7            -1.1993    -0.7203     0.0154 C.ar    
   8 O8             1.0260     2.0918     0.0035 O.2     
   9 O9            -1.1940     2.1279     0.0193 O.3     
  10 C10           -0.5308    -6.4098     0.7159 C.2     
  11 C11           -0.7102    -5.0555     0.9207 C.2     
  12 C12           -1.5753    -4.6249     1.9686 C.2     
  13 C13           -2.2162    -5.5713     2.7575 C.2     
  14 C14           -1.9990    -6.9417     2.5068 C.2     
  15 N15           -1.1811    -7.3271     1.5152 N.am    
  16 C16            0.0596    -4.2464    -0.0229 C.2     
  17 C17            0.7807    -4.9540    -0.8924 C.2     
  18 S18            0.5819    -6.6742    -0.6226 S.3     
  19 O19           -2.5572    -7.7808     3.1946 O.2     
  20 C20           -3.1188    -5.1452     3.8518 C.ar    
  21 C21           -4.4810    -5.4385     3.7902 C.ar    
  22 C22           -5.3168    -5.0388     4.8128 C.ar    
  23 C23           -4.8062    -4.3481     5.8973 C.ar    
  24 C24           -3.4560    -4.0542     5.9641 C.ar    
  25 C25           -2.6091    -4.4539     4.9508 C.ar    
  26 O26           -1.7702    -3.3045     2.1932 O.3     
  27 H27            2.1507    -0.1351    -0.0195 H       
  28 H28            2.1823    -2.5806    -0.0327 H       
  29 H29           -2.1075    -2.6390     0.0067 H       
  30 H30           -2.1420    -0.1936     0.0317 H       
  31 H31           -1.1565     3.0941     0.0244 H       
  32 H32           -1.0436    -8.2741     1.3567 H       
  33 H33            1.4078    -4.5240    -1.6593 H       
  34 H34           -4.8808    -5.9771     2.9438 H       
  35 H35           -6.3717    -5.2654     4.7663 H       
  36 H36           -5.4645    -4.0367     6.6949 H       
  37 H37           -3.0633    -3.5143     6.8131 H       
  38 H38           -1.5544    -4.2281     5.0063 H       
  39 H39           -2.3733    -3.1148     2.9249 H       
@<TRIPOS>BOND
   1    1    2 1
   2    1    8 2
   3    1    9 1
   4    2    3 ar
   5    2    7 ar
   6    3    4 ar
   7    3   27 1
   8    4    5 ar
   9    4   28 1
  10    5    6 ar
  11    5   16 1
  12    6    7 ar
  13    6   29 1
  14    7   30 1
  15    9   31 1
  16   10   11 2
  17   10   15 1
  18   10   18 1
  19   11   12 1
  20   11   16 1
  21   12   13 2
  22   12   26 1
  23   13   14 1
  24   13   20 1
  25   14   15 am
  26   14   19 2
  27   15   32 1
  28   16   17 2
  29   17   18 1
  30   17   33 1
  31   20   21 ar
  32   20   25 ar
  33   21   22 ar
  34   21   34 1
  35   22   23 ar
  36   22   35 1
  37   23   24 ar
  38   23   36 1
  39   24   25 ar
  40   24   37 1
  41   25   38 1
  42   26   39 1

#	End of record

