#	Name: ASD01000097
#	Creating user name:	WinNT
#	Creation time:	15. 06. 2019 18:54

#	Modifying user name:	WinNT
#	Modification time:	15. 06. 2019 18:54

#	Program:	/corina/corina34_cracker 3.40 0067  02.08.2006

@<TRIPOS>MOLECULE
ASD01000097
  66   70    0    0    0
SMALL
NO_CHARGES


@<TRIPOS>ATOM
   1 C1             0.5266     0.7764    -0.0528 C.ar    
   2 C2             0.5826    -0.6048    -0.1337 C.ar    
   3 C3             1.8112    -1.2444    -0.1821 C.ar    
   4 C4             2.9722    -0.4970    -0.1492 C.ar    
   5 C5             2.9229     0.8987    -0.0746 C.ar    
   6 C6             1.6876     1.5261    -0.0231 C.ar    
   7 N7             4.2370    -1.0939    -0.1768 N.pl3   
   8 C8             5.4285    -0.2825    -0.5377 C.3     
   9 C9             5.3074     1.0187     0.2618 C.3     
  10 O10            4.0603     1.6400    -0.0642 O.3     
  11 F11           -0.5583    -1.3277    -0.1649 F       
  12 N12            4.5916    -2.2722     0.1334 N.2     
  13 C13            5.8699    -2.4554     0.3086 C.2     
  14 C14            6.5834    -1.1541    -0.0159 C.3     
  15 C15            7.1961    -0.5521     1.2224 C.ar    
  16 C16            7.0528    -1.1858     2.4425 C.ar    
  17 C17            7.9061     0.6309     1.1371 C.ar    
  18 C18            8.4681     1.1831     2.2730 C.ar    
  19 C19            8.3197     0.5526     3.4941 C.ar    
  20 C20            7.6148    -0.6336     3.5784 C.ar    
  21 C21            7.6420    -1.3661    -1.1000 C.3     
  22 C22            7.0354    -2.1638    -2.2561 C.3     
  23 C23            8.1236    -2.4794    -3.2843 C.3     
  24 N24            7.5411    -3.2453    -4.3943 N.3     
  25 C25            8.4915    -3.3634    -5.5082 C.3     
  26 C26            6.2731    -2.6499    -4.8365 C.3     
  27 C27            5.6105    -3.5726    -5.8650 C.3     
  28 N28            6.5775    -3.8455    -6.9391 N.am    
  29 C29            7.9198    -4.3153    -6.5643 C.3     
  30 C30            6.2422    -3.6700    -8.2327 C.2     
  31 O31            7.0211    -3.9815    -9.1086 O.2     
  32 C32            4.8995    -3.0869    -8.5907 C.3     
  33 C33            6.4830    -3.6513     0.7267 C.2     
  34 C34            5.6366    -4.8330     1.1246 C.3     
  35 O35            7.6946    -3.7310     0.7668 O.2     
  36 H36           -0.4321     1.2723    -0.0171 H       
  37 H37            1.8605    -2.3214    -0.2449 H       
  38 H38            1.6322     2.6028     0.0400 H       
  39 H39            5.4941    -0.0986    -1.6100 H       
  40 H40            5.3381     0.7970     1.3285 H       
  41 H41            6.1283     1.6865     0.0004 H       
  42 H42            6.5016    -2.1122     2.5085 H       
  43 H43            8.0221     1.1235     0.1830 H       
  44 H44            9.0234     2.1070     2.2062 H       
  45 H45            8.7590     0.9838     4.3815 H       
  46 H46            7.4988    -1.1263     4.5324 H       
  47 H47            7.9852    -0.3987    -1.4668 H       
  48 H48            8.4851    -1.9161    -0.6821 H       
  49 H49            6.6152    -3.0943    -1.8745 H       
  50 H50            6.2481    -1.5766    -2.7290 H       
  51 H51            8.5437    -1.5489    -3.6660 H       
  52 H52            8.9108    -3.0666    -2.8114 H       
  53 H53            8.6539    -2.3817    -5.9533 H       
  54 H54            9.4383    -3.7567    -5.1384 H       
  55 H55            5.6111    -2.5258    -3.9794 H       
  56 H56            6.4665    -1.6782    -5.2909 H       
  57 H57            5.3222    -4.5081    -5.3855 H       
  58 H58            4.7293    -3.0843    -6.2809 H       
  59 H59            8.5654    -4.3180    -7.4426 H       
  60 H60            7.8535    -5.3222    -6.1520 H       
  61 H61            4.9565    -1.9988    -8.5615 H       
  62 H62            4.6190    -3.4094    -9.5934 H       
  63 H63            4.1518    -3.4308    -7.8760 H       
  64 H64            4.5823    -4.5748     1.0247 H       
  65 H65            5.8664    -5.6791     0.4769 H       
  66 H66            5.8488    -5.0997     2.1599 H       
@<TRIPOS>BOND
   1    1    2 ar
   2    1    6 ar
   3    1   36 1
   4    2    3 ar
   5    2   11 1
   6    3    4 ar
   7    3   37 1
   8    4    5 ar
   9    4    7 1
  10    5    6 ar
  11    5   10 1
  12    6   38 1
  13    7    8 1
  14    7   12 1
  15    8    9 1
  16    8   14 1
  17    8   39 1
  18    9   10 1
  19    9   40 1
  20    9   41 1
  21   12   13 2
  22   13   14 1
  23   13   33 1
  24   14   15 1
  25   14   21 1
  26   15   16 ar
  27   15   17 ar
  28   16   20 ar
  29   16   42 1
  30   17   18 ar
  31   17   43 1
  32   18   19 ar
  33   18   44 1
  34   19   20 ar
  35   19   45 1
  36   20   46 1
  37   21   22 1
  38   21   47 1
  39   21   48 1
  40   22   23 1
  41   22   49 1
  42   22   50 1
  43   23   24 1
  44   23   51 1
  45   23   52 1
  46   24   25 1
  47   24   26 1
  48   25   29 1
  49   25   53 1
  50   25   54 1
  51   26   27 1
  52   26   55 1
  53   26   56 1
  54   27   28 1
  55   27   57 1
  56   27   58 1
  57   28   29 1
  58   28   30 am
  59   29   59 1
  60   29   60 1
  61   30   31 2
  62   30   32 1
  63   32   61 1
  64   32   62 1
  65   32   63 1
  66   33   34 1
  67   33   35 2
  68   34   64 1
  69   34   65 1
  70   34   66 1

#	End of record

