#	Name: ASD03091111
#	Creating user name:	WinNT
#	Creation time:	15. 06. 2019 20:30

#	Modifying user name:	WinNT
#	Modification time:	15. 06. 2019 20:30

#	Program:	/corina/corina34_cracker 3.40 0067  02.08.2006

@<TRIPOS>MOLECULE
ASD03091111
  42   44    0    0    0
SMALL
NO_CHARGES


@<TRIPOS>ATOM
   1 C1             0.1204     1.3598     0.7780 C.2     
   2 C2             0.0693    -0.0577     0.3757 C.ar    
   3 C3             1.2188    -0.6922    -0.1190 C.ar    
   4 C4             1.1620    -2.0276    -0.4957 C.ar    
   5 C5            -0.0208    -2.7292    -0.3846 C.ar    
   6 C6            -1.1643    -2.1063     0.1052 C.ar    
   7 C7            -1.1224    -0.7778     0.4906 C.ar    
   8 O8             1.1816     1.9535     0.7799 O.2     
   9 N9            -1.0101     1.9992     1.1382 N.am    
  10 N10           -2.3597    -2.8272     0.2139 N.pl3   
  11 N11           -3.0236    -6.0342     1.3542 N.3     
  12 C12           -1.9409    -5.1161     0.9760 C.3     
  13 C13           -2.4050    -4.2354    -0.1877 C.3     
  14 C14           -3.8438    -4.6190    -0.5555 C.3     
  15 C15           -4.7341    -4.4182     0.6774 C.3     
  16 C16           -4.2058    -5.2943     1.8168 C.3     
  17 C17           -3.8708    -6.1031    -0.9421 C.3     
  18 C18           -3.3668    -6.9320     0.2427 C.3     
  19 C19           -0.9594     3.4077     1.5379 C.3     
  20 N20            2.4121     0.0147    -0.2324 N.pl3   
  21 H21            2.0455    -2.5181    -0.8767 H       
  22 H22           -0.0593    -3.7674    -0.6797 H       
  23 H23           -2.0102    -0.2974     0.8747 H       
  24 H24           -1.8572     1.5268     1.1328 H       
  25 H25           -3.1579    -2.3943     0.5552 H       
  26 H26           -1.6834    -4.4869     1.8281 H       
  27 H27           -1.0666    -5.6910     0.6708 H       
  28 H28           -1.7523    -4.3914    -1.0466 H       
  29 H29           -4.1983    -3.9988    -1.3788 H       
  30 H30           -4.7085    -3.3713     0.9797 H       
  31 H31           -5.7579    -4.7067     0.4394 H       
  32 H32           -4.9793    -5.9989     2.1224 H       
  33 H33           -3.9324    -4.6643     2.6632 H       
  34 H34           -4.8912    -6.3984    -1.1865 H       
  35 H35           -3.2246    -6.2678    -1.8042 H       
  36 H36           -2.4825    -7.4944    -0.0569 H       
  37 H37           -4.1472    -7.6232     0.5612 H       
  38 H38           -0.3078     3.5161     2.4049 H       
  39 H39           -0.5700     4.0055     0.7138 H       
  40 H40           -1.9626     3.7495     1.7923 H       
  41 H41            2.3981     0.9822    -0.3008 H       
  42 H42            3.2579    -0.4600    -0.2429 H       
@<TRIPOS>BOND
   1    1    2 1
   2    1    8 2
   3    1    9 am
   4    2    3 ar
   5    2    7 ar
   6    3    4 ar
   7    3   20 1
   8    4    5 ar
   9    4   21 1
  10    5    6 ar
  11    5   22 1
  12    6    7 ar
  13    6   10 1
  14    7   23 1
  15    9   19 1
  16    9   24 1
  17   10   13 1
  18   10   25 1
  19   11   12 1
  20   11   16 1
  21   11   18 1
  22   12   13 1
  23   12   26 1
  24   12   27 1
  25   13   14 1
  26   13   28 1
  27   14   15 1
  28   14   17 1
  29   14   29 1
  30   15   16 1
  31   15   30 1
  32   15   31 1
  33   16   32 1
  34   16   33 1
  35   17   18 1
  36   17   34 1
  37   17   35 1
  38   18   36 1
  39   18   37 1
  40   19   38 1
  41   19   39 1
  42   19   40 1
  43   20   41 1
  44   20   42 1

#	End of record

