#	Name: ASD01912253
#	Creating user name:	WinNT
#	Creation time:	15. 06. 2019 19:59

#	Modifying user name:	WinNT
#	Modification time:	15. 06. 2019 19:59

#	Program:	/corina/corina34_cracker 3.40 0067  02.08.2006

@<TRIPOS>MOLECULE
ASD01912253
  46   49    0    0    0
SMALL
NO_CHARGES


@<TRIPOS>ATOM
   1 N1            -0.0157     1.3094     0.0092 N.ar    
   2 C2             0.0021    -0.0041     0.0020 C.ar    
   3 C3             1.2114    -0.7012    -0.0133 C.ar    
   4 N4             2.3566    -0.0576    -0.0207 N.ar    
   5 C5             2.3652     1.2806    -0.0136 C.ar    
   6 C6             3.5726     1.9961    -0.0217 C.ar    
   7 C7             3.5466     3.3738    -0.0145 C.ar    
   8 C8             2.3282     4.0651     0.0012 C.ar    
   9 C9             1.1461     3.3952     0.0093 C.ar    
  10 C10            1.1359     1.9888     0.0019 C.ar    
  11 N11            4.7450     4.0869    -0.0226 N.3     
  12 C12            4.4963     5.5339    -0.0129 C.3     
  13 C13            5.8168     6.2760     0.2230 C.3     
  14 C14            6.8181     5.8017    -0.8093 C.2     
  15 C15            6.9795     4.3083    -1.0019 C.3     
  16 C16            5.5851     3.6913    -1.1599 C.3     
  17 C17            7.5328     6.6693    -1.5246 C.2     
  18 C18            8.4731     6.1945    -2.4946 C.1     
  19 C19            9.2441     5.8052    -3.2898 C.1     
  20 C20           10.1844     5.3304    -4.2598 C.ar    
  21 C21           10.9318     6.2450    -5.0077 C.ar    
  22 C22           11.8354     5.7698    -5.9402 C.ar    
  23 C23           11.9658     4.3962    -6.0980 C.ar    
  24 C24           11.1952     3.5469    -5.3252 C.ar    
  25 N25           10.3446     4.0224    -4.4391 N.ar    
  26 C26           11.3352     2.0560    -5.4950 C.3     
  27 H27           -0.9293    -0.5507     0.0083 H       
  28 H28            1.2054    -1.7812    -0.0187 H       
  29 H29            4.5160     1.4704    -0.0331 H       
  30 H30            2.3286     5.1451     0.0073 H       
  31 H31            0.2151     3.9423     0.0218 H       
  32 H32            4.0753     5.8369    -0.9716 H       
  33 H33            3.7951     5.7770     0.7854 H       
  34 H34            5.6594     7.3493     0.1164 H       
  35 H35            6.1884     6.0560     1.2238 H       
  36 H36            7.5707     4.1149    -1.8969 H       
  37 H37            7.4759     3.8772    -0.1325 H       
  38 H38            5.6695     2.6050    -1.1891 H       
  39 H39            5.1335     4.0461    -2.0863 H       
  40 H40            7.4029     7.7306    -1.3728 H       
  41 H41           10.8049     7.3072    -4.8595 H       
  42 H42           12.4267     6.4520    -6.5330 H       
  43 H43           12.6630     3.9947    -6.8186 H       
  44 H44           12.1035     1.6838    -4.8174 H       
  45 H45           10.3848     1.5736    -5.2668 H       
  46 H46           11.6184     1.8325    -6.5235 H       
@<TRIPOS>BOND
   1    1    2 ar
   2    1   10 ar
   3    2    3 ar
   4    2   27 1
   5    3    4 ar
   6    3   28 1
   7    4    5 ar
   8    5    6 ar
   9    5   10 ar
  10    6    7 ar
  11    6   29 1
  12    7    8 ar
  13    7   11 1
  14    8    9 ar
  15    8   30 1
  16    9   10 ar
  17    9   31 1
  18   11   12 1
  19   11   16 1
  20   12   13 1
  21   12   32 1
  22   12   33 1
  23   13   14 1
  24   13   34 1
  25   13   35 1
  26   14   15 1
  27   14   17 2
  28   15   16 1
  29   15   36 1
  30   15   37 1
  31   16   38 1
  32   16   39 1
  33   17   18 1
  34   17   40 1
  35   18   19 3
  36   19   20 1
  37   20   21 ar
  38   20   25 ar
  39   21   22 ar
  40   21   41 1
  41   22   23 ar
  42   22   42 1
  43   23   24 ar
  44   23   43 1
  45   24   25 ar
  46   24   26 1
  47   26   44 1
  48   26   45 1
  49   26   46 1

#	End of record

