#	Name: ASD04560209
#	Creating user name:	WinNT
#	Creation time:	15. 06. 2019 20:49

#	Modifying user name:	WinNT
#	Modification time:	15. 06. 2019 20:49

#	Program:	/corina/corina34_cracker 3.40 0067  02.08.2006

@<TRIPOS>MOLECULE
ASD04560209
  36   38    0    0    0
SMALL
NO_CHARGES


@<TRIPOS>ATOM
   1 C1            -0.0189     1.3772     0.0235 C.ar    
   2 C2            -0.0009     0.0002     0.0452 C.ar    
   3 C3             1.2093    -0.6772     0.0565 C.ar    
   4 C4             2.3957     0.0121     0.0467 C.ar    
   5 C5             1.1754     2.0932     0.0129 C.ar    
   6 S6             1.4890     3.8268    -0.0141 S.3     
   7 C7             2.4025     1.4227     0.0245 C.ar    
   8 N8             3.4575     2.2612     0.0127 N.2     
   9 C9             3.2214     3.5272    -0.0085 C.2     
  10 N10            4.1942     4.5128    -0.0238 N.am    
  11 C11            5.4983     4.1725    -0.0177 C.2     
  12 N12            6.4451     5.1317    -0.0326 N.am    
  13 O13            5.8207     3.0004     0.0013 O.2     
  14 C14            7.7974     4.7817     0.0583 C.ar    
  15 C15            8.7174     5.6873     0.5704 C.ar    
  16 C16            8.2205     3.5266    -0.3581 C.ar    
  17 C17            9.5555     3.1838    -0.2674 C.ar    
  18 C18           10.4709     4.0899     0.2379 C.ar    
  19 C19           10.0509     5.3397     0.6590 C.ar    
  20 C20            8.2609     7.0485     1.0287 C.3     
  21 C21           -1.2960    -0.7704     0.0571 C.3     
  22 F22            9.3597     7.7745     1.5005 F       
  23 F23            7.6773     7.7304    -0.0445 F       
  24 F24            7.3217     6.9041     2.0555 F       
  25 Cl25          12.1480     3.6560     0.3505 Cl      
  26 F26           -1.6965    -1.0296    -1.2580 F       
  27 F27           -1.1127    -1.9799     0.7358 F       
  28 F28           -2.2809    -0.0169     0.7047 F       
  29 H29           -0.9620     1.9032     0.0102 H       
  30 H30            1.2179    -1.7570     0.0735 H       
  31 H31            3.3305    -0.5288     0.0564 H       
  32 H32            3.9370     5.4479    -0.0389 H       
  33 H33            6.1894     6.0644    -0.1063 H       
  34 H34            7.5063     2.8188    -0.7523 H       
  35 H35            9.8850     2.2075    -0.5909 H       
  36 H36           10.7667     6.0436     1.0572 H       
@<TRIPOS>BOND
   1    1    2 ar
   2    1    5 ar
   3    1   29 1
   4    2    3 ar
   5    2   21 1
   6    3    4 ar
   7    3   30 1
   8    4    7 ar
   9    4   31 1
  10    5    7 ar
  11    5    6 1
  12    6    9 1
  13    7    8 1
  14    8    9 2
  15    9   10 1
  16   10   11 am
  17   10   32 1
  18   11   12 am
  19   11   13 2
  20   12   14 1
  21   12   33 1
  22   14   16 ar
  23   14   15 ar
  24   15   19 ar
  25   15   20 1
  26   16   17 ar
  27   16   34 1
  28   17   18 ar
  29   17   35 1
  30   18   19 ar
  31   18   25 1
  32   19   36 1
  33   20   22 1
  34   20   23 1
  35   20   24 1
  36   21   26 1
  37   21   27 1
  38   21   28 1

#	End of record

