#	Name: ASD05490008
#	Creating user name:	WinNT
#	Creation time:	15. 06. 2019 21:00

#	Modifying user name:	WinNT
#	Modification time:	15. 06. 2019 21:00

#	Program:	/corina/corina34_cracker 3.40 0067  02.08.2006

@<TRIPOS>MOLECULE
ASD05490008
  67   71    0    0    0
SMALL
NO_CHARGES


@<TRIPOS>ATOM
   1 O1            -0.0173     1.4248     0.0099 O.3     
   2 N2             2.7162     5.3699     0.0053 N.am    
   3 N3             2.2880     1.3303    -0.0126 N.ar    
   4 C4             3.4867     1.9104    -0.0211 C.ar    
   5 C5             1.1817     2.0564     0.0018 C.ar    
   6 N6             1.2086     3.3789     0.0091 N.ar    
   7 C7             2.3660     4.0319     0.0015 C.ar    
   8 C8             3.5555     3.3024    -0.0142 C.ar    
   9 N9             4.6434     1.1447    -0.0366 N.pl3   
  10 C10            4.0594     5.4635    -0.0126 C.2     
  11 N11            4.5983     4.2283    -0.0196 N.am    
  12 O12            4.6902     6.5042    -0.0150 O.2     
  13 C13            1.7812     6.4976     0.0199 C.3     
  14 C14            1.4739     6.8769     1.4457 C.ar    
  15 C15            2.2557     7.8155     2.0941 C.ar    
  16 C16            1.9792     8.1683     3.4029 C.ar    
  17 C17            0.9209     7.5844     4.0688 C.ar    
  18 C18            0.1298     6.6380     3.4203 C.ar    
  19 C19            0.4091     6.2909     2.1002 C.ar    
  20 C20           -1.0095     6.0066     4.1311 C.ar    
  21 C21           -1.2922     6.3578     5.4494 C.ar    
  22 C22           -2.3532     5.7673     6.1059 C.ar    
  23 C23           -3.1347     4.8283     5.4576 C.ar    
  24 C24           -2.8582     4.4755     4.1488 C.ar    
  25 C25           -1.8041     5.0645     3.4807 C.ar    
  26 C26            0.0021    -0.0041     0.0020 C.3     
  27 C27           -1.4333    -0.5336     0.0129 C.3     
  28 C28           -1.4126    -2.0635     0.0045 C.3     
  29 C29           -2.8479    -2.5931     0.0153 C.3     
  30 C30           -2.6602     6.1461     7.5318 C.3     
  31 N31           -3.5980     7.2767     7.5471 N.3     
  32 C32           -4.1062     7.5234     8.9090 C.3     
  33 C33           -2.9481     8.5108     7.0565 C.3     
  34 C34           -3.6026     9.6536     7.8720 C.3     
  35 C35           -3.7733     8.9880     9.2629 C.3     
  36 H36            4.5841     0.1765    -0.0414 H       
  37 H37            5.5114     1.5775    -0.0427 H       
  38 H38            5.5456     4.0197    -0.0267 H       
  39 H39            2.2297     7.3481    -0.4936 H       
  40 H40            0.8594     6.2120    -0.4868 H       
  41 H41            3.0853     8.2744     1.5770 H       
  42 H42            2.5929     8.9018     3.9046 H       
  43 H43            0.7063     7.8600     5.0908 H       
  44 H44           -0.2009     5.5581     1.5929 H       
  45 H45           -0.6821     7.0904     5.9568 H       
  46 H46           -3.9636     4.3685     5.9751 H       
  47 H47           -3.4715     3.7415     3.6474 H       
  48 H48           -1.5891     4.7883     2.4590 H       
  49 H49            0.5123    -0.3556    -0.8948 H       
  50 H50            0.5293    -0.3651     0.8851 H       
  51 H51           -1.9435    -0.1821     0.9097 H       
  52 H52           -1.9605    -0.1726    -0.8702 H       
  53 H53           -0.9024    -2.4150    -0.8923 H       
  54 H54           -0.8854    -2.4246     0.8875 H       
  55 H55           -3.3581    -2.2415     0.9121 H       
  56 H56           -3.3751    -2.2320    -0.8677 H       
  57 H57           -2.8332    -3.6829     0.0093 H       
  58 H58           -3.1083     5.2954     8.0453 H       
  59 H59           -1.7383     6.4318     8.0384 H       
  60 H60           -5.1853     7.3716     8.9352 H       
  61 H61           -3.6178     6.8512     9.6144 H       
  62 H62           -1.8753     8.4757     7.2458 H       
  63 H63           -3.1423     8.6446     5.9923 H       
  64 H64           -2.9421    10.5187     7.9315 H       
  65 H65           -4.5689     9.9303     7.4503 H       
  66 H66           -4.5948     9.4481     9.8121 H       
  67 H67           -2.8466     9.0455     9.8340 H       
@<TRIPOS>BOND
   1    1   26 1
   2    1    5 1
   3    2   13 1
   4    2    7 1
   5    2   10 am
   6    3    4 ar
   7    3    5 ar
   8    4    9 1
   9    4    8 ar
  10    5    6 ar
  11    6    7 ar
  12    7    8 ar
  13    8   11 1
  14    9   36 1
  15    9   37 1
  16   10   11 am
  17   10   12 2
  18   11   38 1
  19   13   14 1
  20   13   39 1
  21   13   40 1
  22   14   15 ar
  23   14   19 ar
  24   15   16 ar
  25   15   41 1
  26   16   17 ar
  27   16   42 1
  28   17   18 ar
  29   17   43 1
  30   18   19 ar
  31   18   20 1
  32   19   44 1
  33   20   21 ar
  34   20   25 ar
  35   21   22 ar
  36   21   45 1
  37   22   23 ar
  38   22   30 1
  39   23   24 ar
  40   23   46 1
  41   24   25 ar
  42   24   47 1
  43   25   48 1
  44   26   27 1
  45   26   49 1
  46   26   50 1
  47   27   28 1
  48   27   51 1
  49   27   52 1
  50   28   29 1
  51   28   53 1
  52   28   54 1
  53   29   55 1
  54   29   56 1
  55   29   57 1
  56   30   31 1
  57   30   58 1
  58   30   59 1
  59   31   32 1
  60   31   33 1
  61   32   35 1
  62   32   60 1
  63   32   61 1
  64   33   34 1
  65   33   62 1
  66   33   63 1
  67   34   35 1
  68   34   64 1
  69   34   65 1
  70   35   66 1
  71   35   67 1

#	End of record

