#	Name: ASD02038757
#	Creating user name:	WinNT
#	Creation time:	15. 06. 2019 20:17

#	Modifying user name:	WinNT
#	Modification time:	15. 06. 2019 20:17

#	Program:	/corina/corina34_cracker 3.40 0067  02.08.2006

@<TRIPOS>MOLECULE
ASD02038757
  47   49    0    0    0
SMALL
NO_CHARGES


@<TRIPOS>ATOM
   1 C1            -1.1593    -0.5723     0.4263 C.2     
   2 C2             0.1464     0.0903     0.2635 C.2     
   3 N3             1.2626    -0.6490     0.1084 N.am    
   4 C4             1.1928    -2.1094     0.2021 C.3     
   5 C5             1.0654    -2.6959    -1.1802 C.ar    
   6 C6             2.5456     0.0077    -0.1537 C.3     
   7 O7             0.2171     1.3045     0.2690 O.2     
   8 N8            -1.3824    -1.9112     0.4497 N.2     
   9 C9            -2.6567    -2.1229     0.6102 C.2     
  10 N10           -3.2964    -0.9275     0.6954 N.pl3   
  11 C11           -2.3638     0.0478     0.5869 C.2     
  12 C12            2.1938    -2.8639    -1.9699 C.ar    
  13 C13           -0.1741    -3.0718    -1.6600 C.ar    
  14 C14           -0.2916    -3.6104    -2.9283 C.ar    
  15 C15            0.8305    -3.7741    -3.7190 C.ar    
  16 C16            2.0732    -3.4040    -3.2418 C.ar    
  17 C17            2.4472     0.8280    -1.4436 C.3     
  18 C18            3.7660     1.5727    -1.6674 C.3     
  19 O19            4.0412     2.4017    -0.5364 O.3     
  20 C20            4.1907     1.6842     0.6904 C.3     
  21 C21            2.8890     0.9440     1.0089 C.3     
  22 C22           -4.7364    -0.7293     0.8783 C.3     
  23 C23            4.5324    -2.7014    -2.3659 C.3     
  24 F24            4.3487    -1.9656    -3.5414 F       
  25 F25            4.6404    -4.0607    -2.6786 F       
  26 F26            5.7019    -2.2755    -1.7270 F       
  27 O27            3.4151    -2.4996    -1.4981 O.3     
  28 H28            2.0995    -2.4869     0.6748 H       
  29 H29            0.3263    -2.3942     0.7989 H       
  30 H30            3.3260    -0.7459    -0.2595 H       
  31 H31           -3.1293    -3.0924     0.6661 H       
  32 H32           -2.5405     1.1129     0.6147 H       
  33 H33           -1.0522    -2.9453    -1.0441 H       
  34 H34           -1.2616    -3.9041    -3.3015 H       
  35 H35            0.7362    -4.1953    -4.7090 H       
  36 H36            2.9495    -3.5320    -3.8600 H       
  37 H37            2.2577     0.1620    -2.2853 H       
  38 H38            1.6330     1.5474    -1.3566 H       
  39 H39            4.5735     0.8517    -1.7947 H       
  40 H40            3.6868     2.1916    -2.5611 H       
  41 H41            5.0038     0.9646     0.5939 H       
  42 H42            4.4175     2.3834     1.4952 H       
  43 H43            2.0837     1.6657     1.1455 H       
  44 H44            3.0154     0.3609     1.9211 H       
  45 H45           -4.9645    -0.6834     1.9432 H       
  46 H46           -5.0383     0.2032     0.4015 H       
  47 H47           -5.2778    -1.5604     0.4263 H       
@<TRIPOS>BOND
   1    1    2 1
   2    1    8 1
   3    1   11 2
   4    2    3 am
   5    2    7 2
   6    3    4 1
   7    3    6 1
   8    4    5 1
   9    4   28 1
  10    4   29 1
  11    5   12 ar
  12    5   13 ar
  13    6   17 1
  14    6   21 1
  15    6   30 1
  16    8    9 2
  17    9   10 1
  18    9   31 1
  19   10   11 1
  20   10   22 1
  21   11   32 1
  22   12   27 1
  23   12   16 ar
  24   13   14 ar
  25   13   33 1
  26   14   15 ar
  27   14   34 1
  28   15   16 ar
  29   15   35 1
  30   16   36 1
  31   17   18 1
  32   17   37 1
  33   17   38 1
  34   18   19 1
  35   18   39 1
  36   18   40 1
  37   19   20 1
  38   20   21 1
  39   20   41 1
  40   20   42 1
  41   21   43 1
  42   21   44 1
  43   22   45 1
  44   22   46 1
  45   22   47 1
  46   23   24 1
  47   23   25 1
  48   23   26 1
  49   23   27 1

#	End of record

