#	Name: ASD03330199
#	Creating user name:	WinNT
#	Creation time:	15. 06. 2019 20:36

#	Modifying user name:	WinNT
#	Modification time:	15. 06. 2019 20:36

#	Program:	/corina/corina34_cracker 3.40 0067  02.08.2006

@<TRIPOS>MOLECULE
ASD03330199
  55   59    0    0    0
SMALL
NO_CHARGES


@<TRIPOS>ATOM
   1 C1            -0.6166     0.6341    -3.0270 C.ar    
   2 C2            -0.3300    -0.1274    -1.8662 C.ar    
   3 C3            -1.3884    -0.6324    -1.0933 C.ar    
   4 C4            -2.6872    -0.3801    -1.4747 C.ar    
   5 C5            -2.9612     0.3730    -2.6226 C.ar    
   6 C6            -1.9546     0.8680    -3.3900 C.ar    
   7 N7            -3.7438    -0.8819    -0.7075 N.am    
   8 C8            -4.8906    -0.1821    -0.6005 C.2     
   9 N9            -5.9458    -0.7128     0.0486 N.am    
  10 O10           -4.9733     0.9280    -1.0896 O.2     
  11 C11           -7.0988     0.0535     0.2539 C.ar    
  12 C12           -8.3444    -0.5550     0.2570 C.ar    
  13 C13           -9.4889     0.2117     0.4616 C.ar    
  14 C14           -9.3756     1.5863     0.6621 C.ar    
  15 C15           -8.1313     2.1847     0.6576 C.ar    
  16 C16           -6.9948     1.4238     0.4604 C.ar    
  17 C17          -10.8251    -0.4329     0.4657 C.ar    
  18 N18          -10.9237    -1.7429     0.2734 N.ar    
  19 C19          -11.9624     0.3404     0.6766 C.ar    
  20 C20          -13.2065    -0.2717     0.6790 C.ar    
  21 C21          -13.2729    -1.6383     0.4701 C.ar    
  22 C22          -12.0963    -2.3549     0.2703 C.ar    
  23 N23          -12.1547    -3.7275     0.0594 N.3     
  24 C24          -10.8054    -4.2911    -0.1292 C.3     
  25 C25          -10.6170    -5.3926     0.9350 C.3     
  26 C26          -12.0746    -5.7802     1.2985 C.3     
  27 C27          -12.7953    -4.4124     1.2025 C.3     
  28 C28            0.4445     1.1376    -3.7987 C.ar    
  29 C29            1.7288     0.8886    -3.4230 C.ar    
  30 C30            2.0105     0.1396    -2.2820 C.ar    
  31 C31            1.0092    -0.3638    -1.5099 C.ar    
  32 H32           -1.1850    -1.2145    -0.2067 H       
  33 H33           -3.9869     0.5594    -2.9048 H       
  34 H34           -2.1821     1.4476    -4.2724 H       
  35 H35           -3.6510    -1.7335    -0.2525 H       
  36 H36           -5.9062    -1.6259     0.3735 H       
  37 H37           -8.4271    -1.6205     0.1008 H       
  38 H38          -10.2614     2.1836     0.8207 H       
  39 H39           -8.0457     3.2501     0.8128 H       
  40 H40           -6.0239     1.8967     0.4577 H       
  41 H41          -11.8771     1.4050     0.8370 H       
  42 H42          -14.1048     0.3057     0.8407 H       
  43 H43          -14.2272    -2.1440     0.4663 H       
  44 H44          -10.7193    -4.7210    -1.1272 H       
  45 H45          -10.0556    -3.5117     0.0071 H       
  46 H46          -10.0844    -6.2463     0.5159 H       
  47 H47          -10.0936    -5.0006     1.8070 H       
  48 H48          -12.4821    -6.4878     0.5765 H       
  49 H49          -12.1312    -6.1811     2.3106 H       
  50 H50          -12.6477    -3.8405     2.1186 H       
  51 H51          -13.8587    -4.5563     1.0111 H       
  52 H52            0.2418     1.7191    -4.6859 H       
  53 H53            2.5418     1.2771    -4.0184 H       
  54 H54            3.0385    -0.0441    -2.0064 H       
  55 H55            1.2423    -0.9422    -0.6281 H       
@<TRIPOS>BOND
   1    1    2 ar
   2    1   28 ar
   3    1    6 ar
   4    2    3 ar
   5    2   31 ar
   6    3    4 ar
   7    3   32 1
   8    4    5 ar
   9    4    7 1
  10    5    6 ar
  11    5   33 1
  12    6   34 1
  13    7    8 am
  14    7   35 1
  15    8    9 am
  16    8   10 2
  17    9   11 1
  18    9   36 1
  19   11   12 ar
  20   11   16 ar
  21   12   13 ar
  22   12   37 1
  23   13   14 ar
  24   13   17 1
  25   14   15 ar
  26   14   38 1
  27   15   16 ar
  28   15   39 1
  29   16   40 1
  30   17   18 ar
  31   17   19 ar
  32   18   22 ar
  33   19   20 ar
  34   19   41 1
  35   20   21 ar
  36   20   42 1
  37   21   22 ar
  38   21   43 1
  39   22   23 1
  40   23   24 1
  41   23   27 1
  42   24   25 1
  43   24   44 1
  44   24   45 1
  45   25   26 1
  46   25   46 1
  47   25   47 1
  48   26   27 1
  49   26   48 1
  50   26   49 1
  51   27   50 1
  52   27   51 1
  53   28   29 ar
  54   28   52 1
  55   29   30 ar
  56   29   53 1
  57   30   31 ar
  58   30   54 1
  59   31   55 1

#	End of record

