#	Name: ASD03091443
#	Creating user name:	WinNT
#	Creation time:	15. 06. 2019 20:30

#	Modifying user name:	WinNT
#	Modification time:	15. 06. 2019 20:30

#	Program:	/corina/corina34_cracker 3.40 0067  02.08.2006

@<TRIPOS>MOLECULE
ASD03091443
  31   33    0    0    0
SMALL
NO_CHARGES


@<TRIPOS>ATOM
   1 C1             1.0776     3.4168    -0.1294 C.3     
   2 C2             0.3465     2.1497    -0.5778 C.3     
   3 N3             0.4051     1.1448     0.4915 N.3     
   4 C4            -0.2658     1.6240     1.7067 C.3     
   5 C5             0.4461     2.8753     2.2249 C.3     
   6 C6             1.9026     2.5305     2.5536 C.3     
   7 N7             2.5909     2.1556     1.3108 N.am    
   8 C8             2.5422     3.0785     0.1687 C.3     
   9 C9             0.4187     3.9588     1.1426 C.3     
  10 C10            3.2546     0.9861     1.2201 C.2     
  11 O11            3.3767     0.2780     2.2022 O.2     
  12 S12            3.0722     0.7327    -1.6447 S.3     
  13 C13            4.4347     0.0112    -2.3832 C.2     
  14 N14            5.3210    -0.2962    -1.4915 N.2     
  15 C15            5.0404    -0.0181    -0.2431 C.2     
  16 C16            3.8298     0.5668    -0.0625 C.2     
  17 H17            1.0293     4.1655    -0.9202 H       
  18 H18           -0.6945     2.3886    -0.7950 H       
  19 H19            0.8228     1.7537    -1.4747 H       
  20 H20            0.0136     0.2670     0.1845 H       
  21 H21           -1.3036     1.8654     1.4773 H       
  22 H22           -0.2342     0.8461     2.4696 H       
  23 H23           -0.0557     3.2353     3.1231 H       
  24 H24            2.3928     3.3980     2.9955 H       
  25 H25            1.9315     1.6955     3.2536 H       
  26 H26            2.9927     2.6047    -0.7035 H       
  27 H27            3.0857     3.9913     0.4129 H       
  28 H28            0.9654     4.8352     1.4908 H       
  29 H29           -0.6141     4.2340     0.9289 H       
  30 H30            4.5406    -0.1640    -3.4437 H       
  31 H31            5.7144    -0.2357     0.5722 H       
@<TRIPOS>BOND
   1    1    2 1
   2    1    8 1
   3    1    9 1
   4    1   17 1
   5    2    3 1
   6    2   18 1
   7    2   19 1
   8    3    4 1
   9    3   20 1
  10    4    5 1
  11    4   21 1
  12    4   22 1
  13    5    6 1
  14    5    9 1
  15    5   23 1
  16    6    7 1
  17    6   24 1
  18    6   25 1
  19    7    8 1
  20    7   10 am
  21    8   26 1
  22    8   27 1
  23    9   28 1
  24    9   29 1
  25   10   11 2
  26   10   16 1
  27   12   13 1
  28   12   16 1
  29   13   14 2
  30   13   30 1
  31   14   15 1
  32   15   16 2
  33   15   31 1

#	End of record

