#	Name: ASD01913052
#	Creating user name:	WinNT
#	Creation time:	15. 06. 2019 20:00

#	Modifying user name:	WinNT
#	Modification time:	15. 06. 2019 20:00

#	Program:	/corina/corina34_cracker 3.40 0067  02.08.2006

@<TRIPOS>MOLECULE
ASD01913052
  25   26    0    0    0
SMALL
NO_CHARGES


@<TRIPOS>ATOM
   1 N1            -0.0179     1.4653     0.0101 N.3     
   2 C2             0.0021    -0.0041     0.0020 C.3     
   3 C3             0.7337    -0.4948    -1.2495 C.3     
   4 N4             2.0995     0.0476    -1.2596 N.3     
   5 C5             2.0796     1.5170    -1.2515 C.3     
   6 C6             1.3479     2.0078    -0.0000 C.3     
   7 C7            -1.3265     1.0722     2.0063 C.ar    
   8 C8            -0.7411     1.9502     1.1027 C.ar    
   9 C9            -0.8855     3.3210     1.3024 C.ar    
  10 C10           -1.6112     3.7531     2.4005 C.ar    
  11 C11           -2.1639     2.8178     3.2552 C.ar    
  12 N12           -2.0090     1.5262     3.0383 N.ar    
  13 H13            0.5192    -0.3656     0.8908 H       
  14 H14           -1.0204    -0.3816    -0.0030 H       
  15 H15            0.7751    -1.5840    -1.2430 H       
  16 H16            0.2013    -0.1561    -2.1383 H       
  17 H17            2.6367    -0.3110    -0.4845 H       
  18 H18            3.1021     1.8946    -1.2465 H       
  19 H19            1.5625     1.8786    -2.1404 H       
  20 H20            1.3066     3.0970    -0.0066 H       
  21 H21            1.8803     1.6690     0.8887 H       
  22 H22           -1.2250     0.0071     1.8592 H       
  23 H23           -0.4423     4.0296     0.6183 H       
  24 H24           -1.7434     4.8086     2.5868 H       
  25 H25           -2.7303     3.1494     4.1128 H       
@<TRIPOS>BOND
   1    1    2 1
   2    1    6 1
   3    1    8 1
   4    2    3 1
   5    2   13 1
   6    2   14 1
   7    3    4 1
   8    3   15 1
   9    3   16 1
  10    4    5 1
  11    4   17 1
  12    5    6 1
  13    5   18 1
  14    5   19 1
  15    6   20 1
  16    6   21 1
  17    7    8 ar
  18    7   12 ar
  19    7   22 1
  20    8    9 ar
  21    9   10 ar
  22    9   23 1
  23   10   11 ar
  24   10   24 1
  25   11   12 ar
  26   11   25 1

#	End of record

