#	Name: ASD00170273
#	Creating user name:	WinNT
#	Creation time:	15. 06. 2019 18:31

#	Modifying user name:	WinNT
#	Modification time:	15. 06. 2019 18:31

#	Program:	/corina/corina34_cracker 3.40 0067  02.08.2006

@<TRIPOS>MOLECULE
ASD00170273
  32   34    0    0    0
SMALL
NO_CHARGES


@<TRIPOS>ATOM
   1 C1            -0.6771     0.2022    -1.2926 C.2     
   2 C2            -0.0091    -0.0270    -0.1130 C.2     
   3 C3            -0.6483     0.6027     1.0225 C.2     
   4 C4            -1.7448     1.2713     0.6993 C.2     
   5 S5            -2.0532     1.1715    -1.0250 S.3     
   6 C6             1.2164    -0.8231    -0.0159 C.2     
   7 C7             2.5290    -0.1696    -0.1317 C.2     
   8 O8             2.7243     1.1516    -0.3228 O.3     
   9 C9             4.0393     1.4382    -0.3865 C.ar    
  10 C10            4.7459     0.2315    -0.2274 C.ar    
  11 C11            3.7276    -0.8043    -0.0564 C.2     
  12 O12            1.1486    -2.0270     0.1609 O.2     
  13 N13           -0.2840    -0.2813    -2.5248 N.pl3   
  14 C14           -0.1199     0.5069     2.4306 C.3     
  15 C15           -2.6089     2.0212     1.6801 C.3     
  16 C16            4.7489     2.6196    -0.5675 C.ar    
  17 C17            6.1267     2.5961    -0.5889 C.ar    
  18 C18            6.8186     1.4029    -0.4314 C.ar    
  19 C19            6.1427     0.2293    -0.2510 C.ar    
  20 H20            3.8946    -1.8609     0.0925 H       
  21 H21            0.5578    -0.7548    -2.6140 H       
  22 H22           -0.8498    -0.1473    -3.3013 H       
  23 H23            0.5694     1.3305     2.6168 H       
  24 H24           -0.9501     0.5616     3.1347 H       
  25 H25            0.4033    -0.4408     2.5586 H       
  26 H26           -2.2557     3.0490     1.7636 H       
  27 H27           -3.6413     2.0191     1.3304 H       
  28 H28           -2.5547     1.5380     2.6556 H       
  29 H29            4.2216     3.5540    -0.6915 H       
  30 H30            6.6742     3.5163    -0.7301 H       
  31 H31            7.8985     1.4024    -0.4511 H       
  32 H32            6.6858    -0.6962    -0.1290 H       
@<TRIPOS>BOND
   1    1    2 2
   2    1   13 1
   3    1    5 1
   4    2    3 1
   5    2    6 1
   6    3    4 2
   7    3   14 1
   8    4    5 1
   9    4   15 1
  10    6    7 1
  11    6   12 2
  12    7    8 1
  13    7   11 2
  14    8    9 1
  15    9   10 ar
  16    9   16 ar
  17   10   11 1
  18   10   19 ar
  19   11   20 1
  20   13   21 1
  21   13   22 1
  22   14   23 1
  23   14   24 1
  24   14   25 1
  25   15   26 1
  26   15   27 1
  27   15   28 1
  28   16   17 ar
  29   16   29 1
  30   17   18 ar
  31   17   30 1
  32   18   19 ar
  33   18   31 1
  34   19   32 1

#	End of record

