#	Name: ASD04590257
#	Creating user name:	WinNT
#	Creation time:	15. 06. 2019 20:50

#	Modifying user name:	WinNT
#	Modification time:	15. 06. 2019 20:50

#	Program:	/corina/corina34_cracker 3.40 0067  02.08.2006

@<TRIPOS>MOLECULE
ASD04590257
  55   58    0    0    0
SMALL
NO_CHARGES


@<TRIPOS>ATOM
   1 N1            -0.0169     1.3950     0.0097 N.pl3   
   2 N2             0.0021    -0.0041     0.0020 N.2     
   3 C3             1.2467    -0.4104    -0.0120 C.2     
   4 C4             2.0789     0.7381    -0.0138 C.2     
   5 C5             1.2484     1.8413     0.0000 C.2     
   6 N6             1.6782    -1.7391    -0.0233 N.am    
   7 C7             3.5511     0.7515    -0.0278 C.2     
   8 O8             4.1687    -0.2962    -0.0393 O.2     
   9 N9             4.2143     1.9248    -0.0278 N.am    
  10 C10            5.6792     1.9382    -0.0418 C.3     
  11 C11            6.1731     3.2540    -0.6494 C.3     
  12 C12            7.7025     3.2881    -0.6054 C.3     
  13 N13            8.1563     3.1700     0.7862 N.3     
  14 C14            7.7341     1.8931     1.3758 C.3     
  15 C15            6.2056     1.8173     1.3910 C.3     
  16 C16            0.7763    -2.7406    -0.0206 C.2     
  17 O17           -0.4132    -2.4876    -0.0083 O.2     
  18 C18            1.2317    -4.1426    -0.0325 C.ar    
  19 C19            0.2966    -5.1839    -0.0296 C.ar    
  20 C20            0.7296    -6.4924    -0.0407 C.ar    
  21 C21            2.0925    -6.7727    -0.0547 C.ar    
  22 C22            3.0204    -5.7343    -0.0575 C.ar    
  23 C23            2.5989    -4.4353    -0.0523 C.ar    
  24 Cl24          -1.4026    -4.8287    -0.0116 Cl      
  25 N25            2.5290    -8.0929    -0.0654 N.3     
  26 C26            3.9974    -8.1622    -0.0793 C.3     
  27 C27            1.9621    -8.8260    -1.2068 C.3     
  28 C28            2.4193   -10.2858    -1.1466 C.3     
  29 O29            3.8486   -10.3322    -1.1293 O.3     
  30 C30            4.4342    -9.6288    -0.0304 C.3     
  31 H31           -0.8125     1.9499     0.0167 H       
  32 H32            1.5606     2.8752     0.0023 H       
  33 H33            2.6270    -1.9408    -0.0331 H       
  34 H34            3.7217     2.7604    -0.0187 H       
  35 H35            6.0455     1.1019    -0.6372 H       
  36 H36            5.8371     3.3260    -1.6838 H       
  37 H37            5.7739     4.0915    -0.0773 H       
  38 H38            8.1012     2.4584    -1.1891 H       
  39 H39            8.0569     4.2300    -1.0243 H       
  40 H40            9.1565     3.2852     0.8513 H       
  41 H41            8.1326     1.0699     0.7828 H       
  42 H42            8.1114     1.8217     2.3959 H       
  43 H43            5.8069     2.6322     1.9952 H       
  44 H44            5.8928     0.8628     1.8143 H       
  45 H45            0.0118    -7.2994    -0.0383 H       
  46 H46            4.0772    -5.9570    -0.0680 H       
  47 H47            3.3223    -3.6334    -0.0545 H       
  48 H48            4.3750    -7.7002    -0.9914 H       
  49 H49            4.3949    -7.6350     0.7880 H       
  50 H50            0.8739    -8.7833    -1.1625 H       
  51 H51            2.3072    -8.3745    -2.1369 H       
  52 H52            2.0291   -10.7525    -0.2421 H       
  53 H53            2.0484   -10.8198    -2.0215 H       
  54 H54            5.5205    -9.6874    -0.0981 H       
  55 H55            4.1026   -10.0763     0.9065 H       
@<TRIPOS>BOND
   1    1    2 1
   2    1    5 1
   3    1   31 1
   4    2    3 2
   5    3    4 1
   6    3    6 1
   7    4    5 2
   8    4    7 1
   9    5   32 1
  10    6   16 am
  11    6   33 1
  12    7    8 2
  13    7    9 am
  14    9   10 1
  15    9   34 1
  16   10   11 1
  17   10   15 1
  18   10   35 1
  19   11   12 1
  20   11   36 1
  21   11   37 1
  22   12   13 1
  23   12   38 1
  24   12   39 1
  25   13   14 1
  26   13   40 1
  27   14   15 1
  28   14   41 1
  29   14   42 1
  30   15   43 1
  31   15   44 1
  32   16   17 2
  33   16   18 1
  34   18   19 ar
  35   18   23 ar
  36   19   20 ar
  37   19   24 1
  38   20   21 ar
  39   20   45 1
  40   21   22 ar
  41   21   25 1
  42   22   23 ar
  43   22   46 1
  44   23   47 1
  45   25   26 1
  46   25   27 1
  47   26   30 1
  48   26   48 1
  49   26   49 1
  50   27   28 1
  51   27   50 1
  52   27   51 1
  53   28   29 1
  54   28   52 1
  55   28   53 1
  56   29   30 1
  57   30   54 1
  58   30   55 1

#	End of record

