#	Name: ASD09330001
#	Creating user name:	WinNT
#	Creation time:	15. 06. 2019 21:21

#	Modifying user name:	WinNT
#	Modification time:	15. 06. 2019 21:21

#	Program:	/corina/corina34_cracker 3.40 0067  02.08.2006

@<TRIPOS>MOLECULE
ASD09330001
  18   17    0    0    0
SMALL
NO_CHARGES


@<TRIPOS>ATOM
   1 C1            -0.0184     1.5028     0.0103 C.2     
   2 C2             0.0021    -0.0041     0.0020 C.3     
   3 C3            -0.2550    -0.5098    -1.4189 C.3     
   4 O4             1.0197     2.1211     0.0037 O.2     
   5 O5            -1.1898     2.1580     0.0194 O.3     
   6 P6            -0.3780    -2.3286    -1.4036 P.3     
   7 O7             0.8389    -2.9002    -0.7850 O.2     
   8 O8            -1.6713    -2.7719    -0.5532 O.3     
   9 O9            -0.5173    -2.8697    -2.9136 O.3     
  10 N10            1.3145    -0.4785     0.4607 N.3     
  11 H11           -0.7738    -0.3816     0.6680 H       
  12 H12           -1.1871    -0.0857    -1.7924 H       
  13 H13            0.5674    -0.2067    -2.0668 H       
  14 H14           -1.1523     3.1243     0.0245 H       
  15 H15           -2.5068    -2.4323    -0.9022 H       
  16 H16           -0.5875    -3.8318    -2.9817 H       
  17 H17            2.0512    -0.1417    -0.1409 H       
  18 H18            1.4805    -0.2121     1.4196 H       
@<TRIPOS>BOND
   1    1    2 1
   2    1    4 2
   3    1    5 1
   4    2    3 1
   5    2   10 1
   6    2   11 1
   7    3    6 1
   8    3   12 1
   9    3   13 1
  10    5   14 1
  11    6    7 2
  12    6    8 1
  13    6    9 1
  14    8   15 1
  15    9   16 1
  16   10   17 1
  17   10   18 1

#	End of record

