#	Name: ASD08150891
#	Creating user name:	WinNT
#	Creation time:	15. 06. 2019 21:16

#	Modifying user name:	WinNT
#	Modification time:	15. 06. 2019 21:16

#	Program:	/corina/corina34_cracker 3.40 0067  02.08.2006

@<TRIPOS>MOLECULE
ASD08150891
  48   52    0    0    0
SMALL
NO_CHARGES


@<TRIPOS>ATOM
   1 N1             3.9795     3.0118     2.9914 N.2     
   2 C2             4.9499     2.3157     3.5072 C.2     
   3 N3             5.9947     2.2533     2.6319 N.pl3   
   4 C4             5.6348     2.9578     1.5111 C.ar    
   5 N5             6.2233     3.2413     0.3535 N.ar    
   6 C6             5.5986     3.9678    -0.5592 C.ar    
   7 N7             4.3744     4.4431    -0.3697 N.ar    
   8 C8             3.7133     4.2074     0.7581 C.ar    
   9 C9             4.3381     3.4395     1.7558 C.ar    
  10 N10            6.2451     4.2420    -1.7532 N.pl3   
  11 N11            2.4371     4.7076     0.9468 N.pl3   
  12 C12            1.8007     5.5066    -0.1033 C.3     
  13 C13            1.1802     4.5757    -1.1470 C.3     
  14 C14            1.0751     7.5046     1.2121 C.ar    
  15 C15            0.7243     6.3687     0.5041 C.ar    
  16 C16           -0.6109     6.0148     0.3469 C.ar    
  17 C17           -1.6083     6.7722     0.8827 C.ar    
  18 C18           -1.2970     7.9341     1.6093 C.ar    
  19 C19           -2.3076     8.7336     2.1714 C.ar    
  20 C20           -1.9711     9.8528     2.8691 C.ar    
  21 C21           -0.6374    10.2200     3.0350 C.ar    
  22 C22            0.3672     9.4692     2.5037 C.ar    
  23 C23            0.0582     8.3087     1.7793 C.ar    
  24 C24            3.2602     8.2815     0.2842 C.ar    
  25 C25            2.5005     7.8717     1.3797 C.ar    
  26 C26            3.1058     7.8134     2.6386 C.ar    
  27 C27            4.4421     8.1677     2.7420 C.ar    
  28 C28            5.1271     8.5641     1.6050 C.ar    
  29 N29            4.5272     8.6091     0.4310 N.ar    
  30 F30            5.0691     8.1273     3.9380 F       
  31 H31            4.9314     1.8555     4.4841 H       
  32 H32            6.8376     1.7952     2.7759 H       
  33 H33            7.1405     3.9030    -1.9088 H       
  34 H34            5.8025     4.7729    -2.4336 H       
  35 H35            1.9637     4.5292     1.7745 H       
  36 H36            2.5479     6.1407    -0.5805 H       
  37 H37            0.6146     5.1649    -1.8689 H       
  38 H38            1.9703     4.0300    -1.6628 H       
  39 H39            0.5135     3.8690    -0.6529 H       
  40 H40           -0.8618     5.1240    -0.2099 H       
  41 H41           -2.6393     6.4797     0.7487 H       
  42 H42           -3.3456     8.4612     2.0500 H       
  43 H43           -2.7492    10.4653     3.3000 H       
  44 H44           -0.3966    11.1131     3.5927 H       
  45 H45            1.3967     9.7659     2.6398 H       
  46 H46            2.8062     8.3267    -0.6947 H       
  47 H47            2.5468     7.5007     3.5081 H       
  48 H48            6.1682     8.8410     1.6811 H       
@<TRIPOS>BOND
   1    1    2 2
   2    1    9 1
   3    2    3 1
   4    2   31 1
   5    3    4 1
   6    3   32 1
   7    4    5 ar
   8    4    9 ar
   9    5    6 ar
  10    6    7 ar
  11    6   10 1
  12    7    8 ar
  13    8    9 ar
  14    8   11 1
  15   10   33 1
  16   10   34 1
  17   11   12 1
  18   11   35 1
  19   12   13 1
  20   12   15 1
  21   12   36 1
  22   13   37 1
  23   13   38 1
  24   13   39 1
  25   14   15 ar
  26   14   23 ar
  27   14   25 1
  28   15   16 ar
  29   16   17 ar
  30   16   40 1
  31   17   18 ar
  32   17   41 1
  33   18   19 ar
  34   18   23 ar
  35   19   20 ar
  36   19   42 1
  37   20   21 ar
  38   20   43 1
  39   21   22 ar
  40   21   44 1
  41   22   23 ar
  42   22   45 1
  43   24   25 ar
  44   24   29 ar
  45   24   46 1
  46   25   26 ar
  47   26   27 ar
  48   26   47 1
  49   27   28 ar
  50   27   30 1
  51   28   29 ar
  52   28   48 1

#	End of record

