#	Name: ASD01150285
#	Creating user name:	WinNT
#	Creation time:	15. 06. 2019 19:03

#	Modifying user name:	WinNT
#	Modification time:	15. 06. 2019 19:03

#	Program:	/corina/corina34_cracker 3.40 0067  02.08.2006

@<TRIPOS>MOLECULE
ASD01150285
  65   67    0    0    0
SMALL
NO_CHARGES


@<TRIPOS>ATOM
   1 C1            -0.1220     1.2827    -0.7455 C.2     
   2 N2            -0.0891    -0.0295    -0.6440 N.2     
   3 C3            -1.2839    -0.4895    -0.2630 C.2     
   4 C4            -2.1304     0.6015    -0.1128 C.2     
   5 N5            -1.3648     1.7283    -0.4211 N.pl3   
   6 N6             0.9371     2.0789    -1.1160 N.3     
   7 C7             2.1326     1.2706    -1.3907 C.3     
   8 C8             0.5886     2.9135    -2.2736 C.3     
   9 C9            -1.7970     3.0608    -0.4072 C.ar    
  10 N10           -1.6204    -1.8226    -0.0545 N.am    
  11 C11           -3.4850     0.5769     0.2764 C.2     
  12 O12           -4.1796     1.7306     0.3774 O.3     
  13 O13           -4.0289    -0.4847     0.5216 O.2     
  14 C14           -5.5480     1.6312     0.7769 C.3     
  15 C15           -5.6298     0.9798     2.1589 C.3     
  16 C16           -6.1653     3.0299     0.8351 C.3     
  17 C17           -6.3141     0.7774    -0.2355 C.3     
  18 C18           -1.2530     3.9592     0.5011 C.ar    
  19 C19           -1.6812     5.2722     0.5123 C.ar    
  20 C20           -2.6505     5.6925    -0.3798 C.ar    
  21 C21           -3.1942     4.8003    -1.2856 C.ar    
  22 C22           -2.7660     3.4873    -1.3056 C.ar    
  23 C23           -0.6970    -2.7872    -0.2373 C.2     
  24 C24           -1.0616    -4.2319    -0.0113 C.3     
  25 O25            0.4273    -2.4926    -0.5837 O.2     
  26 C26            0.1702    -5.0887    -0.1514 C.ar    
  27 C27            1.2169    -4.9449     0.7402 C.ar    
  28 C28            2.3469    -5.7304     0.6122 C.ar    
  29 C29            2.4304    -6.6608    -0.4083 C.ar    
  30 C30            1.3825    -6.8042    -1.3003 C.ar    
  31 C31            0.2507    -6.0221    -1.1679 C.ar    
  32 Cl32           3.8496    -7.6474    -0.5700 Cl      
  33 C33           -1.6410    -4.3977     1.3950 C.3     
  34 C34           -2.1030    -4.6629    -1.0460 C.3     
  35 H35            1.9207     0.5719    -2.2000 H       
  36 H36            2.9546     1.9247    -1.6813 H       
  37 H37            2.4095     0.7154    -0.4945 H       
  38 H38           -0.2569     3.5527    -2.0193 H       
  39 H39            1.4434     3.5328    -2.5455 H       
  40 H40            0.3208     2.2743    -3.1149 H       
  41 H41           -2.5196    -2.0583     0.2226 H       
  42 H42           -5.0840     1.5880     2.8801 H       
  43 H43           -6.6736     0.9039     2.4636 H       
  44 H44           -5.1901    -0.0167     2.1174 H       
  45 H45           -6.1070     3.4940    -0.1495 H       
  46 H46           -7.2091     2.9541     1.1398 H       
  47 H47           -5.6195     3.6382     1.5563 H       
  48 H48           -5.8744    -0.2191    -0.2770 H       
  49 H49           -7.3579     0.7015     0.0692 H       
  50 H50           -6.2559     1.2415    -1.2201 H       
  51 H51           -0.4961     3.6314     1.1984 H       
  52 H52           -1.2587     5.9714     1.2188 H       
  53 H53           -2.9839     6.7197    -0.3689 H       
  54 H54           -3.9513     5.1314    -1.9809 H       
  55 H55           -3.1908     2.7909    -2.0135 H       
  56 H56            1.1517    -4.2183     1.5366 H       
  57 H57            3.1647    -5.6177     1.3086 H       
  58 H58            1.4471    -7.5304    -2.0971 H       
  59 H59           -0.5674    -6.1340    -1.8641 H       
  60 H60           -2.5319    -3.7779     1.4963 H       
  61 H61           -1.9047    -5.4426     1.5584 H       
  62 H62           -0.8991    -4.0906     2.1321 H       
  63 H63           -1.6902    -4.5448    -2.0479 H       
  64 H64           -2.3667    -5.7078    -0.8826 H       
  65 H65           -2.9939    -4.0432    -0.9448 H       
@<TRIPOS>BOND
   1    1    2 2
   2    1    6 1
   3    1    5 1
   4    2    3 1
   5    3    4 2
   6    3   10 1
   7    4    5 1
   8    4   11 1
   9    5    9 1
  10    6    7 1
  11    6    8 1
  12    7   35 1
  13    7   36 1
  14    7   37 1
  15    8   38 1
  16    8   39 1
  17    8   40 1
  18    9   18 ar
  19    9   22 ar
  20   10   23 am
  21   10   41 1
  22   11   12 1
  23   11   13 2
  24   12   14 1
  25   14   15 1
  26   14   16 1
  27   14   17 1
  28   15   42 1
  29   15   43 1
  30   15   44 1
  31   16   45 1
  32   16   46 1
  33   16   47 1
  34   17   48 1
  35   17   49 1
  36   17   50 1
  37   18   19 ar
  38   18   51 1
  39   19   20 ar
  40   19   52 1
  41   20   21 ar
  42   20   53 1
  43   21   22 ar
  44   21   54 1
  45   22   55 1
  46   23   24 1
  47   23   25 2
  48   24   26 1
  49   24   33 1
  50   24   34 1
  51   26   27 ar
  52   26   31 ar
  53   27   28 ar
  54   27   56 1
  55   28   29 ar
  56   28   57 1
  57   29   30 ar
  58   29   32 1
  59   30   31 ar
  60   30   58 1
  61   31   59 1
  62   33   60 1
  63   33   61 1
  64   33   62 1
  65   34   63 1
  66   34   64 1
  67   34   65 1

#	End of record

