#	Name: ASD02198580
#	Creating user name:	WinNT
#	Creation time:	15. 06. 2019 20:19

#	Modifying user name:	WinNT
#	Modification time:	15. 06. 2019 20:19

#	Program:	/corina/corina34_cracker 3.40 0067  02.08.2006

@<TRIPOS>MOLECULE
ASD02198580
  48   52    0    0    0
SMALL
NO_CHARGES


@<TRIPOS>ATOM
   1 C1             0.0071     1.5093     0.1336 C.2     
   2 C2             0.0744     0.1695    -0.0946 C.2     
   3 N3            -1.0524    -0.5609    -0.2644 N.pl3   
   4 N4            -2.2303    -0.0574    -0.2241 N.2     
   5 C5            -2.4380     1.2253    -0.0113 C.2     
   6 C6            -1.2795     2.1062     0.1923 C.2     
   7 C7            -0.9249    -1.9329    -0.4958 C.ar    
   8 C8            -1.3881    -3.8603    -1.8515 C.ar    
   9 C9            -0.6721    -4.6559    -0.9543 C.ar    
  10 C10           -0.0892    -4.0784     0.1756 C.ar    
  11 C11           -0.2169    -2.7249     0.4007 C.ar    
  12 C12           -3.8113     1.7680     0.0281 C.2     
  13 N13           -4.3737     2.4807     1.0495 N.pl3   
  14 N14           -5.6852     2.7994     0.6758 N.2     
  15 C15           -5.9150     2.3068    -0.5151 C.2     
  16 C16           -4.7642     1.6563    -0.9604 C.2     
  17 C17           -3.7504     2.8291     2.2546 C.ar    
  18 C18           -2.9577     1.9039     2.9209 C.ar    
  19 O19           -1.4175     3.3041     0.3935 O.2     
  20 C20           -3.9193     4.1024     2.7825 C.ar    
  21 C21           -3.3030     4.4430     3.9706 C.ar    
  22 C22           -2.5181     3.5178     4.6342 C.ar    
  23 C23           -2.3442     2.2507     4.1086 C.ar    
  24 C24           -1.5125    -2.5057    -1.6217 C.ar    
  25 F25           -2.2048    -1.7345    -2.4884 F       
  26 O26            1.1344     2.2506     0.3053 O.3     
  27 C27            2.3828     1.5588     0.2348 C.3     
  28 C28           -0.5371    -6.1069    -1.1968 C.2     
  29 N29            0.1078    -6.9555    -0.4306 N.2     
  30 O30           -1.0590    -6.7811    -2.2364 O.3     
  31 C31           -0.7148    -8.0770    -2.0985 C.2     
  32 C32            0.0123    -8.1796    -0.9711 C.2     
  33 H33            1.0378    -0.3164    -0.1411 H       
  34 H34           -1.8397    -4.3040    -2.7264 H       
  35 H35            0.4649    -4.6917     0.8708 H       
  36 H36            0.2341    -2.2787     1.2747 H       
  37 H37           -6.8415     2.3926    -1.0636 H       
  38 H38           -4.6440     1.1505    -1.9071 H       
  39 H39           -2.8215     0.9140     2.5109 H       
  40 H40           -4.5316     4.8256     2.2644 H       
  41 H41           -3.4339     5.4331     4.3817 H       
  42 H42           -2.0370     3.7867     5.5630 H       
  43 H43           -1.7306     1.5303     4.6292 H       
  44 H44            3.1987     2.2650     0.3883 H       
  45 H45            2.4167     0.7908     1.0075 H       
  46 H46            2.4851     1.0928    -0.7453 H       
  47 H47           -0.9768    -8.8837    -2.7671 H       
  48 H48            0.4427    -9.0863    -0.5723 H       
@<TRIPOS>BOND
   1    1    2 2
   2    1   26 1
   3    1    6 1
   4    2    3 1
   5    2   33 1
   6    3    4 1
   7    3    7 1
   8    4    5 2
   9    5    6 1
  10    5   12 1
  11    6   19 2
  12    7   24 ar
  13    7   11 ar
  14    8    9 ar
  15    8   24 ar
  16    8   34 1
  17    9   10 ar
  18    9   28 1
  19   10   11 ar
  20   10   35 1
  21   11   36 1
  22   12   13 1
  23   12   16 2
  24   13   14 1
  25   13   17 1
  26   14   15 2
  27   15   16 1
  28   15   37 1
  29   16   38 1
  30   17   20 ar
  31   17   18 ar
  32   18   23 ar
  33   18   39 1
  34   20   21 ar
  35   20   40 1
  36   21   22 ar
  37   21   41 1
  38   22   23 ar
  39   22   42 1
  40   23   43 1
  41   24   25 1
  42   26   27 1
  43   27   44 1
  44   27   45 1
  45   27   46 1
  46   28   29 2
  47   28   30 1
  48   29   32 1
  49   30   31 1
  50   31   32 2
  51   31   47 1
  52   32   48 1

#	End of record

