#	Name: ASD02198015
#	Creating user name:	WinNT
#	Creation time:	15. 06. 2019 20:18

#	Modifying user name:	WinNT
#	Modification time:	15. 06. 2019 20:18

#	Program:	/corina/corina34_cracker 3.40 0067  02.08.2006

@<TRIPOS>MOLECULE
ASD02198015
  49   52    0    0    0
SMALL
NO_CHARGES


@<TRIPOS>ATOM
   1 C1             0.1302     0.6880     0.2101 C.2     
   2 C2            -0.0042    -0.6496     0.2598 C.2     
   3 N3            -1.2231    -1.2652     0.2777 N.pl3   
   4 C4            -2.3409    -0.5042    -0.0541 C.2     
   5 C5            -2.3070     0.8694    -0.1166 C.2     
   6 C6            -1.0309     1.6405     0.1893 C.3     
   7 C7             1.2383    -1.5016     0.2968 C.3     
   8 S8            -3.9432    -1.0979    -0.4426 S.3     
   9 C9            -4.5353     0.5391    -0.6869 C.2     
  10 C10           -3.5139     1.4365    -0.4658 C.2     
  11 C11           -5.8506     0.8804    -1.0526 C.2     
  12 O12           -6.1911     2.0509    -1.0817 O.2     
  13 C13           -6.8207    -0.1814    -1.4019 C.ar    
  14 N14           -3.6873     2.8108    -0.5854 N.pl3   
  15 C15            1.4265     1.2230     0.1818 C.2     
  16 O16            2.1551     1.1018     1.1469 O.2     
  17 C17            1.9158     1.9481    -1.0454 C.3     
  18 C18           -1.1620     2.3189     1.5286 C.ar    
  19 C19           -1.3774     1.5736     2.6726 C.ar    
  20 N20           -1.4936     2.1601     3.8478 N.ar    
  21 C21           -1.4098     3.4695     3.9806 C.ar    
  22 C22           -1.1956     4.2793     2.8816 C.ar    
  23 C23           -1.0625     3.6980     1.6296 C.ar    
  24 C24           -6.3745    -1.3877    -1.9431 C.ar    
  25 C25           -7.2838    -2.3737    -2.2662 C.ar    
  26 C26           -8.6356    -2.1683    -2.0546 C.ar    
  27 C27           -9.0845    -0.9743    -1.5187 C.ar    
  28 C28           -8.1849     0.0173    -1.1861 C.ar    
  29 N29           -9.6058    -3.2304    -2.4035 N.pl3   
  30 O30           -9.2135    -4.2824    -2.8758 O.2     
  31 O31          -10.7964    -3.0525    -2.2183 O.2     
  32 H32           -1.3074    -2.2023     0.5136 H       
  33 H33           -0.8647     2.3904    -0.5841 H       
  34 H34            1.5888    -1.5885     1.3252 H       
  35 H35            1.0107    -2.4931    -0.0946 H       
  36 H36            2.0141    -1.0393    -0.3136 H       
  37 H37           -4.5533     3.1706    -0.8334 H       
  38 H38           -2.9424     3.4098    -0.4208 H       
  39 H39            1.2726     2.8060    -1.2411 H       
  40 H40            2.9378     2.2900    -0.8820 H       
  41 H41            1.8909     1.2727    -1.9005 H       
  42 H42           -1.4517     0.4984     2.6030 H       
  43 H43           -1.5100     3.9142     4.9597 H       
  44 H44           -1.1286     5.3510     2.9967 H       
  45 H45           -0.8944     4.3058     0.7529 H       
  46 H46           -5.3196    -1.5490    -2.1091 H       
  47 H47           -6.9398    -3.3076    -2.6855 H       
  48 H48          -10.1411    -0.8199    -1.3566 H       
  49 H49           -8.5365     0.9488    -0.7676 H       
@<TRIPOS>BOND
   1    1    2 2
   2    1   15 1
   3    1    6 1
   4    2    3 1
   5    2    7 1
   6    3    4 1
   7    3   32 1
   8    4    5 2
   9    4    8 1
  10    5    6 1
  11    5   10 1
  12    6   18 1
  13    6   33 1
  14    7   34 1
  15    7   35 1
  16    7   36 1
  17    8    9 1
  18    9   10 2
  19    9   11 1
  20   10   14 1
  21   11   12 2
  22   11   13 1
  23   13   24 ar
  24   13   28 ar
  25   14   37 1
  26   14   38 1
  27   15   16 2
  28   15   17 1
  29   17   39 1
  30   17   40 1
  31   17   41 1
  32   18   19 ar
  33   18   23 ar
  34   19   20 ar
  35   19   42 1
  36   20   21 ar
  37   21   22 ar
  38   21   43 1
  39   22   23 ar
  40   22   44 1
  41   23   45 1
  42   24   25 ar
  43   24   46 1
  44   25   26 ar
  45   25   47 1
  46   26   27 ar
  47   26   29 1
  48   27   28 ar
  49   27   48 1
  50   28   49 1
  51   29   30 2
  52   29   31 2

#	End of record

