#	Name: ASD06172001
#	Creating user name:	WinNT
#	Creation time:	15. 06. 2019 21:05

#	Modifying user name:	WinNT
#	Modification time:	15. 06. 2019 21:05

#	Program:	/corina/corina34_cracker 3.40 0067  02.08.2006

@<TRIPOS>MOLECULE
ASD06172001
  36   39    0    0    0
SMALL
NO_CHARGES


@<TRIPOS>ATOM
   1 C1            -0.0169     1.3922     0.0097 C.ar    
   2 C2             0.0021    -0.0041     0.0020 C.ar    
   3 C3            -1.1905    -0.7172     0.0097 C.ar    
   4 C4            -2.3958    -0.0526     0.0242 C.ar    
   5 C5            -2.4228     1.3472     0.0318 C.ar    
   6 C6            -1.2212     2.0660     0.0299 C.ar    
   7 O7             1.2713     1.8447    -0.0002 O.3     
   8 C8             2.0761     0.7195     0.3990 C.3     
   9 O9             1.2999    -0.4207    -0.0131 O.3     
  10 C10           -3.7072     2.0592     0.0473 C.2     
  11 C11           -4.9990     1.2830     0.0549 C.3     
  12 O12           -3.7283     3.2719     0.0539 O.2     
  13 C13           -6.1790     2.2568     0.0707 C.3     
  14 O14           -6.1186     3.0958     1.2259 O.3     
  15 C15           -6.1940     3.0925    -1.1916 C.2     
  16 N16           -7.3480     2.8282    -1.8271 N.am    
  17 C17           -8.1300     1.8998    -1.1381 C.ar    
  18 C18           -7.4883     1.5029     0.0317 C.ar    
  19 O19           -5.3272     3.8566    -1.5601 O.2     
  20 C20           -9.3775     1.3570    -1.4401 C.ar    
  21 C21           -9.9584     0.4401    -0.5890 C.ar    
  22 C22           -9.3095     0.0528     0.5702 C.ar    
  23 C23           -8.0705     0.5879     0.8799 C.ar    
  24 Br24         -10.1134    -1.2037     1.7324 Br      
  25 H25           -1.1716    -1.7970     0.0038 H       
  26 H26           -3.3204    -0.6108     0.0293 H       
  27 H27           -1.2368     3.1459     0.0359 H       
  28 H28            3.0371     0.7346    -0.1151 H       
  29 H29            2.2188     0.7151     1.4796 H       
  30 H30           -5.0539     0.6602    -0.8380 H       
  31 H31           -5.0377     0.6508     0.9419 H       
  32 H32           -5.3114     3.6249     1.2860 H       
  33 H33           -7.6080     3.2361    -2.6679 H       
  34 H34           -9.8903     1.6545    -2.3428 H       
  35 H35          -10.9252     0.0225    -0.8284 H       
  36 H36           -7.5622     0.2871     1.7840 H       
@<TRIPOS>BOND
   1    1    2 ar
   2    1    7 1
   3    1    6 ar
   4    2    3 ar
   5    2    9 1
   6    3    4 ar
   7    3   25 1
   8    4    5 ar
   9    4   26 1
  10    5    6 ar
  11    5   10 1
  12    6   27 1
  13    7    8 1
  14    8    9 1
  15    8   28 1
  16    8   29 1
  17   10   11 1
  18   10   12 2
  19   11   13 1
  20   11   30 1
  21   11   31 1
  22   13   14 1
  23   13   15 1
  24   13   18 1
  25   14   32 1
  26   15   16 am
  27   15   19 2
  28   16   17 1
  29   16   33 1
  30   17   18 ar
  31   17   20 ar
  32   18   23 ar
  33   20   21 ar
  34   20   34 1
  35   21   22 ar
  36   21   35 1
  37   22   23 ar
  38   22   24 1
  39   23   36 1

#	End of record

