#	Name: ASD00170262
#	Creating user name:	WinNT
#	Creation time:	15. 06. 2019 18:31

#	Modifying user name:	WinNT
#	Modification time:	15. 06. 2019 18:31

#	Program:	/corina/corina34_cracker 3.40 0067  02.08.2006

@<TRIPOS>MOLECULE
ASD00170262
  28   30    0    0    0
SMALL
NO_CHARGES


@<TRIPOS>ATOM
   1 C1            -0.0254     1.3634     0.0051 C.2     
   2 C2             0.0007    -0.0070     0.0014 C.2     
   3 C3            -1.3258    -0.6170     0.0150 C.ar    
   4 C4            -2.3464     0.3347     0.0289 C.ar    
   5 S5            -1.6738     1.9577     0.0329 S.3     
   6 C6            -1.6962    -1.9783     0.0162 C.ar    
   7 C7            -3.0180    -2.3116     0.0308 C.ar    
   8 N8            -3.9592    -1.3838     0.0438 N.ar    
   9 C9            -3.6720    -0.1000     0.0433 C.ar    
  10 N10            1.0913     2.1639    -0.0056 N.pl3   
  11 C11            1.2002    -0.7597    -0.0145 C.2     
  12 C12            1.8962    -1.0689     1.2535 C.ar    
  13 O13            1.6588    -1.1526    -1.0725 O.2     
  14 C14            3.0174    -1.9017     1.2534 C.ar    
  15 C15            3.6622    -2.1859     2.4416 C.ar    
  16 C16            3.1995    -1.6478     3.6284 C.ar    
  17 C17            2.0885    -0.8221     3.6347 C.ar    
  18 C18            1.4389    -0.5250     2.4550 C.ar    
  19 Cl19           3.5989    -2.5783    -0.2359 Cl      
  20 H20           -0.9398    -2.7491     0.0054 H       
  21 H21           -3.3015    -3.3538     0.0314 H       
  22 H22           -4.4717     0.6258     0.0545 H       
  23 H23            1.9738     1.7661     0.0568 H       
  24 H24            0.9971     3.1268    -0.0756 H       
  25 H25            4.5292    -2.8299     2.4437 H       
  26 H26            3.7070    -1.8730     4.5547 H       
  27 H27            1.7322    -0.4059     4.5654 H       
  28 H28            0.5722     0.1194     2.4620 H       
@<TRIPOS>BOND
   1    1    2 2
   2    1   10 1
   3    1    5 1
   4    2    3 1
   5    2   11 1
   6    3    4 ar
   7    3    6 ar
   8    4    5 1
   9    4    9 ar
  10    6    7 ar
  11    6   20 1
  12    7    8 ar
  13    7   21 1
  14    8    9 ar
  15    9   22 1
  16   10   23 1
  17   10   24 1
  18   11   12 1
  19   11   13 2
  20   12   14 ar
  21   12   18 ar
  22   14   15 ar
  23   14   19 1
  24   15   16 ar
  25   15   25 1
  26   16   17 ar
  27   16   26 1
  28   17   18 ar
  29   17   27 1
  30   18   28 1

#	End of record

