#	Name: ASD01914138
#	Creating user name:	WinNT
#	Creation time:	15. 06. 2019 20:02

#	Modifying user name:	WinNT
#	Modification time:	15. 06. 2019 20:02

#	Program:	/corina/corina34_cracker 3.40 0067  02.08.2006

@<TRIPOS>MOLECULE
ASD01914138
  47   50    0    0    0
SMALL
NO_CHARGES


@<TRIPOS>ATOM
   1 C1            -2.7937    -0.0343    -1.2554 C.ar    
   2 C2            -2.1654    -1.3194    -0.8609 C.2     
   3 N3            -2.7912    -2.3819    -0.3060 N.2     
   4 C4            -1.8595    -3.2848    -0.1268 C.2     
   5 O5            -0.7124    -2.7597    -0.5684 O.3     
   6 N6            -0.9038    -1.6386    -0.9901 N.2     
   7 C7            -2.0456    -4.6575     0.4667 C.3     
   8 C8            -1.6331    -5.7170    -0.5577 C.3     
   9 C9            -0.1729    -5.4986    -0.9603 C.3     
  10 C10            0.7209    -5.6467     0.2751 C.3     
  11 N11            0.2395    -4.7321     1.3193 N.am    
  12 C12           -1.1731    -4.7960     1.7182 C.3     
  13 C13            2.1640    -5.2937    -0.0906 C.3     
  14 C14            1.0779    -3.8511     1.9003 C.2     
  15 C15            0.5541    -2.8509     2.8530 C.ar    
  16 C16            1.3461    -2.4151     3.9174 C.ar    
  17 C17            0.8524    -1.4817     4.8035 C.ar    
  18 C18           -0.4279    -0.9756     4.6393 C.ar    
  19 C19           -1.2187    -1.4052     3.5844 C.ar    
  20 C20           -0.7326    -2.3336     2.6890 C.ar    
  21 O21            2.2651    -3.8796     1.6404 O.2     
  22 C22           -2.0196     0.9778    -1.8196 C.ar    
  23 C23           -2.6078     2.1711    -2.1849 C.ar    
  24 C24           -4.7407     1.3581    -1.4361 C.ar    
  25 C25           -4.1606     0.1617    -1.0680 C.ar    
  26 C26           -3.9662     2.3640    -1.9915 C.ar    
  27 F27           -4.5382     3.5342    -2.3501 F       
  28 F28           -0.9070    -0.0609     5.5106 F       
  29 H29           -3.0925    -4.7990     0.7350 H       
  30 H30           -1.7445    -6.7087    -0.1193 H       
  31 H31           -2.2688    -5.6365    -1.4395 H       
  32 H32            0.1133    -6.2391    -1.7072 H       
  33 H33           -0.0559    -4.4979    -1.3761 H       
  34 H34            0.6745    -6.6732     0.6387 H       
  35 H35           -1.3947    -3.9833     2.4099 H       
  36 H36           -1.3739    -5.7532     2.1995 H       
  37 H37            2.2297    -4.2314    -0.3258 H       
  38 H38            2.8180    -5.5206     0.7514 H       
  39 H39            2.4723    -5.8776    -0.9578 H       
  40 H40            2.3434    -2.8090     4.0464 H       
  41 H41            1.4639    -1.1443     5.6272 H       
  42 H42           -2.2154    -1.0080     3.4613 H       
  43 H43           -1.3492    -2.6673     1.8675 H       
  44 H44           -0.9607     0.8284    -1.9704 H       
  45 H45           -2.0085     2.9561    -2.6219 H       
  46 H46           -5.8000     1.5108    -1.2912 H       
  47 H47           -4.7651    -0.6220    -0.6359 H       
@<TRIPOS>BOND
   1    1    2 1
   2    1   22 ar
   3    1   25 ar
   4    2    3 1
   5    2    6 2
   6    3    4 2
   7    4    5 1
   8    4    7 1
   9    5    6 1
  10    7    8 1
  11    7   12 1
  12    7   29 1
  13    8    9 1
  14    8   30 1
  15    8   31 1
  16    9   10 1
  17    9   32 1
  18    9   33 1
  19   10   11 1
  20   10   13 1
  21   10   34 1
  22   11   12 1
  23   11   14 am
  24   12   35 1
  25   12   36 1
  26   13   37 1
  27   13   38 1
  28   13   39 1
  29   14   15 1
  30   14   21 2
  31   15   16 ar
  32   15   20 ar
  33   16   17 ar
  34   16   40 1
  35   17   18 ar
  36   17   41 1
  37   18   19 ar
  38   18   28 1
  39   19   20 ar
  40   19   42 1
  41   20   43 1
  42   22   23 ar
  43   22   44 1
  44   23   26 ar
  45   23   45 1
  46   24   25 ar
  47   24   26 ar
  48   24   46 1
  49   25   47 1
  50   26   27 1

#	End of record

