#	Name: ASD01880213
#	Creating user name:	WinNT
#	Creation time:	15. 06. 2019 19:40

#	Modifying user name:	WinNT
#	Modification time:	15. 06. 2019 19:40

#	Program:	/corina/corina34_cracker 3.40 0067  02.08.2006

@<TRIPOS>MOLECULE
ASD01880213
  50   52    0    0    0
SMALL
NO_CHARGES


@<TRIPOS>ATOM
   1 N1             0.4510     2.1903     0.5665 N.am    
   2 C2             0.1046     0.7827     0.3545 C.3     
   3 C3             0.0975     0.0623     1.6781 C.ar    
   4 C4            -1.0660    -0.0028     2.4222 C.ar    
   5 C5            -1.0751    -0.6626     3.6359 C.ar    
   6 C6             0.0845    -1.2602     4.1080 C.ar    
   7 C7             1.2507    -1.1934     3.3595 C.ar    
   8 C8             1.2531    -0.5373     2.1438 C.ar    
   9 O9             0.0782    -1.9094     5.3018 O.3     
  10 C10           -1.1823    -2.0414     5.9619 C.3     
  11 C11           -1.1475    -3.2578     6.8893 C.3     
  12 C12           -0.8678    -4.5177     6.0676 C.3     
  13 C13           -0.8330    -5.7341     6.9950 C.3     
  14 C14            0.2717    -5.5493     8.0373 C.3     
  15 C15           -0.0080    -4.2894     8.8590 C.3     
  16 C16           -0.0428    -3.0730     7.9316 C.3     
  17 C17            1.8588     2.5767     0.5196 C.3     
  18 C18            1.9781     4.0843     0.2792 C.3     
  19 C19            1.0322     4.8051     1.2495 C.3     
  20 O20           -0.3270     4.3793     0.9557 O.3     
  21 C21           -0.5363     3.0644     0.7887 C.2     
  22 O22           -1.6757     2.6468     0.8515 O.2     
  23 C23           -1.4620    -0.7814     6.7837 C.3     
  24 H24           -0.8836     0.7163    -0.1006 H       
  25 H25            0.8402     0.3229    -0.3055 H       
  26 H26           -1.9684     0.4628     2.0545 H       
  27 H27           -1.9841    -0.7129     4.2169 H       
  28 H28            2.1547    -1.6578     3.7248 H       
  29 H29            2.1607    -0.4850     1.5607 H       
  30 H30           -1.9693    -2.1730     5.2194 H       
  31 H31           -2.1089    -3.3584     7.3929 H       
  32 H32           -1.6548    -4.6493     5.3251 H       
  33 H33            0.0937    -4.4171     5.5641 H       
  34 H34           -1.7944    -5.8347     7.4985 H       
  35 H35           -0.6337    -6.6317     6.4096 H       
  36 H36            0.2965    -6.4159     8.6980 H       
  37 H37            1.2332    -5.4487     7.5338 H       
  38 H38           -0.9695    -4.3900     9.3625 H       
  39 H39            0.7790    -4.1578     9.6016 H       
  40 H40            0.9187    -2.9724     7.4281 H       
  41 H41           -0.2420    -2.1754     8.5170 H       
  42 H42            2.3357     2.3222     1.4661 H       
  43 H43            2.3546     2.0407    -0.2897 H       
  44 H44            3.0040     4.4049     0.4603 H       
  45 H45            1.6965     4.3157    -0.7481 H       
  46 H46            1.2869     4.5412     2.2759 H       
  47 H47            1.1176     5.8832     1.1140 H       
  48 H48           -1.4868     0.0852     6.1230 H       
  49 H49           -2.4235    -0.8820     7.2872 H       
  50 H50           -0.6750    -0.6498     7.5262 H       
@<TRIPOS>BOND
   1    1    2 1
   2    1   17 1
   3    1   21 am
   4    2    3 1
   5    2   24 1
   6    2   25 1
   7    3    4 ar
   8    3    8 ar
   9    4    5 ar
  10    4   26 1
  11    5    6 ar
  12    5   27 1
  13    6    7 ar
  14    6    9 1
  15    7    8 ar
  16    7   28 1
  17    8   29 1
  18    9   10 1
  19   10   11 1
  20   10   23 1
  21   10   30 1
  22   11   12 1
  23   11   16 1
  24   11   31 1
  25   12   13 1
  26   12   32 1
  27   12   33 1
  28   13   14 1
  29   13   34 1
  30   13   35 1
  31   14   15 1
  32   14   36 1
  33   14   37 1
  34   15   16 1
  35   15   38 1
  36   15   39 1
  37   16   40 1
  38   16   41 1
  39   17   18 1
  40   17   42 1
  41   17   43 1
  42   18   19 1
  43   18   44 1
  44   18   45 1
  45   19   20 1
  46   19   46 1
  47   19   47 1
  48   20   21 1
  49   21   22 2
  50   23   48 1
  51   23   49 1
  52   23   50 1

#	End of record

