#	Name: ASD07300996
#	Creating user name:	WinNT
#	Creation time:	15. 06. 2019 21:10

#	Modifying user name:	WinNT
#	Modification time:	15. 06. 2019 21:10

#	Program:	/corina/corina34_cracker 3.40 0067  02.08.2006

@<TRIPOS>MOLECULE
ASD07300996
  30   31    0    0    0
SMALL
NO_CHARGES


@<TRIPOS>ATOM
   1 C1            -0.0171     1.4649     0.0503 C.2     
   2 C2             0.0021    -0.0041     0.0013 C.2     
   3 C3             1.2765    -0.6359    -0.0549 C.2     
   4 C4             2.3775     0.1598    -0.0593 C.2     
   5 N5             2.2574     1.5105    -0.0114 N.pl3   
   6 N6             1.1288     2.1156     0.0400 N.2     
   7 C7            -1.2962     2.1977     0.1040 C.2     
   8 O8            -2.3466     1.5870     0.1080 O.2     
   9 O9            -1.2998     3.5445     0.1486 O.3     
  10 C10            5.8051     2.4761     0.0619 C.ar    
  11 C11            4.6777     1.6799     0.0716 C.ar    
  12 C12            3.4234     2.2808    -0.0179 C.ar    
  13 C13            3.3621     3.6698    -0.1146 C.ar    
  14 C14            4.5369     4.3943    -0.1181 C.ar    
  15 N15            5.7055     3.7883    -0.0311 N.ar    
  16 O16           -1.0313    -0.6548     0.0090 O.2     
  17 O17            1.3879    -1.9901    -0.1023 O.3     
  18 C18            2.7096    -2.5307    -0.1569 C.3     
  19 C19           -2.5949     4.1989     0.2000 C.3     
  20 H20            3.3595    -0.2877    -0.1010 H       
  21 H21            6.7810     2.0194     0.1353 H       
  22 H22            4.7663     0.6062     0.1476 H       
  23 H23            2.4088     4.1721    -0.1861 H       
  24 H24            4.4990     5.4711    -0.1927 H       
  25 H25            3.2156    -2.1638    -1.0499 H       
  26 H26            3.2654    -2.2219     0.7284 H       
  27 H27            2.6559    -3.6189    -0.1909 H       
  28 H28           -3.1715     3.9337    -0.6862 H       
  29 H29           -3.1306     3.8749     1.0923 H       
  30 H30           -2.4550     5.2794     0.2325 H       
@<TRIPOS>BOND
   1    1    2 1
   2    1    6 2
   3    1    7 1
   4    2    3 1
   5    2   16 2
   6    3    4 2
   7    3   17 1
   8    4    5 1
   9    4   20 1
  10    5    6 1
  11    5   12 1
  12    7    8 2
  13    7    9 1
  14    9   19 1
  15   10   11 ar
  16   10   15 ar
  17   10   21 1
  18   11   12 ar
  19   11   22 1
  20   12   13 ar
  21   13   14 ar
  22   13   23 1
  23   14   15 ar
  24   14   24 1
  25   17   18 1
  26   18   25 1
  27   18   26 1
  28   18   27 1
  29   19   28 1
  30   19   29 1
  31   19   30 1

#	End of record

