#	Name: ASD04370035
#	Creating user name:	WinNT
#	Creation time:	15. 06. 2019 20:49

#	Modifying user name:	WinNT
#	Modification time:	15. 06. 2019 20:49

#	Program:	/corina/corina34_cracker 3.40 0067  02.08.2006

@<TRIPOS>MOLECULE
ASD04370035
  72   72    0    0    0
SMALL
NO_CHARGES


@<TRIPOS>ATOM
   1 C1             3.2665    -0.4330    -0.7076 C.2     
   2 C2             1.9337     0.2213    -0.9655 C.3     
   3 C3             0.9276    -0.2365     0.0924 C.3     
   4 C4            -0.4556     0.3253    -0.2424 C.3     
   5 O5             3.4224    -1.1301     0.2804 O.co2   
   6 O6             4.1874    -0.2693    -1.4897 O.co2   
   7 N7            -1.4387    -0.1875     0.7212 N.4     
   8 C8            -1.1266     0.3285     2.0607 C.3     
   9 C9            -2.7844     0.2517     0.3285 C.3     
  10 C10           -1.3882    -1.6556     0.7380 C.3     
  11 N11            1.3472     0.2508     1.4087 N.am    
  12 C12            1.5401     1.5696     1.6089 C.2     
  13 C13            2.0815     2.0604     2.9269 C.3     
  14 C14            2.2039     3.5851     2.8920 C.3     
  15 C15            2.7536     4.0834     4.2301 C.3     
  16 C16            2.8760     5.6081     4.1952 C.3     
  17 C17            3.4257     6.1063     5.5332 C.3     
  18 C18            3.5481     7.6310     5.4984 C.3     
  19 C19            4.0977     8.1293     6.8364 C.3     
  20 C20            4.2201     9.6540     6.8016 C.3     
  21 C21            4.7698    10.1522     8.1396 C.3     
  22 C22            4.8922    11.6769     8.1048 C.3     
  23 C23            5.4419    12.1752     9.4428 C.3     
  24 O24            1.2779     2.3614     0.7284 O.2     
  25 C25            5.5625    13.6770     9.4085 C.ar    
  26 C26            4.5017    14.4650     9.8143 C.ar    
  27 C27            4.6122    15.8426     9.7827 C.ar    
  28 C28            5.7838    16.4321     9.3458 C.ar    
  29 C29            6.8449    15.6441     8.9409 C.ar    
  30 C30            6.7358    14.2665     8.9765 C.ar    
  31 H31            2.0451     1.3045    -0.9162 H       
  32 H32            1.5750    -0.0624    -1.9549 H       
  33 H33            0.8841    -1.3256     0.1051 H       
  34 H34           -0.4283     1.4136    -0.1892 H       
  35 H35           -0.7388     0.0176    -1.2490 H       
  36 H36           -0.9681     1.4056     2.0073 H       
  37 H37           -1.9569     0.1163     2.7344 H       
  38 H38           -0.2232    -0.1536     2.4344 H       
  39 H39           -3.0159    -0.1312    -0.6654 H       
  40 H40           -3.5138    -0.1288     1.0435 H       
  41 H41           -2.8218     1.3410     0.3161 H       
  42 H42           -0.3897    -1.9815     1.0294 H       
  43 H43           -2.1177    -2.0361     1.4530 H       
  44 H44           -1.6198    -2.0385    -0.2559 H       
  45 H45            1.4862    -0.3756     2.1361 H       
  46 H46            1.4040     1.7685     3.7293 H       
  47 H47            3.0634     1.6210     3.1025 H       
  48 H48            2.8814     3.8769     2.0895 H       
  49 H49            1.2220     4.0245     2.7163 H       
  50 H50            2.0761     3.7915     5.0325 H       
  51 H51            3.7355     3.6440     4.4057 H       
  52 H52            3.5535     5.8999     3.3927 H       
  53 H53            1.8941     6.0475     4.0195 H       
  54 H54            2.7481     5.8145     6.3357 H       
  55 H55            4.4076     5.6669     5.7089 H       
  56 H56            4.2256     7.9229     4.6959 H       
  57 H57            2.5661     8.0704     5.3227 H       
  58 H58            3.4202     7.8374     7.6389 H       
  59 H59            5.0797     7.6899     7.0121 H       
  60 H60            4.8976     9.9458     5.9991 H       
  61 H61            3.2382    10.0934     6.6259 H       
  62 H62            4.0923     9.8604     8.9421 H       
  63 H63            5.7517     9.7128     8.3153 H       
  64 H64            5.5697    11.9688     7.3023 H       
  65 H65            3.9103    12.1163     7.9291 H       
  66 H66            4.7644    11.8834    10.2453 H       
  67 H67            6.4238    11.7358     9.6185 H       
  68 H68            3.5864    14.0044    10.1556 H       
  69 H69            3.7832    16.4582    10.0990 H       
  70 H70            5.8699    17.5084     9.3204 H       
  71 H71            7.7600    16.1047     8.5992 H       
  72 H72            7.5662    13.6508     8.6637 H       
@<TRIPOS>BOND
   1    1    2 1
   2    1    5 ar
   3    1    6 ar
   4    2    3 1
   5    2   31 1
   6    2   32 1
   7    3    4 1
   8    3   11 1
   9    3   33 1
  10    4    7 1
  11    4   34 1
  12    4   35 1
  13    7    8 1
  14    7    9 1
  15    7   10 1
  16    8   36 1
  17    8   37 1
  18    8   38 1
  19    9   39 1
  20    9   40 1
  21    9   41 1
  22   10   42 1
  23   10   43 1
  24   10   44 1
  25   11   12 am
  26   11   45 1
  27   12   13 1
  28   12   24 2
  29   13   14 1
  30   13   46 1
  31   13   47 1
  32   14   15 1
  33   14   48 1
  34   14   49 1
  35   15   16 1
  36   15   50 1
  37   15   51 1
  38   16   17 1
  39   16   52 1
  40   16   53 1
  41   17   18 1
  42   17   54 1
  43   17   55 1
  44   18   19 1
  45   18   56 1
  46   18   57 1
  47   19   20 1
  48   19   58 1
  49   19   59 1
  50   20   21 1
  51   20   60 1
  52   20   61 1
  53   21   22 1
  54   21   62 1
  55   21   63 1
  56   22   23 1
  57   22   64 1
  58   22   65 1
  59   23   25 1
  60   23   66 1
  61   23   67 1
  62   25   26 ar
  63   25   30 ar
  64   26   27 ar
  65   26   68 1
  66   27   28 ar
  67   27   69 1
  68   28   29 ar
  69   28   70 1
  70   29   30 ar
  71   29   71 1
  72   30   72 1

#	End of record

