#	Name: ASD05390013
#	Creating user name:	WinNT
#	Creation time:	15. 06. 2019 20:59

#	Modifying user name:	WinNT
#	Modification time:	15. 06. 2019 20:59

#	Program:	/corina/corina34_cracker 3.40 0067  02.08.2006

@<TRIPOS>MOLECULE
ASD05390013
  20   21    0    0    0
SMALL
NO_CHARGES


@<TRIPOS>ATOM
   1 F1            -2.6283     4.5077     0.3927 F       
   2 F2            -1.2740     5.3728    -1.2311 F       
   3 F3            -0.7516     5.6744     0.9724 F       
   4 C4            -0.0169     1.3933     0.0097 C.ar    
   5 C5             0.0021    -0.0041     0.0020 C.ar    
   6 C6             2.4024     1.4167    -0.0133 C.ar    
   7 C7             1.1955     2.1026     0.0019 C.ar    
   8 C8             2.4099     0.0392    -0.0203 C.ar    
   9 C9             1.2115    -0.6725    -0.0131 C.ar    
  10 C10           -0.5053     3.5118     0.0257 C.2     
  11 C11           -1.3041     4.7896     0.0402 C.3     
  12 N12            0.8528     3.4423     0.0124 N.pl3   
  13 N13           -1.0145     2.3143     0.0296 N.2     
  14 N14            1.2331    -2.0716    -0.0208 N.pl3   
  15 H15           -0.9244    -0.5591     0.0082 H       
  16 H16            3.3343     1.9624    -0.0192 H       
  17 H17            3.3500    -0.4924    -0.0318 H       
  18 H18            1.4669     4.1931     0.0071 H       
  19 H19            0.4007    -2.5696    -0.0156 H       
  20 H20            2.0805    -2.5435    -0.0315 H       
@<TRIPOS>BOND
   1    1   11 1
   2    2   11 1
   3    3   11 1
   4    4    5 ar
   5    4    7 ar
   6    4   13 1
   7    5    9 ar
   8    5   15 1
   9    6    8 ar
  10    6   16 1
  11    6    7 ar
  12    7   12 1
  13    8    9 ar
  14    8   17 1
  15    9   14 1
  16   10   12 1
  17   10   13 2
  18   10   11 1
  19   12   18 1
  20   14   19 1
  21   14   20 1

#	End of record

