#	Name: ASD03731713
#	Creating user name:	WinNT
#	Creation time:	15. 06. 2019 20:46

#	Modifying user name:	WinNT
#	Modification time:	15. 06. 2019 20:46

#	Program:	/corina/corina34_cracker 3.40 0067  02.08.2006

@<TRIPOS>MOLECULE
ASD03731713
  42   43    0    0    0
SMALL
NO_CHARGES


@<TRIPOS>ATOM
   1 C1             0.1065     1.3991     0.8814 C.2     
   2 C2             0.0938    -0.0576     0.6438 C.ar    
   3 C3             0.2779    -0.9428     1.7093 C.ar    
   4 C4             0.2648    -2.3011     1.4837 C.ar    
   5 C5             0.0694    -2.7921     0.1979 C.ar    
   6 C6            -0.1141    -1.9147    -0.8647 C.ar    
   7 C7            -0.1082    -0.5552    -0.6463 C.ar    
   8 O8             0.2774     1.8303     2.0053 O.2     
   9 N9            -0.0656     2.2514    -0.1484 N.am    
  10 S10           -0.0513     3.8857     0.1182 S.o2    
  11 O11           -0.2837     4.4520    -1.1642 O.2     
  12 O12           -0.9751     4.0755     1.1812 O.2     
  13 C13            1.6391     4.2390     0.6732 C.3     
  14 O14            0.0581    -4.1313    -0.0206 O.3     
  15 C15           -1.1273    -4.7861     0.0918 C.ar    
  16 C16           -2.2968    -4.0731     0.3140 C.ar    
  17 C17           -3.5005    -4.7411     0.4279 C.ar    
  18 C18           -3.5407    -6.1191     0.3208 C.ar    
  19 C19           -2.3767    -6.8320     0.0998 C.ar    
  20 C20           -1.1712    -6.1683    -0.0210 C.ar    
  21 C21           -4.8553    -6.8452     0.4455 C.3     
  22 C22           -5.1347    -7.6193    -0.8443 C.3     
  23 C23           -4.7892    -7.8212     1.6219 C.3     
  24 H24            0.4305    -0.5621     2.7084 H       
  25 H25            0.4070    -2.9858     2.3067 H       
  26 H26           -0.2654    -2.3000    -1.8623 H       
  27 H27           -0.2549     0.1257    -1.4716 H       
  28 H28           -0.1979     1.9074    -1.0457 H       
  29 H29            2.3452     3.9473    -0.1043 H       
  30 H30            1.7401     5.3056     0.8742 H       
  31 H31            1.8478     3.6765     1.5832 H       
  32 H32           -2.2659    -2.9968     0.3981 H       
  33 H33           -4.4110    -4.1866     0.6012 H       
  34 H34           -2.4107    -7.9083     0.0172 H       
  35 H35           -0.2631    -6.7253    -0.1984 H       
  36 H36           -5.6542    -6.1236     0.6165 H       
  37 H37           -4.3359    -8.3409    -1.0153 H       
  38 H38           -6.0856    -8.1445    -0.7541 H       
  39 H39           -5.1818    -6.9240    -1.6824 H       
  40 H40           -4.5902    -7.2697     2.5408 H       
  41 H41           -5.7401    -8.3464     1.7121 H       
  42 H42           -3.9904    -8.5428     1.4510 H       
@<TRIPOS>BOND
   1    1    2 1
   2    1    8 2
   3    1    9 am
   4    2    3 ar
   5    2    7 ar
   6    3    4 ar
   7    3   24 1
   8    4    5 ar
   9    4   25 1
  10    5    6 ar
  11    5   14 1
  12    6    7 ar
  13    6   26 1
  14    7   27 1
  15    9   10 am
  16    9   28 1
  17   10   11 2
  18   10   12 2
  19   10   13 1
  20   13   29 1
  21   13   30 1
  22   13   31 1
  23   14   15 1
  24   15   16 ar
  25   15   20 ar
  26   16   17 ar
  27   16   32 1
  28   17   18 ar
  29   17   33 1
  30   18   19 ar
  31   18   21 1
  32   19   20 ar
  33   19   34 1
  34   20   35 1
  35   21   22 1
  36   21   23 1
  37   21   36 1
  38   22   37 1
  39   22   38 1
  40   22   39 1
  41   23   40 1
  42   23   41 1
  43   23   42 1

#	End of record

