#	Name: ASD00191007
#	Creating user name:	WinNT
#	Creation time:	15. 06. 2019 18:33

#	Modifying user name:	WinNT
#	Modification time:	15. 06. 2019 18:33

#	Program:	/corina/corina34_cracker 3.40 0067  02.08.2006

@<TRIPOS>MOLECULE
ASD00191007
  49   52    0    0    0
SMALL
NO_CHARGES


@<TRIPOS>ATOM
   1 C1            -0.4717     1.6580     0.3271 C.3     
   2 C2            -1.0290     0.2797     0.7240 C.3     
   3 C3             0.1467    -0.7146     0.6300 C.3     
   4 C4             1.4073     0.1717     0.7865 C.3     
   5 C5             1.0231     1.4532     0.0059 C.3     
   6 C6            -1.1948     2.1764    -0.8892 C.2     
   7 O7            -2.0743     1.5154    -1.3994 O.2     
   8 N8            -0.8641     3.3747    -1.4100 N.am    
   9 N9            -2.6095     4.6391    -4.9727 N.ar    
  10 C10           -2.3549     3.3610    -4.7722 C.ar    
  11 C11           -1.7693     2.9065    -3.5864 C.ar    
  12 C12           -1.4470     3.8012    -2.5994 C.ar    
  13 C13           -1.7244     5.1725    -2.8237 C.ar    
  14 C14           -1.4216     6.1427    -1.8597 C.ar    
  15 C15           -1.7022     7.4532    -2.1103 C.ar    
  16 C16           -2.2867     7.8398    -3.3128 C.ar    
  17 C17           -2.5936     6.9214    -4.2709 C.ar    
  18 C18           -2.3183     5.5623    -4.0475 C.ar    
  19 N19           -2.6758     2.4441    -5.7625 N.pl3   
  20 C20           -2.4008     1.0196    -5.5589 C.3     
  21 C21           -3.3483     0.1708    -6.4246 C.3     
  22 C22           -2.4568    -0.6478    -7.3811 C.3     
  23 C23           -1.0889    -0.7186    -6.6581 C.3     
  24 C24           -0.9665     0.6872    -6.0196 C.3     
  25 H25           -0.5832     2.3583     1.1550 H       
  26 H26           -1.4108     0.3111     1.7444 H       
  27 H27           -1.8224    -0.0142     0.0368 H       
  28 H28            0.0926    -1.4466     1.4359 H       
  29 H29            0.1486    -1.2127    -0.3395 H       
  30 H30            1.5914     0.3996     1.8364 H       
  31 H31            2.2758    -0.3090     0.3364 H       
  32 H32            1.1665     1.3052    -1.0645 H       
  33 H33            1.6086     2.3032     0.3562 H       
  34 H34           -0.2197     3.9398    -0.9558 H       
  35 H35           -1.5724     1.8536    -3.4485 H       
  36 H36           -0.9686     5.8541    -0.9227 H       
  37 H37           -1.4684     8.2004    -1.3664 H       
  38 H38           -2.5005     8.8837    -3.4888 H       
  39 H39           -3.0473     7.2371    -5.1988 H       
  40 H40           -3.0823     2.7461    -6.5898 H       
  41 H41           -2.5249     0.7623    -4.5070 H       
  42 H42           -3.9317    -0.4991    -5.7929 H       
  43 H43           -4.0128     0.8187    -6.9962 H       
  44 H44           -2.8662    -1.6482    -7.5218 H       
  45 H45           -2.3561    -0.1376    -8.3390 H       
  46 H46           -1.0974    -1.4922    -5.8903 H       
  47 H47           -0.2831    -0.8902    -7.3719 H       
  48 H48           -0.6251     1.4130    -6.7577 H       
  49 H49           -0.2883     0.6611    -5.1667 H       
@<TRIPOS>BOND
   1    1    2 1
   2    1    5 1
   3    1    6 1
   4    1   25 1
   5    2    3 1
   6    2   26 1
   7    2   27 1
   8    3    4 1
   9    3   28 1
  10    3   29 1
  11    4    5 1
  12    4   30 1
  13    4   31 1
  14    5   32 1
  15    5   33 1
  16    6    7 2
  17    6    8 am
  18    8   12 1
  19    8   34 1
  20    9   10 ar
  21    9   18 ar
  22   10   11 ar
  23   10   19 1
  24   11   12 ar
  25   11   35 1
  26   12   13 ar
  27   13   14 ar
  28   13   18 ar
  29   14   15 ar
  30   14   36 1
  31   15   16 ar
  32   15   37 1
  33   16   17 ar
  34   16   38 1
  35   17   18 ar
  36   17   39 1
  37   19   20 1
  38   19   40 1
  39   20   21 1
  40   20   24 1
  41   20   41 1
  42   21   22 1
  43   21   42 1
  44   21   43 1
  45   22   23 1
  46   22   44 1
  47   22   45 1
  48   23   24 1
  49   23   46 1
  50   23   47 1
  51   24   48 1
  52   24   49 1

#	End of record

