#	Name: ASD06620040
#	Creating user name:	WinNT
#	Creation time:	15. 06. 2019 21:07

#	Modifying user name:	WinNT
#	Modification time:	15. 06. 2019 21:07

#	Program:	/corina/corina34_cracker 3.40 0067  02.08.2006

@<TRIPOS>MOLECULE
ASD06620040
  57   61    0    0    0
SMALL
NO_CHARGES


@<TRIPOS>ATOM
   1 C1            -0.0167     1.3797     0.0096 C.ar    
   2 C2             0.0021    -0.0041     0.0020 C.ar    
   3 C3             1.2349    -0.6673    -0.0134 C.ar    
   4 C4             2.3975     0.0930    -0.0204 C.ar    
   5 C5             2.2923     1.4695    -0.0120 C.ar    
   6 N6             1.1127     2.0628     0.0025 N.ar    
   7 C7            -0.3747    -2.1918    -0.0061 C.2     
   8 N8            -0.9810    -0.9888     0.0062 N.am    
   9 N9             0.9622    -2.0260    -0.0180 N.am    
  10 O10           -0.9476    -3.2652    -0.0058 O.2     
  11 C11           -2.4275    -0.7571     0.0217 C.3     
  12 C12           -3.7458    -1.2445    -3.3278 C.2     
  13 C13           -4.2665    -1.9150    -4.4474 C.2     
  14 C14           -4.5648    -1.2050    -5.5745 C.2     
  15 C15           -4.3476     0.1809    -5.5982 C.2     
  16 C16           -3.8456     0.8074    -4.5101 C.2     
  17 N17           -3.5458     0.1068    -3.3833 N.pl3   
  18 N18           -3.3698    -1.6822    -2.1263 N.2     
  19 C19           -2.9375    -0.6697    -1.3937 C.2     
  20 C20           -3.0318     0.4887    -2.1562 C.2     
  21 C21           -2.6732     1.7920    -1.7596 C.2     
  22 C22            1.9586    -3.0999    -0.0341 C.3     
  23 C23            1.9537    -4.0857     1.1359 C.3     
  24 C24            1.4535    -4.5293    -0.2403 C.3     
  25 C25           -1.8690     2.5497    -2.5569 C.2     
  26 C26           -1.5107     3.8518    -2.1607 C.2     
  27 O27           -1.9195     4.3013    -1.1053 O.2     
  28 Cl28          -5.2086    -2.0121    -6.9701 Cl      
  29 O29           -0.7135     4.6028    -2.9511 O.3     
  30 C30           -0.3901     5.9150    -2.4867 C.3     
  31 C31            0.3373     5.8162    -1.1443 C.3     
  32 C32            0.5145     6.6087    -3.5072 C.3     
  33 C33           -1.6761     6.7253    -2.3114 C.3     
  34 H34           -0.9610     1.9037     0.0169 H       
  35 H35            3.3663    -0.3842    -0.0319 H       
  36 H36            3.1894     2.0709    -0.0170 H       
  37 H37           -2.9220    -1.5813     0.5358 H       
  38 H38           -2.6404     0.1762     0.5429 H       
  39 H39           -4.4288    -2.9823    -4.4167 H       
  40 H40           -4.5813     0.7481    -6.4870 H       
  41 H41           -3.6811     1.8745    -4.5359 H       
  42 H42           -3.0357     2.1907    -0.8237 H       
  43 H43            2.9237    -2.8392    -0.4685 H       
  44 H44            2.9155    -4.4740     1.4710 H       
  45 H45            1.2091    -3.9353     1.9176 H       
  46 H46            0.3798    -4.6707    -0.3640 H       
  47 H47            2.0862    -5.2093    -0.8106 H       
  48 H48           -1.5064     2.1510    -3.4929 H       
  49 H49            1.2535     5.2390    -1.2692 H       
  50 H50            0.5839     6.8171    -0.7901 H       
  51 H51           -0.3072     5.3220    -0.4173 H       
  52 H52           -0.0037     6.6791    -4.4635 H       
  53 H53            0.7611     7.6096    -3.1529 H       
  54 H54            1.4307     6.0315    -3.6320 H       
  55 H55           -2.3206     6.2311    -1.5844 H       
  56 H56           -1.4295     7.7262    -1.9572 H       
  57 H57           -2.1944     6.7957    -3.2677 H       
@<TRIPOS>BOND
   1    1    2 ar
   2    1    6 ar
   3    1   34 1
   4    2    3 ar
   5    2    8 1
   6    3    4 ar
   7    3    9 1
   8    4    5 ar
   9    4   35 1
  10    5    6 ar
  11    5   36 1
  12    7    8 am
  13    7    9 am
  14    7   10 2
  15    8   11 1
  16    9   22 1
  17   11   19 1
  18   11   37 1
  19   11   38 1
  20   12   13 1
  21   12   17 1
  22   12   18 2
  23   13   14 2
  24   13   39 1
  25   14   15 1
  26   14   28 1
  27   15   16 2
  28   15   40 1
  29   16   17 1
  30   16   41 1
  31   17   20 1
  32   18   19 1
  33   19   20 2
  34   20   21 1
  35   21   25 2
  36   21   42 1
  37   22   23 1
  38   22   24 1
  39   22   43 1
  40   23   24 1
  41   23   44 1
  42   23   45 1
  43   24   46 1
  44   24   47 1
  45   25   26 1
  46   25   48 1
  47   26   27 2
  48   26   29 1
  49   29   30 1
  50   30   31 1
  51   30   32 1
  52   30   33 1
  53   31   49 1
  54   31   50 1
  55   31   51 1
  56   32   52 1
  57   32   53 1
  58   32   54 1
  59   33   55 1
  60   33   56 1
  61   33   57 1

#	End of record

