#	Name: ASD01810136
#	Creating user name:	WinNT
#	Creation time:	15. 06. 2019 19:23

#	Modifying user name:	WinNT
#	Modification time:	15. 06. 2019 19:23

#	Program:	/corina/corina34_cracker 3.40 0067  02.08.2006

@<TRIPOS>MOLECULE
ASD01810136
  37   39    0    0    0
SMALL
NO_CHARGES


@<TRIPOS>ATOM
   1 C1            -0.0167     1.3820     0.0096 C.ar    
   2 C2             0.0021    -0.0041     0.0020 C.ar    
   3 C3             1.1959    -0.6932    -0.0127 C.ar    
   4 C4             2.4016     0.0019    -0.0200 C.ar    
   5 C5             2.3831     1.4075    -0.0128 C.ar    
   6 C6             1.1665     2.0939     0.0022 C.ar    
   7 N7             3.6010    -0.6771    -0.0337 N.pl3   
   8 C8             4.7870    -0.0549    -0.0404 C.2     
   9 C9             4.8957     1.3208    -0.0340 C.2     
  10 C10            3.6667     2.1313    -0.0207 C.2     
  11 O11            3.7091     3.3491    -0.0150 O.2     
  12 C12            6.2161     1.9660    -0.0412 C.2     
  13 O13            6.3092     3.3109    -0.0348 O.3     
  14 O14            7.2244     1.2870    -0.0529 O.2     
  15 C15            3.5775    -2.1419    -0.0409 C.3     
  16 C16            3.5569    -2.6446    -1.4858 C.3     
  17 C17            3.5328    -4.1514    -1.4931 C.ar    
  18 C18            2.3247    -4.8234    -1.4861 C.ar    
  19 C19            2.3026    -6.2055    -1.4927 C.ar    
  20 C20            3.4884    -6.9157    -1.5069 C.ar    
  21 C21            4.6965    -6.2438    -1.5149 C.ar    
  22 C22            4.7186    -4.8616    -1.5126 C.ar    
  23 F23            1.1476     3.4448     0.0091 F       
  24 H24           -0.9604     1.9071     0.0170 H       
  25 H25           -0.9295    -0.5505     0.0080 H       
  26 H26            1.1956    -1.7731    -0.0181 H       
  27 H27            5.6884    -0.6497    -0.0508 H       
  28 H28            7.1990     3.6894    -0.0400 H       
  29 H29            4.4660    -2.5220     0.4634 H       
  30 H30            2.6863    -2.4936     0.4789 H       
  31 H31            2.6685    -2.2645    -1.9901 H       
  32 H32            4.4482    -2.2930    -2.0055 H       
  33 H33            1.3982    -4.2685    -1.4750 H       
  34 H34            1.3588    -6.7305    -1.4865 H       
  35 H35            3.4711    -7.9956    -1.5114 H       
  36 H36            5.6229    -6.7987    -1.5256 H       
  37 H37            5.6624    -4.3366    -1.5188 H       
@<TRIPOS>BOND
   1    1    2 ar
   2    1    6 ar
   3    1   24 1
   4    2    3 ar
   5    2   25 1
   6    3    4 ar
   7    3   26 1
   8    4    5 ar
   9    4    7 1
  10    5    6 ar
  11    5   10 1
  12    6   23 1
  13    7    8 1
  14    7   15 1
  15    8    9 2
  16    8   27 1
  17    9   10 1
  18    9   12 1
  19   10   11 2
  20   12   13 1
  21   12   14 2
  22   13   28 1
  23   15   16 1
  24   15   29 1
  25   15   30 1
  26   16   17 1
  27   16   31 1
  28   16   32 1
  29   17   18 ar
  30   17   22 ar
  31   18   19 ar
  32   18   33 1
  33   19   20 ar
  34   19   34 1
  35   20   21 ar
  36   20   35 1
  37   21   22 ar
  38   21   36 1
  39   22   37 1

#	End of record

