#	Name: ASD03330614
#	Creating user name:	WinNT
#	Creation time:	15. 06. 2019 20:37

#	Modifying user name:	WinNT
#	Modification time:	15. 06. 2019 20:37

#	Program:	/corina/corina34_cracker 3.40 0067  02.08.2006

@<TRIPOS>MOLECULE
ASD03330614
  69   71    0    0    0
SMALL
NO_CHARGES


@<TRIPOS>ATOM
   1 C1            -0.0385     1.6346     1.7830 C.2     
   2 N2            -0.0830     0.3206     2.1061 N.pl3   
   3 C3             1.2386     1.9109     1.3979 C.2     
   4 N4             1.9487     0.7643     1.4739 N.2     
   5 C5             1.1609    -0.1978     1.8932 C.2     
   6 C6             1.5554    -1.6087     2.0998 C.ar    
   7 C7             1.7531     3.2250     0.9735 C.2     
   8 O8             1.0113     4.1884     0.9457 O.2     
   9 C9             3.5572     4.6657     0.1945 C.3     
  10 N10            3.0457     3.3593     0.6163 N.am    
  11 C11            3.2768     4.8661    -1.2962 C.3     
  12 C12            1.7781     4.7061    -1.5592 C.3     
  13 C13            3.7211     6.2691    -1.7147 C.3     
  14 C14            4.0507     3.8234    -2.1054 C.3     
  15 C15            5.0431     4.7261     0.4386 C.2     
  16 N16            5.6851     5.9105     0.3980 N.am    
  17 O17            5.6612     3.7090     0.6716 O.2     
  18 C18            7.1400     5.9609     0.5614 C.3     
  19 C19           -1.2616    -0.3925     2.6065 C.3     
  20 C20           -2.4702    -0.0412     1.7335 C.3     
  21 C21           -3.1453     1.2169     2.2704 C.3     
  22 N22           -2.1612     2.1370     2.8443 N.3     
  23 C23           -1.2006     2.5927     1.8287 C.3     
  24 C24           -2.8222     3.2774     3.4929 C.3     
  25 C25            2.2571    -2.2924     1.1068 C.ar    
  26 C26            2.6222    -3.6082     1.3056 C.ar    
  27 C27            2.2934    -4.2494     2.4864 C.ar    
  28 C28            1.5971    -3.5769     3.4750 C.ar    
  29 C29            1.2322    -2.2593     3.2911 C.ar    
  30 C30            2.6153    -1.5956    -0.1806 C.3     
  31 C31            4.1365    -1.4719    -0.2874 C.3     
  32 C32            2.0852    -2.4072    -1.3643 C.3     
  33 H33            3.0629     5.4512     0.7660 H       
  34 H34            3.6374     2.5909     0.6385 H       
  35 H35            1.2267     5.4488    -0.9827 H       
  36 H36            1.5783     4.8488    -2.6212 H       
  37 H37            1.4615     3.7065    -1.2611 H       
  38 H38            4.7557     6.4282    -1.4109 H       
  39 H39            3.6409     6.3678    -2.7972 H       
  40 H40            3.0831     7.0107    -1.2340 H       
  41 H41            3.7342     2.8239    -1.8073 H       
  42 H42            3.8509     3.9662    -3.1674 H       
  43 H43            5.1184     3.9374    -1.9181 H       
  44 H44            5.1837     6.7294     0.2607 H       
  45 H45            7.4112     5.5476     1.5328 H       
  46 H46            7.6147     5.3770    -0.2272 H       
  47 H47            7.4769     6.9958     0.5000 H       
  48 H48           -1.0822    -1.4668     2.5650 H       
  49 H49           -1.4574    -0.0946     3.6366 H       
  50 H50           -2.1394     0.1336     0.7098 H       
  51 H51           -3.1804    -0.8680     1.7480 H       
  52 H52           -3.6703     1.7166     1.4563 H       
  53 H53           -3.8645     0.9365     3.0400 H       
  54 H54           -0.8416     3.5887     2.0877 H       
  55 H55           -1.6874     2.6218     0.8539 H       
  56 H56           -3.4699     2.9157     4.2915 H       
  57 H57           -2.0684     3.9448     3.9105 H       
  58 H58           -3.4188     3.8177     2.7579 H       
  59 H59            3.1655    -4.1387     0.5376 H       
  60 H60            2.5811    -5.2794     2.6371 H       
  61 H61            1.3430    -4.0831     4.3946 H       
  62 H62            0.6890    -1.7353     4.0637 H       
  63 H63            2.1682    -0.6016    -0.1923 H       
  64 H64            4.5142    -0.8937     0.5559 H       
  65 H65            4.5836    -2.4659    -0.2757 H       
  66 H66            4.3956    -0.9680    -1.2185 H       
  67 H67            1.0015    -2.4953    -1.2882 H       
  68 H68            2.3443    -1.9033    -2.2954 H       
  69 H69            2.5323    -3.4012    -1.3526 H       
@<TRIPOS>BOND
   1    1    2 1
   2    1    3 2
   3    1   23 1
   4    2   19 1
   5    2    5 1
   6    3    4 1
   7    3    7 1
   8    4    5 2
   9    5    6 1
  10    6   25 ar
  11    6   29 ar
  12    7    8 2
  13    7   10 am
  14    9   10 1
  15    9   11 1
  16    9   15 1
  17    9   33 1
  18   10   34 1
  19   11   12 1
  20   11   13 1
  21   11   14 1
  22   12   35 1
  23   12   36 1
  24   12   37 1
  25   13   38 1
  26   13   39 1
  27   13   40 1
  28   14   41 1
  29   14   42 1
  30   14   43 1
  31   15   16 am
  32   15   17 2
  33   16   18 1
  34   16   44 1
  35   18   45 1
  36   18   46 1
  37   18   47 1
  38   19   20 1
  39   19   48 1
  40   19   49 1
  41   20   21 1
  42   20   50 1
  43   20   51 1
  44   21   22 1
  45   21   52 1
  46   21   53 1
  47   22   23 1
  48   22   24 1
  49   23   54 1
  50   23   55 1
  51   24   56 1
  52   24   57 1
  53   24   58 1
  54   25   26 ar
  55   25   30 1
  56   26   27 ar
  57   26   59 1
  58   27   28 ar
  59   27   60 1
  60   28   29 ar
  61   28   61 1
  62   29   62 1
  63   30   31 1
  64   30   32 1
  65   30   63 1
  66   31   64 1
  67   31   65 1
  68   31   66 1
  69   32   67 1
  70   32   68 1
  71   32   69 1

#	End of record

