#	Name: ASD01911023
#	Creating user name:	WinNT
#	Creation time:	15. 06. 2019 19:56

#	Modifying user name:	WinNT
#	Modification time:	15. 06. 2019 19:56

#	Program:	/corina/corina34_cracker 3.40 0067  02.08.2006

@<TRIPOS>MOLECULE
ASD01911023
  57   60    0    0    0
SMALL
NO_CHARGES


@<TRIPOS>ATOM
   1 N1            -4.4863    -3.3047     1.1933 N.3     
   2 C2            -3.1148    -2.8182     1.3942 C.3     
   3 C3            -2.4442    -2.6137     0.0316 C.3     
   4 N4            -3.3008    -1.7397    -0.7843 N.am    
   5 C5            -4.7232    -2.0888    -0.9192 C.3     
   6 C6            -5.3041    -2.3139     0.4808 C.3     
   7 C7            -2.7956    -0.6482    -1.3924 C.2     
   8 C8            -3.6395     0.1423    -2.3104 C.ar    
   9 C9            -3.5680     1.5387    -2.2983 C.ar    
  10 C10           -4.3531     2.2815    -3.1535 C.ar    
  11 C11           -5.2206     1.6497    -4.0325 C.ar    
  12 C12           -5.3011     0.2477    -4.0538 C.ar    
  13 C13           -4.5037    -0.5036    -3.1938 C.ar    
  14 C14           -6.1960    -0.4070    -4.9599 C.1     
  15 O15           -1.6450    -0.3145    -1.1851 O.2     
  16 C16           -6.9297    -0.9438    -5.7028 C.1     
  17 C17           -7.8246    -1.5985    -6.6089 C.ar    
  18 C18           -7.9049    -2.9935    -6.6304 C.ar    
  19 C19           -8.7685    -3.6203    -7.5050 C.ar    
  20 C20           -9.5553    -2.8728    -8.3616 C.ar    
  21 C21           -9.4825    -1.4859    -8.3484 C.ar    
  22 C22           -8.6250    -0.8452    -7.4709 C.ar    
  23 C23           -5.0726    -3.6568     2.4041 C.ar    
  24 O24           -5.9914     2.3860    -4.8711 O.3     
  25 C25           -5.9288    -4.7528     2.4632 C.ar    
  26 C26           -6.5048    -5.0919     3.6754 C.ar    
  27 C27           -6.2041    -4.3211     4.7903 C.ar    
  28 C28           -5.3463    -3.2474     4.6590 C.ar    
  29 N29           -4.8074    -2.9500     3.4918 N.ar    
  30 C30           -5.8585     3.8068    -4.7951 C.3     
  31 Cl31          -6.2697    -5.6811     1.0365 Cl      
  32 O32          -10.2584    -0.7571    -9.1933 O.3     
  33 C33          -11.1250    -1.4831   -10.0673 C.3     
  34 F34          -12.0145    -2.2520    -9.3091 F       
  35 F35          -11.8453    -0.5848   -10.8618 F       
  36 F36          -10.3636    -2.3235   -10.8866 F       
  37 H37           -3.1402    -1.8710     1.9330 H       
  38 H38           -2.5501    -3.5504     1.9713 H       
  39 H39           -1.4695    -2.1456     0.1698 H       
  40 H40           -2.3240    -3.5762    -0.4655 H       
  41 H41           -5.2553    -1.2736    -1.4097 H       
  42 H42           -4.8221    -3.0009    -1.5078 H       
  43 H43           -6.3271    -2.6804     0.3955 H       
  44 H44           -5.2989    -1.3738     1.0323 H       
  45 H45           -2.8953     2.0371    -1.6160 H       
  46 H46           -4.2931     3.3598    -3.1389 H       
  47 H47           -4.5607    -1.5820    -3.2051 H       
  48 H48           -7.2912    -3.5804    -5.9631 H       
  49 H49           -8.8298    -4.6984    -7.5208 H       
  50 H50          -10.2290    -3.3694    -9.0442 H       
  51 H51           -8.5679     0.2332    -7.4595 H       
  52 H52           -7.1733    -5.9367     3.7520 H       
  53 H53           -6.6372    -4.5588     5.7507 H       
  54 H54           -5.1102    -2.6452     5.5239 H       
  55 H55           -6.5289     4.2736    -5.5167 H       
  56 H56           -6.1155     4.1425    -3.7904 H       
  57 H57           -4.8298     4.0880    -5.0201 H       
@<TRIPOS>BOND
   1    1    2 1
   2    1   23 1
   3    1    6 1
   4    2    3 1
   5    2   37 1
   6    2   38 1
   7    3    4 1
   8    3   39 1
   9    3   40 1
  10    4    5 1
  11    4    7 am
  12    5    6 1
  13    5   41 1
  14    5   42 1
  15    6   43 1
  16    6   44 1
  17    7    8 1
  18    7   15 2
  19    8    9 ar
  20    8   13 ar
  21    9   10 ar
  22    9   45 1
  23   10   11 ar
  24   10   46 1
  25   11   12 ar
  26   11   24 1
  27   12   13 ar
  28   12   14 1
  29   13   47 1
  30   14   16 3
  31   16   17 1
  32   17   18 ar
  33   17   22 ar
  34   18   19 ar
  35   18   48 1
  36   19   20 ar
  37   19   49 1
  38   20   21 ar
  39   20   50 1
  40   21   22 ar
  41   21   32 1
  42   22   51 1
  43   23   25 ar
  44   23   29 ar
  45   24   30 1
  46   25   26 ar
  47   25   31 1
  48   26   27 ar
  49   26   52 1
  50   27   28 ar
  51   27   53 1
  52   28   29 ar
  53   28   54 1
  54   30   55 1
  55   30   56 1
  56   30   57 1
  57   32   33 1
  58   33   34 1
  59   33   35 1
  60   33   36 1

#	End of record

