#	Name: ASD05790025
#	Creating user name:	WinNT
#	Creation time:	15. 06. 2019 21:03

#	Modifying user name:	WinNT
#	Modification time:	15. 06. 2019 21:03

#	Program:	/corina/corina34_cracker 3.40 0067  02.08.2006

@<TRIPOS>MOLECULE
ASD05790025
  46   49    0    0    0
SMALL
NO_CHARGES


@<TRIPOS>ATOM
   1 C1            -0.1753     1.4748    -0.5693 C.2     
   2 C2            -0.1532    -0.0033    -0.5732 C.ar    
   3 C3             0.8966    -0.6843    -1.1863 C.ar    
   4 C4             0.9098    -2.0778    -1.1849 C.ar    
   5 C5            -0.1283    -2.7825    -0.5694 C.ar    
   6 C6            -1.1651    -2.1011     0.0361 C.ar    
   7 C7            -1.1815    -0.7203     0.0429 C.ar    
   8 O8             0.7229     2.0975    -1.1015 O.2     
   9 N9            -1.1942     2.1320     0.0193 N.am    
  10 C10           -1.1619     3.5244     0.1191 C.ar    
  11 C11           -2.3411     4.2546     0.0191 C.ar    
  12 C12           -2.3128     5.6284     0.1176 C.ar    
  13 C13           -1.0980     6.2877     0.3182 C.ar    
  14 C14            0.0844     5.5513     0.4183 C.ar    
  15 C15            0.0486     4.1774     0.3242 C.ar    
  16 O16           -2.1303     8.5757     0.3440 O.3     
  17 C17           -1.0639     7.7608     0.4238 C.2     
  18 N18            0.0114     8.4876     0.6113 N.2     
  19 C19           -0.3500     9.7870     0.6549 C.2     
  20 C20           -1.6953     9.8427     0.4870 C.2     
  21 C21           -2.5437    11.0880     0.4652 C.3     
  22 F22           -2.6406    11.5633    -0.8470 F       
  23 F23           -3.8222    10.7898     0.9487 F       
  24 F24           -1.9560    12.0669     1.2736 F       
  25 C25            0.5582    10.9441     0.8511 C.ar    
  26 C26            1.6696    10.8273     1.6834 C.ar    
  27 C27            2.5109    11.9067     1.8624 C.ar    
  28 C28            2.2525    13.1027     1.2173 C.ar    
  29 C29            1.1506    13.2241     0.3899 C.ar    
  30 C30            0.3059    12.1495     0.1992 C.ar    
  31 C31            1.9843    -2.7860    -1.8130 C.1     
  32 N32            2.8367    -3.3478    -2.3113 N.1     
  33 H33            1.6961    -0.1347    -1.6608 H       
  34 H34           -0.1197    -3.8625    -0.5678 H       
  35 H35           -1.9649    -2.6505     0.5103 H       
  36 H36           -1.9935    -0.1935     0.5220 H       
  37 H37           -1.9499     1.6377     0.3736 H       
  38 H38           -3.2801     3.7442    -0.1364 H       
  39 H39           -3.2289     6.1950     0.0395 H       
  40 H40            1.0255     6.0582     0.5730 H       
  41 H41            0.9621     3.6071     0.4056 H       
  42 H42            1.8721     9.8941     2.1879 H       
  43 H43            3.3724    11.8174     2.5075 H       
  44 H44            2.9132    13.9449     1.3604 H       
  45 H45            0.9533    14.1604    -0.1110 H       
  46 H46           -0.5515    12.2439    -0.4507 H       
@<TRIPOS>BOND
   1    1    2 1
   2    1    8 2
   3    1    9 am
   4    2    3 ar
   5    2    7 ar
   6    3    4 ar
   7    3   33 1
   8    4    5 ar
   9    4   31 1
  10    5    6 ar
  11    5   34 1
  12    6    7 ar
  13    6   35 1
  14    7   36 1
  15    9   10 1
  16    9   37 1
  17   10   11 ar
  18   10   15 ar
  19   11   12 ar
  20   11   38 1
  21   12   13 ar
  22   12   39 1
  23   13   14 ar
  24   13   17 1
  25   14   15 ar
  26   14   40 1
  27   15   41 1
  28   16   17 1
  29   16   20 1
  30   17   18 2
  31   18   19 1
  32   19   20 2
  33   19   25 1
  34   20   21 1
  35   21   22 1
  36   21   23 1
  37   21   24 1
  38   25   26 ar
  39   25   30 ar
  40   26   27 ar
  41   26   42 1
  42   27   28 ar
  43   27   43 1
  44   28   29 ar
  45   28   44 1
  46   29   30 ar
  47   29   45 1
  48   30   46 1
  49   31   32 3

#	End of record

