#	Name: ASD00840083
#	Creating user name:	WinNT
#	Creation time:	15. 06. 2019 18:37

#	Modifying user name:	WinNT
#	Modification time:	15. 06. 2019 18:37

#	Program:	/corina/corina34_cracker 3.40 0067  02.08.2006

@<TRIPOS>MOLECULE
ASD00840083
  94   99    0    0    0
SMALL
NO_CHARGES


@<TRIPOS>ATOM
   1 N1            -0.0051     1.3211     0.0355 N.ar    
   2 C2             0.0089    -0.0012     0.0185 C.ar    
   3 C3             1.2116    -0.6961    -0.0015 C.ar    
   4 C4             2.3994     0.0138    -0.0035 C.ar    
   5 C5             2.3418     1.4008     0.0147 C.ar    
   6 C6             1.1109     2.0254     0.0341 C.ar    
   7 C7             1.2227    -2.2030    -0.0203 C.3     
   8 C8             0.4753    -2.7238    -1.2294 C.2     
   9 N9             2.5989    -2.7050    -0.0122 N.am    
  10 C10            3.4467    -2.3635    -1.0028 C.2     
  11 N11            4.7402    -2.7372    -0.9415 N.am    
  12 O12            3.0445    -1.7184    -1.9517 O.2     
  13 C13            5.2676    -3.4159     0.2500 C.3     
  14 C14            6.4984    -2.6520     0.7484 C.3     
  15 C15            7.5064    -2.5152    -0.3949 C.3     
  16 C16            6.8759    -1.7204    -1.5408 C.3     
  17 C17            5.6481    -2.4789    -2.0674 C.3     
  18 C18            8.7519    -1.7828     0.1085 C.3     
  19 C19            9.3849    -2.5776     1.2539 C.3     
  20 C20           10.6632    -1.8721     1.7124 C.3     
  21 N21           11.5998    -1.7725     0.5858 N.3     
  22 C22           11.0321    -0.9734    -0.5076 C.3     
  23 C23            9.7648    -1.6521    -1.0324 C.3     
  24 C24           12.8915    -1.2255     1.0219 C.3     
  25 O25            0.7556    -2.5211    -2.3919 O.2     
  26 N26           -0.5572    -3.4524    -0.7728 N.am    
  27 C27            0.4484    -2.7529     1.1556 C.ar    
  28 C28           -0.6018    -3.4897     0.6218 C.ar    
  29 C29            0.6133    -2.6432     2.5179 C.ar    
  30 C30           -0.2747    -3.2723     3.3743 C.ar    
  31 C31           -1.3264    -4.0103     2.8547 C.ar    
  32 C32           -1.4923    -4.1206     1.4874 C.ar    
  33 Cl33          -0.0708    -3.1375     5.0930 Cl      
  34 F34           -2.1935    -4.6246     3.6890 F       
  35 C35           -1.0276    -5.8359    -2.0659 C.ar    
  36 C36            0.1502    -5.9981    -2.7813 C.ar    
  37 C37           -1.7088    -6.9420    -1.5943 C.ar    
  38 C38           -1.2191    -8.2115    -1.8334 C.ar    
  39 C39           -0.0414    -8.3790    -2.5486 C.ar    
  40 C40            0.6435    -7.2712    -3.0230 C.ar    
  41 O41            0.4396    -9.6280    -2.7838 O.3     
  42 O42            0.8194    -4.9100    -3.2451 O.3     
  43 C43            2.0248    -5.1517    -3.9736 C.3     
  44 C44           -0.3182   -10.7232    -2.2658 C.3     
  45 C45           13.9131    -1.3672    -0.1083 C.3     
  46 S46           -1.6513    -4.2181    -1.7521 S.o2    
  47 O47           -2.8323    -4.3862    -0.9799 O.2     
  48 O48           -1.6269    -3.5306    -2.9955 O.2     
  49 O49           -1.1626    -0.6857     0.0212 O.3     
  50 C50           -3.5735    -0.8519     0.0424 C.3     
  51 C51           -2.3649     0.0863     0.0426 C.3     
  52 H52            3.3496    -0.4994    -0.0185 H       
  53 H53            3.2502     1.9848     0.0141 H       
  54 H54            1.0605     3.1041     0.0480 H       
  55 H55            2.9001    -3.2832     0.7061 H       
  56 H56            4.5060    -3.4302     1.0297 H       
  57 H57            5.5504    -4.4370    -0.0062 H       
  58 H58            6.1982    -1.6611     1.0892 H       
  59 H59            6.9560    -3.1979     1.5735 H       
  60 H60            7.7875    -3.5060    -0.7518 H       
  61 H61            6.5721    -0.7384    -1.1784 H       
  62 H62            7.6022    -1.6033    -2.3451 H       
  63 H63            5.9645    -3.4222    -2.5124 H       
  64 H64            5.1373    -1.8727    -2.8155 H       
  65 H65            8.4724    -0.7911     0.4641 H       
  66 H66            8.6837    -2.6375     2.0863 H       
  67 H67            9.6276    -3.5826     0.9088 H       
  68 H68           10.4178    -0.8722     2.0702 H       
  69 H69           11.1240    -2.4432     2.5184 H       
  70 H70           10.7849     0.0223    -0.1394 H       
  71 H71           11.7608    -0.8917    -1.3140 H       
  72 H72           10.0135    -2.6425    -1.4134 H       
  73 H73            9.3350    -1.0507    -1.8335 H       
  74 H74           12.7732    -0.1718     1.2747 H       
  75 H75           13.2406    -1.7723     1.8978 H       
  76 H76            1.4345    -2.0674     2.9184 H       
  77 H77           -2.3142    -4.6970     1.0889 H       
  78 H78           -2.6254    -6.8137    -1.0377 H       
  79 H79           -1.7529    -9.0743    -1.4633 H       
  80 H80            1.5599    -7.3995    -3.5799 H       
  81 H81            2.4576    -4.2012    -4.2856 H       
  82 H82            2.7334    -5.6823    -3.3378 H       
  83 H83            1.8028    -5.7559    -4.8532 H       
  84 H84           -0.3884   -10.6358    -1.1816 H       
  85 H85           -1.3191   -10.7088    -2.6971 H       
  86 H86            0.1750   -11.6604    -2.5236 H       
  87 H87           14.0314    -2.4208    -0.3611 H       
  88 H88           13.5640    -0.8203    -0.9842 H       
  89 H89           14.8715    -0.9613     0.2153 H       
  90 H90           -3.5540    -1.4692    -0.8558 H       
  91 H91           -3.5368    -1.4919     0.9239 H       
  92 H92           -4.4906    -0.2631     0.0587 H       
  93 H93           -2.3844     0.7036     0.9408 H       
  94 H94           -2.4016     0.7263    -0.8390 H       
@<TRIPOS>BOND
   1    1    2 ar
   2    1    6 ar
   3    2    3 ar
   4    2   49 1
   5    3    4 ar
   6    3    7 1
   7    4    5 ar
   8    4   52 1
   9    5    6 ar
  10    5   53 1
  11    6   54 1
  12    7    8 1
  13    7    9 1
  14    7   27 1
  15    8   25 2
  16    8   26 am
  17    9   10 am
  18    9   55 1
  19   10   11 am
  20   10   12 2
  21   11   13 1
  22   11   17 1
  23   13   14 1
  24   13   56 1
  25   13   57 1
  26   14   15 1
  27   14   58 1
  28   14   59 1
  29   15   16 1
  30   15   18 1
  31   15   60 1
  32   16   17 1
  33   16   61 1
  34   16   62 1
  35   17   63 1
  36   17   64 1
  37   18   19 1
  38   18   23 1
  39   18   65 1
  40   19   20 1
  41   19   66 1
  42   19   67 1
  43   20   21 1
  44   20   68 1
  45   20   69 1
  46   21   22 1
  47   21   24 1
  48   22   23 1
  49   22   70 1
  50   22   71 1
  51   23   72 1
  52   23   73 1
  53   24   45 1
  54   24   74 1
  55   24   75 1
  56   26   46 am
  57   26   28 1
  58   27   28 ar
  59   27   29 ar
  60   28   32 ar
  61   29   30 ar
  62   29   76 1
  63   30   31 ar
  64   30   33 1
  65   31   32 ar
  66   31   34 1
  67   32   77 1
  68   35   36 ar
  69   35   37 ar
  70   35   46 1
  71   36   42 1
  72   36   40 ar
  73   37   38 ar
  74   37   78 1
  75   38   39 ar
  76   38   79 1
  77   39   40 ar
  78   39   41 1
  79   40   80 1
  80   41   44 1
  81   42   43 1
  82   43   81 1
  83   43   82 1
  84   43   83 1
  85   44   84 1
  86   44   85 1
  87   44   86 1
  88   45   87 1
  89   45   88 1
  90   45   89 1
  91   46   47 2
  92   46   48 2
  93   49   51 1
  94   50   51 1
  95   50   90 1
  96   50   91 1
  97   50   92 1
  98   51   93 1
  99   51   94 1

#	End of record

