#	Name: ASD00190062
#	Creating user name:	WinNT
#	Creation time:	15. 06. 2019 18:33

#	Modifying user name:	WinNT
#	Modification time:	15. 06. 2019 18:33

#	Program:	/corina/corina34_cracker 3.40 0067  02.08.2006

@<TRIPOS>MOLECULE
ASD00190062
  40   43    0    0    0
SMALL
NO_CHARGES


@<TRIPOS>ATOM
   1 O1             0.0021    -0.0041     0.0020 O.2     
   2 C2            -0.0144     1.2113     0.0087 C.2     
   3 N3             1.1435     1.9010     0.0013 N.am    
   4 C4             2.3549     1.2233    -0.0139 C.ar    
   5 N5             2.3722    -0.0929    -0.0266 N.ar    
   6 C6             3.5065    -0.7964    -0.0419 C.ar    
   7 C7             4.7416    -0.1771    -0.0454 C.ar    
   8 C8             4.7921     1.2287    -0.0323 C.ar    
   9 C9             6.0065     1.9299    -0.0354 C.ar    
  10 C10            5.9942     3.2929    -0.0227 C.ar    
  11 C11            4.7936     3.9980    -0.0067 C.ar    
  12 C12            3.5954     3.3472    -0.0029 C.ar    
  13 C13            3.5690     1.9472    -0.0216 C.ar    
  14 C14            3.4394    -2.2778    -0.0550 C.ar    
  15 C15            2.1997    -2.9133    -0.0570 C.ar    
  16 C16            2.1530    -4.2970    -0.0698 C.ar    
  17 C17            3.3491    -4.9998    -0.0802 C.ar    
  18 C18            4.5447    -4.3042    -0.0775 C.ar    
  19 N19            4.5609    -2.9872    -0.0703 N.ar    
  20 C20           -1.3042     1.9328     0.0187 C.ar    
  21 C21           -1.3268     3.3286     0.0207 C.ar    
  22 C22           -2.5342     3.9958     0.0301 C.ar    
  23 C23           -3.7210     3.2847     0.0376 C.ar    
  24 C24           -3.7058     1.9011     0.0362 C.ar    
  25 C25           -2.5055     1.2215     0.0206 C.ar    
  26 H26            1.1303     2.8709     0.0067 H       
  27 H27            5.6502    -0.7607    -0.0575 H       
  28 H28            6.9442     1.3942    -0.0474 H       
  29 H29            6.9290     3.8336    -0.0247 H       
  30 H30            4.8118     5.0778     0.0032 H       
  31 H31            2.6725     3.9079     0.0099 H       
  32 H32            1.2878    -2.3347    -0.0484 H       
  33 H33            1.2067    -4.8175    -0.0713 H       
  34 H34            3.3467    -6.0798    -0.0899 H       
  35 H35            5.4776    -4.8483    -0.0855 H       
  36 H36           -0.4011     3.8849     0.0151 H       
  37 H37           -2.5530     5.0757     0.0320 H       
  38 H38           -4.6636     3.8119     0.0450 H       
  39 H39           -4.6358     1.3521     0.0429 H       
  40 H40           -2.4950     0.1416     0.0143 H       
@<TRIPOS>BOND
   1    1    2 2
   2    2    3 am
   3    2   20 1
   4    3    4 1
   5    3   26 1
   6    4   13 ar
   7    4    5 ar
   8    5    6 ar
   9    6    7 ar
  10    6   14 1
  11    7    8 ar
  12    7   27 1
  13    8   13 ar
  14    8    9 ar
  15    9   10 ar
  16    9   28 1
  17   10   11 ar
  18   10   29 1
  19   11   12 ar
  20   11   30 1
  21   12   13 ar
  22   12   31 1
  23   14   19 ar
  24   14   15 ar
  25   15   16 ar
  26   15   32 1
  27   16   17 ar
  28   16   33 1
  29   17   18 ar
  30   17   34 1
  31   18   19 ar
  32   18   35 1
  33   20   25 ar
  34   20   21 ar
  35   21   22 ar
  36   21   36 1
  37   22   23 ar
  38   22   37 1
  39   23   24 ar
  40   23   38 1
  41   24   25 ar
  42   24   39 1
  43   25   40 1

#	End of record

