#	Name: ASD01917807
#	Creating user name:	WinNT
#	Creation time:	15. 06. 2019 20:10

#	Modifying user name:	WinNT
#	Modification time:	15. 06. 2019 20:10

#	Program:	/corina/corina34_cracker 3.40 0067  02.08.2006

@<TRIPOS>MOLECULE
ASD01917807
  39   42    0    0    0
SMALL
NO_CHARGES


@<TRIPOS>ATOM
   1 C1             0.0042     1.2887    -0.0708 C.2     
   2 C2            -0.0045    -0.0581    -0.0605 C.2     
   3 C3            -1.2513    -0.9047    -0.0159 C.3     
   4 C4            -2.4223    -0.0371     0.4620 C.3     
   5 N5            -2.3910     1.2494    -0.2496 N.am    
   6 C6            -1.2390     2.1426    -0.0288 C.3     
   7 C7            -3.3897     1.6029    -1.0828 C.2     
   8 O8            -4.2772     0.8109    -1.3391 O.2     
   9 O9             1.2837     1.6820    -0.1177 O.3     
  10 C10            2.0461     0.5772    -0.1323 C.2     
  11 N11            1.2695    -0.4709    -0.0974 N.2     
  12 C12            3.5521     0.5515    -0.1814 C.3     
  13 O13            3.9840     0.5313    -1.5434 O.3     
  14 C14            5.3245     0.5067    -1.7653 C.ar    
  15 C15            5.8137     0.4861    -3.0634 C.ar    
  16 C16            7.1768     0.4612    -3.2862 C.ar    
  17 C17            8.0534     0.4567    -2.2170 C.ar    
  18 C18            7.5683     0.4767    -0.9223 C.ar    
  19 C19            6.2062     0.5080    -0.6942 C.ar    
  20 C20           -3.4068     2.9427    -1.6806 C.2     
  21 O21           -2.5622     3.9627    -1.4013 O.3     
  22 C22           -2.9179     5.0039    -2.1603 C.2     
  23 N23           -3.9448     4.6681    -2.8944 N.2     
  24 C24           -4.2728     3.3994    -2.6295 C.2     
  25 H25           -1.4660    -1.2914    -1.0122 H       
  26 H26           -1.1049    -1.7341     0.6760 H       
  27 H27           -3.3627    -0.5468     0.2523 H       
  28 H28           -2.3326     0.1373     1.5342 H       
  29 H29           -1.3248     2.6247     0.9450 H       
  30 H30           -1.1983     2.8966    -0.8148 H       
  31 H31            3.9469     1.4398     0.3118 H       
  32 H32            3.9171    -0.3398     0.3288 H       
  33 H33            5.1294     0.4893    -3.8989 H       
  34 H34            7.5581     0.4448    -4.2966 H       
  35 H35            9.1187     0.4371    -2.3933 H       
  36 H36            8.2550     0.4724    -0.0888 H       
  37 H37            5.8278     0.5236     0.3172 H       
  38 H38           -2.4336     5.9692    -2.1655 H       
  39 H39           -5.0775     2.8395    -3.0826 H       
@<TRIPOS>BOND
   1    1    2 2
   2    1    9 1
   3    1    6 1
   4    2    3 1
   5    2   11 1
   6    3    4 1
   7    3   25 1
   8    3   26 1
   9    4    5 1
  10    4   27 1
  11    4   28 1
  12    5    6 1
  13    5    7 am
  14    6   29 1
  15    6   30 1
  16    7    8 2
  17    7   20 1
  18    9   10 1
  19   10   11 2
  20   10   12 1
  21   12   13 1
  22   12   31 1
  23   12   32 1
  24   13   14 1
  25   14   15 ar
  26   14   19 ar
  27   15   16 ar
  28   15   33 1
  29   16   17 ar
  30   16   34 1
  31   17   18 ar
  32   17   35 1
  33   18   19 ar
  34   18   36 1
  35   19   37 1
  36   20   21 1
  37   20   24 2
  38   21   22 1
  39   22   23 2
  40   22   38 1
  41   23   24 1
  42   24   39 1

#	End of record

