#	Name: ASD04590475
#	Creating user name:	WinNT
#	Creation time:	15. 06. 2019 20:50

#	Modifying user name:	WinNT
#	Modification time:	15. 06. 2019 20:50

#	Program:	/corina/corina34_cracker 3.40 0067  02.08.2006

@<TRIPOS>MOLECULE
ASD04590475
  56   61    0    0    0
SMALL
NO_CHARGES


@<TRIPOS>ATOM
   1 C1            -0.0172     1.3836    -0.0981 C.ar    
   2 C2             0.0017    -0.0037    -0.0996 C.ar    
   3 C3             2.4017     0.0225    -0.0925 C.ar    
   4 C4             2.3765     1.4286    -0.0910 C.ar    
   5 C5             1.1620     2.0990    -0.0938 C.ar    
   6 N6             3.7037    -0.3550    -0.0899 N.2     
   7 C7             4.4706     0.7084    -0.0868 C.2     
   8 N8             3.6966     1.8377    -0.0874 N.pl3   
   9 C9             5.9480     0.6907    -0.0838 C.2     
  10 C10            6.7657    -0.4631    -0.0842 C.2     
  11 C11            8.0581    -0.0538    -0.0807 C.2     
  12 N12            8.0645     1.3051    -0.0783 N.pl3   
  13 N13            6.7360     1.7480    -0.0860 N.2     
  14 N14            6.3191    -1.7939    -0.0871 N.am    
  15 C15            7.2112    -2.8041    -0.0871 C.2     
  16 O16            8.4028    -2.5628    -0.0846 O.2     
  17 C17            1.1965    -0.6867    -0.0969 C.ar    
  18 C18           -1.2966    -0.7689    -0.1039 C.3     
  19 N19           -1.7149    -1.0159    -1.4902 N.3     
  20 C20            6.7409    -4.2056    -0.0902 C.ar    
  21 C21            5.3916    -4.5173     0.0258 C.ar    
  22 C22           -2.8429    -1.9573    -1.5404 C.3     
  23 C23           -0.5905    -1.5065    -2.3003 C.3     
  24 C24           -1.0544    -1.6933    -3.7474 C.3     
  25 O25           -2.1707    -2.5868    -3.7732 O.3     
  26 C26           -3.2842    -2.1396    -2.9950 C.3     
  27 C27            7.6472    -5.2897    -0.2177 C.ar    
  28 C28            7.1162    -6.6056    -0.2122 C.ar    
  29 N29            5.7982    -6.7762    -0.0893 N.ar    
  30 N30            4.9936    -5.7818     0.0205 N.ar    
  31 C31            9.0262    -5.0962    -0.3467 C.ar    
  32 C32            9.8477    -6.1778    -0.4661 C.ar    
  33 C33            9.3314    -7.4723    -0.4613 C.ar    
  34 C34            7.9945    -7.6962    -0.3371 C.ar    
  35 H35           -0.9618     1.9070    -0.1047 H       
  36 H36            1.1399     3.1788    -0.0929 H       
  37 H37            4.0153     2.7539    -0.0858 H       
  38 H38            8.9280    -0.6939    -0.0798 H       
  39 H39            8.8528     1.8704    -0.0753 H       
  40 H40            5.3684    -1.9865    -0.0891 H       
  41 H41            1.2034    -1.7666    -0.0978 H       
  42 H42           -1.1591    -1.7207     0.4092 H       
  43 H43           -2.0628    -0.1872     0.4087 H       
  44 H44            4.6635    -3.7254     0.1210 H       
  45 H45           -2.5331    -2.9188    -1.1308 H       
  46 H46           -3.6732    -1.5622    -0.9550 H       
  47 H47            0.2235    -0.7822    -2.2697 H       
  48 H48           -0.2446    -2.4607    -1.9029 H       
  49 H49           -1.3498    -0.7295    -4.1622 H       
  50 H50           -0.2401    -2.1109    -4.3395 H       
  51 H51           -4.0827    -2.8801    -3.0431 H       
  52 H52           -3.6445    -1.1889    -3.3880 H       
  53 H53            9.4373    -4.0975    -0.3520 H       
  54 H54           10.9128    -6.0294    -0.5662 H       
  55 H55           10.0035    -8.3121    -0.5574 H       
  56 H56            7.6107    -8.7057    -0.3352 H       
@<TRIPOS>BOND
   1    1    2 ar
   2    1    5 ar
   3    1   35 1
   4    2   17 ar
   5    2   18 1
   6    3    4 ar
   7    3    6 1
   8    3   17 ar
   9    4    5 ar
  10    4    8 1
  11    5   36 1
  12    6    7 2
  13    7    8 1
  14    7    9 1
  15    8   37 1
  16    9   10 1
  17    9   13 2
  18   10   11 2
  19   10   14 1
  20   11   12 1
  21   11   38 1
  22   12   13 1
  23   12   39 1
  24   14   15 am
  25   14   40 1
  26   15   16 2
  27   15   20 1
  28   17   41 1
  29   18   19 1
  30   18   42 1
  31   18   43 1
  32   19   22 1
  33   19   23 1
  34   20   21 ar
  35   20   27 ar
  36   21   30 ar
  37   21   44 1
  38   22   26 1
  39   22   45 1
  40   22   46 1
  41   23   24 1
  42   23   47 1
  43   23   48 1
  44   24   25 1
  45   24   49 1
  46   24   50 1
  47   25   26 1
  48   26   51 1
  49   26   52 1
  50   27   28 ar
  51   27   31 ar
  52   28   29 ar
  53   28   34 ar
  54   29   30 ar
  55   31   32 ar
  56   31   53 1
  57   32   33 ar
  58   32   54 1
  59   33   34 ar
  60   33   55 1
  61   34   56 1

#	End of record

