#	Name: ASD04590756
#	Creating user name:	WinNT
#	Creation time:	15. 06. 2019 20:51

#	Modifying user name:	WinNT
#	Modification time:	15. 06. 2019 20:51

#	Program:	/corina/corina34_cracker 3.40 0067  02.08.2006

@<TRIPOS>MOLECULE
ASD04590756
  55   57    0    0    0
SMALL
NO_CHARGES


@<TRIPOS>ATOM
   1 N1             0.0707     1.6020    -0.0715 N.ar    
   2 C2            -0.0232     0.2774    -0.0645 C.ar    
   3 N3             1.0414    -0.5082    -0.0471 N.ar    
   4 C4             2.2641     0.0137    -0.0360 C.ar    
   5 C5             2.3975     1.4169    -0.0430 C.ar    
   6 C6             1.2491     2.2025    -0.0614 C.ar    
   7 N7             3.5261    -0.5173    -0.0178 N.pl3   
   8 C8             4.4623     0.4804    -0.0129 C.2     
   9 C9             3.8434     1.6887    -0.0277 C.2     
  10 C10            5.9544     0.2700     0.0059 C.3     
  11 O11            6.2542    -0.9552     0.6775 O.3     
  12 C12            3.8307    -1.9502    -0.0050 C.3     
  13 C13            3.3555    -2.5783     1.3169 C.3     
  14 C14            2.3125    -3.6522     0.9447 C.3     
  15 C15            2.6589    -4.0275    -0.5176 C.3     
  16 C16            3.0599    -2.6644    -1.1344 C.3     
  17 S17           -1.6231    -0.4606    -0.0782 S.3     
  18 C18            4.4738     2.9745    -0.0282 C.1     
  19 C19            4.9907     4.0286    -0.0286 C.1     
  20 C20            6.4786     0.2060    -1.4301 C.3     
  21 C21           -2.6550     1.0263    -0.0990 C.3     
  22 Si22           5.8271     5.7346    -0.0292 Si      
  23 C23            4.5235     7.0653    -0.0527 C.3     
  24 C24            6.8710     5.9149     1.5032 C.3     
  25 C25            6.9068     5.8962    -1.5388 C.3     
  26 C26            6.6240     1.4322     0.7420 C.3     
  27 H27            1.3186     3.2802    -0.0675 H       
  28 H28            6.0198    -0.9570     1.6156 H       
  29 H29            4.9027    -2.1049    -0.1277 H       
  30 H30            4.1967    -3.0385     1.8353 H       
  31 H31            2.8982    -1.8169     1.9489 H       
  32 H32            2.4110    -4.5213     1.5951 H       
  33 H33            1.3044    -3.2420     1.0047 H       
  34 H34            3.4945    -4.7266    -0.5494 H       
  35 H35            1.7884    -4.4408    -1.0269 H       
  36 H36            2.1726    -2.0947    -1.4102 H       
  37 H37            3.7039    -2.8127    -2.0012 H       
  38 H38            6.3289     1.1708    -1.9148 H       
  39 H39            7.5419    -0.0336    -1.4184 H       
  40 H40            5.9385    -0.5646    -1.9800 H       
  41 H41           -2.4501     1.6232     0.7897 H       
  42 H42           -2.4299     1.6123    -0.9901 H       
  43 H43           -3.7064     0.7389    -0.1092 H       
  44 H44            3.8918     6.9707     0.8305 H       
  45 H45            5.0033     8.0440    -0.0531 H       
  46 H46            3.9127     6.9598    -0.9493 H       
  47 H47            7.6337     5.1363     1.5170 H       
  48 H48            7.3509     6.8936     1.5029 H       
  49 H49            6.2393     5.8204     2.3864 H       
  50 H50            6.2960     5.7907    -2.4354 H       
  51 H51            7.3867     6.8749    -1.5391 H       
  52 H52            7.6695     5.1176    -1.5250 H       
  53 H53            6.2506     1.4778     1.7650 H       
  54 H54            7.7033     1.2800     0.7556 H       
  55 H55            6.3953     2.3668     0.2297 H       
@<TRIPOS>BOND
   1    1    2 ar
   2    1    6 ar
   3    2    3 ar
   4    2   17 1
   5    3    4 ar
   6    4    5 ar
   7    4    7 1
   8    5    6 ar
   9    5    9 1
  10    6   27 1
  11    7    8 1
  12    7   12 1
  13    8    9 2
  14    8   10 1
  15    9   18 1
  16   10   11 1
  17   10   20 1
  18   10   26 1
  19   11   28 1
  20   12   13 1
  21   12   16 1
  22   12   29 1
  23   13   14 1
  24   13   30 1
  25   13   31 1
  26   14   15 1
  27   14   32 1
  28   14   33 1
  29   15   16 1
  30   15   34 1
  31   15   35 1
  32   16   36 1
  33   16   37 1
  34   17   21 1
  35   18   19 3
  36   19   22 1
  37   20   38 1
  38   20   39 1
  39   20   40 1
  40   21   41 1
  41   21   42 1
  42   21   43 1
  43   22   23 1
  44   22   24 1
  45   22   25 1
  46   23   44 1
  47   23   45 1
  48   23   46 1
  49   24   47 1
  50   24   48 1
  51   24   49 1
  52   25   50 1
  53   25   51 1
  54   25   52 1
  55   26   53 1
  56   26   54 1
  57   26   55 1

#	End of record

