#	Name: ASD03731800
#	Creating user name:	WinNT
#	Creation time:	15. 06. 2019 20:46

#	Modifying user name:	WinNT
#	Modification time:	15. 06. 2019 20:46

#	Program:	/corina/corina34_cracker 3.40 0067  02.08.2006

@<TRIPOS>MOLECULE
ASD03731800
  40   41    0    0    0
SMALL
NO_CHARGES


@<TRIPOS>ATOM
   1 C1             0.3757     1.0929     1.9796 C.2     
   2 C2             0.2921    -0.2832     1.4525 C.ar    
   3 C3             1.3748    -0.8363     0.7630 C.ar    
   4 C4             1.2927    -2.1212     0.2726 C.ar    
   5 C5             0.1338    -2.8672     0.4629 C.ar    
   6 C6            -0.9442    -2.3200     1.1480 C.ar    
   7 C7            -0.8672    -1.0382     1.6466 C.ar    
   8 O8             1.3872     1.7469     1.8141 O.2     
   9 N9            -0.6714     1.6266     2.6394 N.am    
  10 S10           -0.5777     3.1706     3.2307 S.o2    
  11 O11           -1.8286     3.3766     3.8725 O.2     
  12 O12            0.6364     3.1900     3.9688 O.2     
  13 C13           -0.4410     4.2137     1.7529 C.3     
  14 O14            0.0558    -4.1323    -0.0222 O.3     
  15 C15           -1.1300    -4.7863     0.0893 C.ar    
  16 C16           -2.0834    -4.6702    -0.9112 C.ar    
  17 C17           -3.2918    -5.3390    -0.7947 C.ar    
  18 C18           -3.5450    -6.1230     0.3223 C.ar    
  19 C19           -2.5939    -6.2367     1.3180 C.ar    
  20 C20           -1.3860    -5.5756     1.2017 C.ar    
  21 O21           -4.2282    -5.2269    -1.7732 O.3     
  22 C22           -5.4503    -5.9437    -1.5869 C.3     
  23 C23           -6.3734    -5.6972    -2.7819 C.3     
  24 Cl24           2.6364    -2.8098    -0.5840 Cl      
  25 H25            2.2742    -0.2572     0.6146 H       
  26 H26           -1.8422    -2.9021     1.2938 H       
  27 H27           -1.7041    -0.6156     2.1828 H       
  28 H28           -1.4799     1.1063     2.7679 H       
  29 H29           -1.3205     4.0711     1.1249 H       
  30 H30           -0.3735     5.2598     2.0516 H       
  31 H31            0.4531     3.9369     1.1942 H       
  32 H32           -1.8847    -4.0595    -1.7795 H       
  33 H33           -4.4865    -6.6442     0.4135 H       
  34 H34           -2.7930    -6.8469     2.1865 H       
  35 H35           -0.6423    -5.6697     1.9792 H       
  36 H36           -5.2376    -7.0096    -1.5058 H       
  37 H37           -5.9376    -5.6000    -0.6745 H       
  38 H38           -6.5861    -4.6313    -2.8630 H       
  39 H39           -5.8861    -6.0409    -3.6944 H       
  40 H40           -7.3055    -6.2440    -2.6398 H       
@<TRIPOS>BOND
   1    1    2 1
   2    1    8 2
   3    1    9 am
   4    2    3 ar
   5    2    7 ar
   6    3    4 ar
   7    3   25 1
   8    4    5 ar
   9    4   24 1
  10    5    6 ar
  11    5   14 1
  12    6    7 ar
  13    6   26 1
  14    7   27 1
  15    9   10 am
  16    9   28 1
  17   10   11 2
  18   10   12 2
  19   10   13 1
  20   13   29 1
  21   13   30 1
  22   13   31 1
  23   14   15 1
  24   15   16 ar
  25   15   20 ar
  26   16   17 ar
  27   16   32 1
  28   17   18 ar
  29   17   21 1
  30   18   19 ar
  31   18   33 1
  32   19   20 ar
  33   19   34 1
  34   20   35 1
  35   21   22 1
  36   22   23 1
  37   22   36 1
  38   22   37 1
  39   23   38 1
  40   23   39 1
  41   23   40 1

#	End of record

