#	Name: ASD01813819
#	Creating user name:	WinNT
#	Creation time:	15. 06. 2019 19:31

#	Modifying user name:	WinNT
#	Modification time:	15. 06. 2019 19:31

#	Program:	/corina/corina34_cracker 3.40 0067  02.08.2006

@<TRIPOS>MOLECULE
ASD01813819
  47   50    0    0    0
SMALL
NO_CHARGES


@<TRIPOS>ATOM
   1 C1            -0.0169     1.3972     0.0097 C.2     
   2 C2             0.0021    -0.0041     0.0020 C.2     
   3 C3             1.1986    -0.6593    -0.0129 C.2     
   4 C4             2.3918     0.0821    -0.0204 C.2     
   5 N5             2.3437     1.4497    -0.0122 N.am    
   6 C6             1.1421     2.0937     0.0024 C.2     
   7 C7             3.6227    -0.5889    -0.0356 C.2     
   8 C8             4.7877     0.1218    -0.0425 C.2     
   9 C9             4.7345     1.5280    -0.0346 C.2     
  10 C10            3.4812     2.1736    -0.0189 C.2     
  11 O11            3.4258     3.3917    -0.0123 O.2     
  12 C12            5.9703     2.3140    -0.0413 C.2     
  13 O13            5.9124     3.6618    -0.0337 O.3     
  14 O14            7.0487     1.7516    -0.0537 O.2     
  15 C15            3.6593    -2.0954    -0.0439 C.3     
  16 N16            3.7787    -2.5747    -1.4274 N.3     
  17 C17            4.0550    -4.0176    -1.4629 C.3     
  18 C18            4.0930    -4.4914    -2.9177 C.3     
  19 N19            5.1256    -3.7424    -3.6473 N.3     
  20 C20            4.8493    -2.2994    -3.6118 C.3     
  21 C21            4.8113    -1.8256    -2.1570 C.3     
  22 C22            5.2387    -4.1963    -4.9577 C.ar    
  23 N23            4.4629    -5.1818    -5.3798 N.ar    
  24 C24            4.5378    -5.6418    -6.6149 C.ar    
  25 C25            5.4348    -5.1073    -7.5170 C.ar    
  26 C26            6.2683    -4.0712    -7.1156 C.ar    
  27 C27            6.1639    -3.6056    -5.8160 C.ar    
  28 F28            6.9545    -2.5992    -5.3832 F       
  29 H29           -0.9605     1.9226     0.0170 H       
  30 H30           -0.9233    -0.5609     0.0082 H       
  31 H31            1.2282    -1.7389    -0.0187 H       
  32 H32            1.1156     3.1733     0.0087 H       
  33 H33            5.7393    -0.3889    -0.0536 H       
  34 H34            6.7544     4.1373    -0.0385 H       
  35 H35            4.5153    -2.4412     0.5356 H       
  36 H36            2.7412    -2.4836     0.3971 H       
  37 H37            5.0173    -4.2153    -0.9907 H       
  38 H38            3.2701    -4.5514    -0.9270 H       
  39 H39            4.3265    -5.5557    -2.9475 H       
  40 H40            3.1221    -4.3186    -3.3819 H       
  41 H41            5.6342    -1.7656    -4.1477 H       
  42 H42            3.8870    -2.1017    -4.0839 H       
  43 H43            4.5779    -0.7613    -2.1271 H       
  44 H44            5.7823    -1.9984    -1.6927 H       
  45 H45            3.8884    -6.4478    -6.9234 H       
  46 H46            5.4884    -5.4910    -8.5251 H       
  47 H47            6.9787    -3.6360    -7.8028 H       
@<TRIPOS>BOND
   1    1    2 1
   2    1    6 2
   3    1   29 1
   4    2    3 2
   5    2   30 1
   6    3    4 1
   7    3   31 1
   8    4    5 1
   9    4    7 2
  10    5    6 1
  11    5   10 am
  12    6   32 1
  13    7    8 1
  14    7   15 1
  15    8    9 2
  16    8   33 1
  17    9   10 1
  18    9   12 1
  19   10   11 2
  20   12   13 1
  21   12   14 2
  22   13   34 1
  23   15   16 1
  24   15   35 1
  25   15   36 1
  26   16   17 1
  27   16   21 1
  28   17   18 1
  29   17   37 1
  30   17   38 1
  31   18   19 1
  32   18   39 1
  33   18   40 1
  34   19   20 1
  35   19   22 1
  36   20   21 1
  37   20   41 1
  38   20   42 1
  39   21   43 1
  40   21   44 1
  41   22   23 ar
  42   22   27 ar
  43   23   24 ar
  44   24   25 ar
  45   24   45 1
  46   25   26 ar
  47   25   46 1
  48   26   27 ar
  49   26   47 1
  50   27   28 1

#	End of record

