#	Name: ASD01150718
#	Creating user name:	WinNT
#	Creation time:	15. 06. 2019 19:04

#	Modifying user name:	WinNT
#	Modification time:	15. 06. 2019 19:04

#	Program:	/corina/corina34_cracker 3.40 0067  02.08.2006

@<TRIPOS>MOLECULE
ASD01150718
  30   31    0    0    0
SMALL
NO_CHARGES


@<TRIPOS>ATOM
   1 C1            -0.0420     1.1921     0.0130 C.2     
   2 O2             0.6612     1.2329    -0.9784 O.2     
   3 C3             0.3959     0.4258     1.1986 C.ar    
   4 C4             1.5595    -0.3447     1.1452 C.ar    
   5 C5             1.9628    -1.0574     2.2563 C.ar    
   6 C6             1.2159    -1.0092     3.4219 C.ar    
   7 C7             0.0624    -0.2477     3.4805 C.ar    
   8 C8            -0.3488     0.4736     2.3787 C.ar    
   9 Cl9            3.4084    -2.0164     2.1928 Cl      
  10 C10           -1.3274     1.9113     0.0344 C.ar    
  11 C11           -2.5346     1.2045    -0.0924 C.ar    
  12 C12           -3.7410     1.8920    -0.0710 C.ar    
  13 C13           -3.7538     3.2642     0.0737 C.ar    
  14 C14           -2.5623     3.9695     0.1991 C.ar    
  15 C15           -1.3531     3.3011     0.1867 C.ar    
  16 O16           -2.5873     5.3219     0.3408 O.3     
  17 C17           -3.8711     5.9493     0.3520 C.3     
  18 F18           -4.6269     5.4459     1.4162 F       
  19 F19           -3.7135     7.3310     0.5045 F       
  20 F20           -4.5297     5.6854    -0.8537 F       
  21 N21           -2.5217    -0.1780    -0.2391 N.pl3   
  22 H22            2.1421    -0.3830     0.2366 H       
  23 H23            1.5353    -1.5688     4.2886 H       
  24 H24           -0.5155    -0.2147     4.3923 H       
  25 H25           -1.2474     1.0708     2.4276 H       
  26 H26           -4.6710     1.3516    -0.1682 H       
  27 H27           -4.6951     3.7935     0.0893 H       
  28 H28           -0.4295     3.8514     0.2896 H       
  29 H29           -1.6782    -0.6483    -0.3290 H       
  30 H30           -3.3563    -0.6721    -0.2516 H       
@<TRIPOS>BOND
   1    1    2 2
   2    1    3 1
   3    1   10 1
   4    3    4 ar
   5    3    8 ar
   6    4    5 ar
   7    4   22 1
   8    5    6 ar
   9    5    9 1
  10    6    7 ar
  11    6   23 1
  12    7    8 ar
  13    7   24 1
  14    8   25 1
  15   10   11 ar
  16   10   15 ar
  17   11   12 ar
  18   11   21 1
  19   12   13 ar
  20   12   26 1
  21   13   14 ar
  22   13   27 1
  23   14   15 ar
  24   14   16 1
  25   15   28 1
  26   16   17 1
  27   17   18 1
  28   17   19 1
  29   17   20 1
  30   21   29 1
  31   21   30 1

#	End of record

