#	Name: ASD02030488
#	Creating user name:	WinNT
#	Creation time:	15. 06. 2019 20:15

#	Modifying user name:	WinNT
#	Modification time:	15. 06. 2019 20:15

#	Program:	/corina/corina34_cracker 3.40 0067  02.08.2006

@<TRIPOS>MOLECULE
ASD02030488
  24   25    0    0    0
SMALL
NO_CHARGES


@<TRIPOS>ATOM
   1 N1            -0.0154     1.2843     0.0091 N.pl3   
   2 N2             0.0021    -0.0041     0.0020 N.2     
   3 C3             1.2542    -0.4090    -0.0121 C.2     
   4 N4             2.0428     0.6818    -0.0138 N.2     
   5 C5             1.2583     1.7290    -0.0007 C.2     
   6 C6             1.7132    -1.8129    -0.0233 C.2     
   7 O7             0.9021    -2.7172    -0.0197 O.2     
   8 O8             3.0315    -2.0906    -0.0375 O.3     
   9 C9            -1.1635     2.0879     0.0192 C.ar    
  10 C10           -2.4227     1.5023     0.0227 C.ar    
  11 C11           -3.4301     3.6744     0.0400 C.ar    
  12 C12           -1.0443     3.4710     0.0314 C.ar    
  13 C13           -3.5521     2.2968     0.0331 C.ar    
  14 C14           -2.1778     4.2604     0.0417 C.ar    
  15 C15           -4.9189     1.6621     0.0365 C.3     
  16 H16            1.5733     2.7620     0.0013 H       
  17 H17            3.2835    -3.0241    -0.0444 H       
  18 H18           -2.5185     0.4266     0.0170 H       
  19 H19           -4.3149     4.2937     0.0481 H       
  20 H20           -0.0664     3.9294     0.0331 H       
  21 H21           -2.0858     5.3365     0.0467 H       
  22 H22           -5.2431     1.5032     1.0650 H       
  23 H23           -5.6259     2.3192    -0.4699 H       
  24 H24           -4.8763     0.7048    -0.4831 H       
@<TRIPOS>BOND
   1    1    2 1
   2    1    5 1
   3    1    9 1
   4    2    3 2
   5    3    4 1
   6    3    6 1
   7    4    5 2
   8    5   16 1
   9    6    7 2
  10    6    8 1
  11    8   17 1
  12    9   10 ar
  13    9   12 ar
  14   10   13 ar
  15   10   18 1
  16   11   13 ar
  17   11   14 ar
  18   11   19 1
  19   12   14 ar
  20   12   20 1
  21   13   15 1
  22   14   21 1
  23   15   22 1
  24   15   23 1
  25   15   24 1

#	End of record

