#	Name: ASD02198481
#	Creating user name:	WinNT
#	Creation time:	15. 06. 2019 20:19

#	Modifying user name:	WinNT
#	Modification time:	15. 06. 2019 20:19

#	Program:	/corina/corina34_cracker 3.40 0067  02.08.2006

@<TRIPOS>MOLECULE
ASD02198481
  38   41    0    0    0
SMALL
NO_CHARGES


@<TRIPOS>ATOM
   1 C1             0.0833     1.0106    -0.1362 C.2     
   2 C2             0.3417    -0.3185    -0.2219 C.2     
   3 N3             1.6132    -0.7788    -0.2238 N.pl3   
   4 N4             2.6390    -0.0140    -0.1465 N.2     
   5 C5             2.5304     1.2941    -0.0587 C.2     
   6 C6             1.1862     1.8940    -0.0493 C.2     
   7 C7             1.8195    -2.1594    -0.3143 C.ar    
   8 C8             3.3054    -4.0252    -0.5640 C.ar    
   9 C9             2.2277    -4.8908    -0.4933 C.ar    
  10 C10            0.9456    -4.3926    -0.3390 C.ar    
  11 C11            0.7390    -3.0303    -0.2494 C.ar    
  12 C12            3.7346     2.1448     0.0294 C.2     
  13 N13            4.8703     1.8735     0.7395 N.pl3   
  14 N14            5.7582     2.9394     0.5476 N.2     
  15 C15            5.1949     3.8199    -0.2407 C.2     
  16 C16            3.9268     3.3584    -0.5937 C.2     
  17 C17            5.1040     0.7341     1.5199 C.ar    
  18 C18            4.1033     0.2392     2.3458 C.ar    
  19 O19            1.0289     3.1031     0.0306 O.2     
  20 C20            3.1047    -2.6620    -0.4750 C.ar    
  21 C21            6.3350     0.0937     1.4651 C.ar    
  22 C22            6.5623    -1.0295     2.2358 C.ar    
  23 C23            5.5657    -1.5166     3.0615 C.ar    
  24 C24            4.3369    -0.8845     3.1141 C.ar    
  25 Cl25           2.4837    -6.6041    -0.6055 Cl      
  26 H26           -0.9305     1.3829    -0.1387 H       
  27 H27           -0.4786    -1.0178    -0.2891 H       
  28 H28            4.3048    -4.4166    -0.6840 H       
  29 H29            0.1064    -5.0702    -0.2845 H       
  30 H30           -0.2616    -2.6421    -0.1287 H       
  31 H31            5.6401     4.7481    -0.5671 H       
  32 H32            3.2201     3.8647    -1.2345 H       
  33 H33            3.1436     0.7326     2.3875 H       
  34 H34            3.9459    -1.9870    -0.5306 H       
  35 H35            7.1136     0.4734     0.8201 H       
  36 H36            7.5194    -1.5282     2.1934 H       
  37 H37            5.7458    -2.3953     3.6630 H       
  38 H38            3.5607    -1.2670     3.7602 H       
@<TRIPOS>BOND
   1    1    2 2
   2    1    6 1
   3    1   26 1
   4    2    3 1
   5    2   27 1
   6    3    4 1
   7    3    7 1
   8    4    5 2
   9    5    6 1
  10    5   12 1
  11    6   19 2
  12    7   20 ar
  13    7   11 ar
  14    8    9 ar
  15    8   20 ar
  16    8   28 1
  17    9   10 ar
  18    9   25 1
  19   10   11 ar
  20   10   29 1
  21   11   30 1
  22   12   13 1
  23   12   16 2
  24   13   14 1
  25   13   17 1
  26   14   15 2
  27   15   16 1
  28   15   31 1
  29   16   32 1
  30   17   21 ar
  31   17   18 ar
  32   18   24 ar
  33   18   33 1
  34   20   34 1
  35   21   22 ar
  36   21   35 1
  37   22   23 ar
  38   22   36 1
  39   23   24 ar
  40   23   37 1
  41   24   38 1

#	End of record

