#	Name: ASD07030076
#	Creating user name:	WinNT
#	Creation time:	15. 06. 2019 21:08

#	Modifying user name:	WinNT
#	Modification time:	15. 06. 2019 21:08

#	Program:	/corina/corina34_cracker 3.40 0067  02.08.2006

@<TRIPOS>MOLECULE
ASD07030076
  56   58    0    0    0
SMALL
NO_CHARGES


@<TRIPOS>ATOM
   1 N1            -0.0180     1.4748     0.0102 N.3     
   2 C2             0.0021    -0.0041     0.0020 C.3     
   3 C3             1.3327    -0.4343    -0.6429 C.3     
   4 C4             2.0698     0.8855    -0.9664 C.3     
   5 C5             1.4054     1.8991    -0.0012 C.3     
   6 N6             1.0802    -1.1926    -1.8754 N.3     
   7 C7            -0.7101     1.9854     1.2011 C.3     
   8 C8            -0.4971     3.4968     1.3059 C.3     
   9 N9            -1.1892     4.0074     2.4969 N.3     
  10 C10           -1.0063     5.4588     2.6303 C.3     
  11 C11           -2.0706     6.2365     3.4071 C.3     
  12 C12           -0.6894     6.0058     4.0236 C.3     
  13 C13           -2.9987    10.1887     2.0661 C.ar    
  14 C14           -3.9912     9.2114     2.1018 C.ar    
  15 C15           -3.6861     7.9372     2.5359 C.ar    
  16 C16           -2.3978     7.6296     2.9346 C.ar    
  17 C17           -1.4088     8.5961     2.9016 C.ar    
  18 C18           -1.7028     9.8735     2.4693 C.ar    
  19 C19           -3.3194    11.5587     1.5946 C.ar    
  20 C20           -2.3268    12.5362     1.5589 C.ar    
  21 C21           -2.6305    13.8085     1.1191 C.ar    
  22 C22           -3.9174    14.1143     0.7141 C.ar    
  23 C23           -4.9065    13.1482     0.7479 C.ar    
  24 C24           -4.6125    11.8708     1.1806 C.ar    
  25 C25           -1.5583    14.8668     1.0803 C.3     
  26 F26           -0.9219    14.8405    -0.1653 F       
  27 F27           -2.1369    16.1245     1.2819 F       
  28 F28           -0.6207    14.6178     2.0884 F       
  29 H29           -0.0550    -0.3818     1.0229 H       
  30 H30           -0.8346    -0.3836    -0.5845 H       
  31 H31            1.9165    -1.0319     0.0571 H       
  32 H32            3.1354     0.7938    -0.7558 H       
  33 H33            1.9042     1.1755    -2.0040 H       
  34 H34            1.5010     2.9150    -0.3846 H       
  35 H35            1.8381     1.8210     0.9962 H       
  36 H36            1.9458    -1.4799    -2.3070 H       
  37 H37            0.4847    -1.9870    -1.6956 H       
  38 H38           -1.7762     1.7734     1.1205 H       
  39 H39           -0.3092     1.4994     2.0906 H       
  40 H40            0.5691     3.7088     1.3865 H       
  41 H41           -0.8980     3.9828     0.4164 H       
  42 H42           -2.1689     3.7667     2.4767 H       
  43 H43           -0.5428     5.9548     1.7775 H       
  44 H44           -2.9064     5.6712     3.8191 H       
  45 H45           -0.6166     5.2887     4.8412 H       
  46 H46           -0.0174     6.8617     4.0874 H       
  47 H47           -4.9974     9.4505     1.7908 H       
  48 H48           -4.4545     7.1789     2.5640 H       
  49 H49           -0.4046     8.3507     3.2143 H       
  50 H50           -0.9297    10.6272     2.4433 H       
  51 H51           -1.3219    12.2986     1.8752 H       
  52 H52           -4.1507    15.1113     0.3705 H       
  53 H53           -5.9096    13.3925     0.4309 H       
  54 H54           -5.3845    11.1158     1.2020 H       
  55 Cl55           8.1354    21.1245     9.8412 Cl      
  56 H56            8.1354    22.4945     9.8412 H       
@<TRIPOS>BOND
   1    1    2 1
   2    1    5 1
   3    1    7 1
   4    2    3 1
   5    2   29 1
   6    2   30 1
   7    3    4 1
   8    3    6 1
   9    3   31 1
  10    4    5 1
  11    4   32 1
  12    4   33 1
  13    5   34 1
  14    5   35 1
  15    6   36 1
  16    6   37 1
  17    7    8 1
  18    7   38 1
  19    7   39 1
  20    8    9 1
  21    8   40 1
  22    8   41 1
  23    9   10 1
  24    9   42 1
  25   10   11 1
  26   10   12 1
  27   10   43 1
  28   11   12 1
  29   11   16 1
  30   11   44 1
  31   12   45 1
  32   12   46 1
  33   13   14 ar
  34   13   18 ar
  35   13   19 1
  36   14   15 ar
  37   14   47 1
  38   15   16 ar
  39   15   48 1
  40   16   17 ar
  41   17   18 ar
  42   17   49 1
  43   18   50 1
  44   19   20 ar
  45   19   24 ar
  46   20   21 ar
  47   20   51 1
  48   21   22 ar
  49   21   25 1
  50   22   23 ar
  51   22   52 1
  52   23   24 ar
  53   23   53 1
  54   24   54 1
  55   25   26 1
  56   25   27 1
  57   25   28 1
  58   55   56 1

#	End of record

