#	Name: ASD01882200
#	Creating user name:	WinNT
#	Creation time:	15. 06. 2019 19:44

#	Modifying user name:	WinNT
#	Modification time:	15. 06. 2019 19:44

#	Program:	/corina/corina34_cracker 3.40 0067  02.08.2006

@<TRIPOS>MOLECULE
ASD01882200
  21   22    0    0    0
SMALL
NO_CHARGES


@<TRIPOS>ATOM
   1 N1            -0.0178     1.4608     0.0101 N.pl3   
   2 C2             0.0021    -0.0041     0.0020 C.3     
   3 C3            -1.2127    -0.7303     0.5833 C.3     
   4 C4            -0.9796    -0.7188    -0.9288 C.3     
   5 C5             1.1833     2.1762     0.0024 C.ar    
   6 C6             1.1660     3.5663     0.0101 C.ar    
   7 C7             2.3550     4.2702     0.0025 C.ar    
   8 C8             3.5615     3.5925    -0.0132 C.ar    
   9 C9             3.5811     2.2094    -0.0213 C.ar    
  10 C10            2.3957     1.4999    -0.0070 C.ar    
  11 Cl11          -0.3473     4.4166     0.0286 Cl      
  12 Br12           5.1866     4.5593    -0.0242 Br      
  13 H13           -0.8643     1.9343     0.0167 H       
  14 H14            0.9802    -0.4618     0.1497 H       
  15 H15           -1.0337    -1.6659     1.1130 H       
  16 H16           -2.0266    -0.1181     0.9717 H       
  17 H17           -1.6402    -0.0991    -1.5352 H       
  18 H18           -0.6473    -1.6469    -1.3939 H       
  19 H19            2.3427     5.3501     0.0084 H       
  20 H20            4.5243     1.6835    -0.0342 H       
  21 H21            2.4121     0.4200    -0.0085 H       
@<TRIPOS>BOND
   1    1    2 1
   2    1    5 1
   3    1   13 1
   4    2    3 1
   5    2    4 1
   6    2   14 1
   7    3    4 1
   8    3   15 1
   9    3   16 1
  10    4   17 1
  11    4   18 1
  12    5    6 ar
  13    5   10 ar
  14    6    7 ar
  15    6   11 1
  16    7    8 ar
  17    7   19 1
  18    8    9 ar
  19    8   12 1
  20    9   10 ar
  21    9   20 1
  22   10   21 1

#	End of record

