#	Name: ASD01811999
#	Creating user name:	WinNT
#	Creation time:	15. 06. 2019 19:27

#	Modifying user name:	WinNT
#	Modification time:	15. 06. 2019 19:27

#	Program:	/corina/corina34_cracker 3.40 0067  02.08.2006

@<TRIPOS>MOLECULE
ASD01811999
  48   50    0    0    0
SMALL
NO_CHARGES


@<TRIPOS>ATOM
   1 C1            -0.0167     1.3809     0.0096 C.ar    
   2 C2             0.0021    -0.0041     0.0020 C.ar    
   3 C3             1.2016    -0.6769    -0.0129 C.ar    
   4 C4             2.4154     0.0298    -0.0206 C.ar    
   5 C5             2.3930     1.4249    -0.0127 C.ar    
   6 C6             1.1649     2.0891     0.0022 C.ar    
   7 C7             3.6562    -0.7502    -0.0382 C.2     
   8 C8             4.7464     0.7174    -1.5875 C.3     
   9 C9             4.6312     1.9507    -0.7333 C.2     
  10 N10            3.5379     2.2038    -0.0165 N.am    
  11 S11            5.8518     2.9825    -0.6848 S.2     
  12 C12            3.7125    -1.9872     0.8207 C.3     
  13 C13            5.0305    -2.7226     0.5700 C.3     
  14 C14            5.0877    -3.9785     1.4420 C.3     
  15 C15            4.9983    -3.5801     2.9165 C.3     
  16 C16            3.6802    -2.8447     3.1672 C.3     
  17 C17            3.6231    -1.5889     2.2952 C.3     
  18 C18           -1.2931    -0.7745     0.0106 C.3     
  19 C19            3.5879     0.6755    -2.5860 C.3     
  20 C20            3.6376     1.9182    -3.4772 C.3     
  21 N21            4.6926    -0.4625    -0.7254 N.2     
  22 C22            3.7073    -0.5792    -3.4534 C.3     
  23 F23           -2.3681     0.1207     0.0260 F       
  24 F24           -1.3680    -1.5735    -1.1353 F       
  25 F25           -1.3455    -1.5858     1.1491 F       
  26 H26           -0.9600     1.9068     0.0169 H       
  27 H27            1.2102    -1.7569    -0.0184 H       
  28 H28            1.1411     3.1688     0.0070 H       
  29 H29            5.6942     0.7333    -2.1257 H       
  30 H30            3.5439     2.9943     0.5456 H       
  31 H31            2.8778    -2.6419     0.5699 H       
  32 H32            5.0942    -3.0064    -0.4804 H       
  33 H33            5.8652    -2.0679     0.8208 H       
  34 H34            4.2530    -4.6332     1.1913 H       
  35 H35            6.0267    -4.5024     1.2635 H       
  36 H36            5.0390    -4.4748     3.5378 H       
  37 H37            5.8329    -2.9254     3.1673 H       
  38 H38            2.8455    -3.4994     2.9164 H       
  39 H39            3.6165    -2.5609     4.2176 H       
  40 H40            4.4577    -0.9342     2.5459 H       
  41 H41            2.6841    -1.0650     2.4737 H       
  42 H42            2.6422     0.6543    -2.0445 H       
  43 H43            4.5834     1.9394    -4.0187 H       
  44 H44            2.8123     1.8883    -4.1886 H       
  45 H45            3.5526     2.8121    -2.8593 H       
  46 H46            3.6719    -1.4645    -2.8184 H       
  47 H47            2.8820    -0.6090    -4.1647 H       
  48 H48            4.6531    -0.5580    -3.9948 H       
@<TRIPOS>BOND
   1    1    2 ar
   2    1    6 ar
   3    1   26 1
   4    2    3 ar
   5    2   18 1
   6    3    4 ar
   7    3   27 1
   8    4    5 ar
   9    4    7 1
  10    5    6 ar
  11    5   10 1
  12    6   28 1
  13    7   12 1
  14    7   21 2
  15    8    9 1
  16    8   21 1
  17    8   19 1
  18    8   29 1
  19    9   10 am
  20    9   11 2
  21   10   30 1
  22   12   13 1
  23   12   17 1
  24   12   31 1
  25   13   14 1
  26   13   32 1
  27   13   33 1
  28   14   15 1
  29   14   34 1
  30   14   35 1
  31   15   16 1
  32   15   36 1
  33   15   37 1
  34   16   17 1
  35   16   38 1
  36   16   39 1
  37   17   40 1
  38   17   41 1
  39   18   23 1
  40   18   24 1
  41   18   25 1
  42   19   20 1
  43   19   22 1
  44   19   42 1
  45   20   43 1
  46   20   44 1
  47   20   45 1
  48   22   46 1
  49   22   47 1
  50   22   48 1

#	End of record

