#	Name: ASD03320106
#	Creating user name:	WinNT
#	Creation time:	15. 06. 2019 20:36

#	Modifying user name:	WinNT
#	Modification time:	15. 06. 2019 20:36

#	Program:	/corina/corina34_cracker 3.40 0067  02.08.2006

@<TRIPOS>MOLECULE
ASD03320106
  45   47    0    0    0
SMALL
NO_CHARGES


@<TRIPOS>ATOM
   1 C1             0.0351     1.1316     0.1319 C.ar    
   2 C2            -0.0611    -0.2258    -0.1811 C.ar    
   3 C3            -1.2998    -0.8273    -0.2799 C.ar    
   4 C4            -2.4499    -0.0918    -0.0702 C.ar    
   5 C5            -2.3670     1.2648     0.2426 C.ar    
   6 C6            -1.1228     1.8767     0.3501 C.ar    
   7 C7             1.3616     1.7755     0.2376 C.2     
   8 O8             1.4436     2.9574     0.5102 O.2     
   9 N9             2.4801     1.0523     0.0318 N.am    
  10 C10            3.7316     1.6806     0.0398 C.ar    
  11 C11           -3.6045     2.0527     0.4664 C.ar    
  12 C12            3.9734     2.7361     0.9091 C.ar    
  13 C13            5.2077     3.3552     0.9163 C.ar    
  14 C14            6.2058     2.9232     0.0552 C.ar    
  15 C15            5.9648     1.8691    -0.8138 C.ar    
  16 C16            4.7332     1.2447    -0.8176 C.ar    
  17 O17            7.4208     3.5336     0.0626 O.3     
  18 C18            8.4017     3.0373    -0.8504 C.3     
  19 F19            7.9258     3.1630    -2.1599 F       
  20 C20           -4.5467     1.6525     1.4170 C.ar    
  21 N21           -5.6360     2.3813     1.5866 N.ar    
  22 C22           -5.8394     3.4757     0.8706 C.ar    
  23 N23           -4.9711     3.8874    -0.0395 N.ar    
  24 C24           -3.8545     3.2170    -0.2640 C.ar    
  25 F25            9.5832     3.7733    -0.7109 F       
  26 F26            8.6564     1.6897    -0.5741 F       
  27 O27           -6.9689     4.1948     1.0749 O.3     
  28 C28           -7.1439     5.3681     0.2782 C.3     
  29 C29           -3.7978    -0.7567    -0.1802 C.3     
  30 H30            0.8347    -0.8058    -0.3465 H       
  31 H31           -1.3699    -1.8774    -0.5226 H       
  32 H32           -1.0542     2.9270     0.5922 H       
  33 H33            2.4183     0.0965    -0.1219 H       
  34 H34            3.1962     3.0730     1.5790 H       
  35 H35            5.3959     4.1762     1.5923 H       
  36 H36            6.7421     1.5338    -1.4845 H       
  37 H37            4.5458     0.4240    -1.4942 H       
  38 H38           -4.3873     0.7603     2.0045 H       
  39 H39           -3.1503     3.5590    -1.0079 H       
  40 H40           -6.3202     6.0581     0.4617 H       
  41 H41           -7.1590     5.0924    -0.7762 H       
  42 H42           -8.0861     5.8489     0.5415 H       
  43 H43           -4.1335    -1.0634     0.8104 H       
  44 H44           -4.5153    -0.0553    -0.6059 H       
  45 H45           -3.7195    -1.6323    -0.8246 H       
@<TRIPOS>BOND
   1    1    2 ar
   2    1    7 1
   3    1    6 ar
   4    2    3 ar
   5    2   30 1
   6    3    4 ar
   7    3   31 1
   8    4    5 ar
   9    4   29 1
  10    5    6 ar
  11    5   11 1
  12    6   32 1
  13    7    8 2
  14    7    9 am
  15    9   10 1
  16    9   33 1
  17   10   12 ar
  18   10   16 ar
  19   11   20 ar
  20   11   24 ar
  21   12   13 ar
  22   12   34 1
  23   13   14 ar
  24   13   35 1
  25   14   15 ar
  26   14   17 1
  27   15   16 ar
  28   15   36 1
  29   16   37 1
  30   17   18 1
  31   18   19 1
  32   18   25 1
  33   18   26 1
  34   20   21 ar
  35   20   38 1
  36   21   22 ar
  37   22   23 ar
  38   22   27 1
  39   23   24 ar
  40   24   39 1
  41   27   28 1
  42   28   40 1
  43   28   41 1
  44   28   42 1
  45   29   43 1
  46   29   44 1
  47   29   45 1

#	End of record

