#	Name: ASD01810876
#	Creating user name:	WinNT
#	Creation time:	15. 06. 2019 19:25

#	Modifying user name:	WinNT
#	Modification time:	15. 06. 2019 19:25

#	Program:	/corina/corina34_cracker 3.40 0067  02.08.2006

@<TRIPOS>MOLECULE
ASD01810876
  29   30    0    0    0
SMALL
NO_CHARGES


@<TRIPOS>ATOM
   1 C1            -0.0180     1.4732     0.0101 C.2     
   2 C2             0.0021    -0.0041     0.0020 C.ar    
   3 C3             1.2176    -0.6861    -0.0133 C.ar    
   4 C4             1.2272    -2.0795    -0.0209 C.ar    
   5 C5             0.0198    -2.7834    -0.0132 C.ar    
   6 C6            -1.1804    -2.1014     0.0020 C.ar    
   7 C7            -1.1972    -0.7206     0.0154 C.ar    
   8 O8             1.0256     2.0948     0.0035 O.2     
   9 O9            -1.1936     2.1308     0.0193 O.3     
  10 C10            0.0281    -4.2904    -0.0219 C.3     
  11 C11           -0.6612    -4.9173     1.2015 C.3     
  12 C12           -1.2486    -5.9613     0.2372 C.3     
  13 C13           -1.0947    -4.9076    -0.8723 C.3     
  14 C14            2.4712    -2.7885    -0.0370 C.1     
  15 N15            3.4581    -3.3510    -0.0499 N.1     
  16 C16           -1.1373     3.5817     0.0269 C.3     
  17 H17            2.1476    -0.1371    -0.0195 H       
  18 H18           -2.1105    -2.6503     0.0075 H       
  19 H19           -2.1396    -0.1934     0.0321 H       
  20 H20            1.0138    -4.7070    -0.2289 H       
  21 H21            0.0351    -5.3367     1.9277 H       
  22 H22           -1.4125    -4.2725     1.6575 H       
  23 H23           -0.6125    -6.8357     0.1002 H       
  24 H24           -2.2852    -6.2202     0.4528 H       
  25 H25           -1.9646    -4.2603    -0.9833 H       
  26 H26           -0.7484    -5.3193    -1.8203 H       
  27 H27           -2.1501     3.9846     0.0339 H       
  28 H28           -0.6055     3.9200     0.9162 H       
  29 H29           -0.6140     3.9297    -0.8637 H       
@<TRIPOS>BOND
   1    1    2 1
   2    1    8 2
   3    1    9 1
   4    2    3 ar
   5    2    7 ar
   6    3    4 ar
   7    3   17 1
   8    4    5 ar
   9    4   14 1
  10    5    6 ar
  11    5   10 1
  12    6    7 ar
  13    6   18 1
  14    7   19 1
  15    9   16 1
  16   10   11 1
  17   10   13 1
  18   10   20 1
  19   11   12 1
  20   11   21 1
  21   11   22 1
  22   12   13 1
  23   12   23 1
  24   12   24 1
  25   13   25 1
  26   13   26 1
  27   14   15 3
  28   16   27 1
  29   16   28 1
  30   16   29 1

#	End of record

