#	Name: ASD01940155
#	Creating user name:	WinNT
#	Creation time:	15. 06. 2019 20:11

#	Modifying user name:	WinNT
#	Modification time:	15. 06. 2019 20:11

#	Program:	/corina/corina34_cracker 3.40 0067  02.08.2006

@<TRIPOS>MOLECULE
ASD01940155
  43   45    0    0    0
SMALL
NO_CHARGES


@<TRIPOS>ATOM
   1 F1             1.9036     1.5944     2.2848 F       
   2 C2             1.0648     2.1485     1.3822 C.ar    
   3 C3             1.3887     2.1337     0.0321 C.ar    
   4 C4             0.5199     2.7061    -0.8955 C.ar    
   5 C5            -0.6636     3.2877    -0.4661 C.ar    
   6 C6            -0.9808     3.2999     0.8798 C.ar    
   7 C7            -0.1223     2.7269     1.8024 C.ar    
   8 N8             2.5864     1.5451    -0.3969 N.pl3   
   9 N9             0.8419     2.6945    -2.2593 N.am    
  10 C10            2.6329     0.1749    -0.6712 C.ar    
  11 C11            1.4780    -0.5909    -0.5887 C.ar    
  12 C12            1.5272    -1.9448    -0.8604 C.ar    
  13 C13            2.7247    -2.5382    -1.2139 C.ar    
  14 C14            3.8785    -1.7796    -1.2975 C.ar    
  15 C15            3.8359    -0.4235    -1.0332 C.ar    
  16 F16            4.9625     0.3176    -1.1154 F       
  17 F17           -0.4399     2.7363     3.1155 F       
  18 S18            0.4252     3.9778    -3.2194 S.o2    
  19 O19            0.9897     3.6659    -4.4856 O.2     
  20 O20           -0.9810     4.0974    -3.0536 O.2     
  21 C21           -0.3273     7.0927    -3.0151 C.3     
  22 C22           -0.5230     8.6035    -3.1569 C.3     
  23 C23           -1.0694     7.6574    -4.2280 C.3     
  24 C24            1.2768     5.3957    -2.4746 C.3     
  25 O25            0.9874     6.5748    -3.2283 O.3     
  26 C26            2.7734    -4.0154    -1.5083 C.3     
  27 F27            2.5348    -4.2276    -2.8703 F       
  28 F28            4.0357    -4.5164    -1.1724 F       
  29 F29            1.7951    -4.6735    -0.7554 F       
  30 H30           -1.3380     3.7317    -1.1833 H       
  31 H31           -1.9029     3.7537     1.2116 H       
  32 H32            3.3829     2.0884    -0.5034 H       
  33 H33            1.3089     1.9348    -2.6408 H       
  34 H34            0.5418    -0.1289    -0.3121 H       
  35 H35            0.6286    -2.5406    -0.7962 H       
  36 H36            4.8123    -2.2464    -1.5739 H       
  37 H37           -0.9185     6.5776    -2.2580 H       
  38 H38           -1.2432     9.0822    -2.4934 H       
  39 H39            0.3510     9.2024    -3.4129 H       
  40 H40           -0.5549     7.6339    -5.1886 H       
  41 H41           -2.1491     7.5137    -4.2692 H       
  42 H42            0.9341     5.5272    -1.4483 H       
  43 H43            2.3520     5.2168    -2.4786 H       
@<TRIPOS>BOND
   1    1    2 1
   2    2    3 ar
   3    2    7 ar
   4    3    4 ar
   5    3    8 1
   6    4    5 ar
   7    4    9 1
   8    5    6 ar
   9    5   30 1
  10    6    7 ar
  11    6   31 1
  12    7   17 1
  13    8   10 1
  14    8   32 1
  15    9   18 am
  16    9   33 1
  17   10   11 ar
  18   10   15 ar
  19   11   12 ar
  20   11   34 1
  21   12   13 ar
  22   12   35 1
  23   13   14 ar
  24   13   26 1
  25   14   15 ar
  26   14   36 1
  27   15   16 1
  28   18   19 2
  29   18   20 2
  30   18   24 1
  31   21   22 1
  32   21   25 1
  33   21   23 1
  34   21   37 1
  35   22   23 1
  36   22   38 1
  37   22   39 1
  38   23   40 1
  39   23   41 1
  40   24   25 1
  41   24   42 1
  42   24   43 1
  43   26   27 1
  44   26   28 1
  45   26   29 1

#	End of record

