#	Name: ASD01900453
#	Creating user name:	WinNT
#	Creation time:	15. 06. 2019 19:51

#	Modifying user name:	WinNT
#	Modification time:	15. 06. 2019 19:51

#	Program:	/corina/corina34_cracker 3.40 0067  02.08.2006

@<TRIPOS>MOLECULE
ASD01900453
  29   31    0    0    0
SMALL
NO_CHARGES


@<TRIPOS>ATOM
   1 C1             0.0863     1.7346    -0.7343 C.ar    
   2 C2             0.2052     0.6230    -1.5901 C.ar    
   3 C3             1.4687     0.0821    -1.8257 C.ar    
   4 C4             2.5553     0.6653    -1.2043 C.ar    
   5 C5             2.3644     1.7607    -0.3721 C.ar    
   6 N6             1.1672     2.2582    -0.1607 N.ar    
   7 N7            -1.9687     1.2095    -1.4553 N.2     
   8 N8            -1.0571     0.3133    -2.0229 N.pl3   
   9 C9            -1.3413     2.0590    -0.6860 C.2     
  10 N10           -1.9266     3.0976     0.0450 N.pl3   
  11 C11           -1.0967     3.9496     0.9003 C.3     
  12 C12           -3.3025     3.3225    -0.0404 C.ar    
  13 C13           -3.8123     4.1506    -1.0328 C.ar    
  14 C14           -5.1740     4.3709    -1.1142 C.ar    
  15 C15           -6.0293     3.7675    -0.2082 C.ar    
  16 C16           -5.5243     2.9431     0.7802 C.ar    
  17 C17           -4.1647     2.7143     0.8633 C.ar    
  18 Cl18          -5.8127     5.4057    -2.3531 Cl      
  19 H19            1.5941    -0.7706    -2.4766 H       
  20 H20            3.5482     0.2716    -1.3643 H       
  21 H21            3.2179     2.2127     0.1112 H       
  22 H22           -1.2827    -0.4117    -2.6265 H       
  23 H23           -0.7372     4.8023     0.3243 H       
  24 H24           -1.6890     4.3046     1.7436 H       
  25 H25           -0.2466     3.3759     1.2692 H       
  26 H26           -3.1451     4.6217    -1.7394 H       
  27 H27           -7.0932     3.9413    -0.2733 H       
  28 H28           -6.1942     2.4741     1.4856 H       
  29 H29           -3.7718     2.0663     1.6329 H       
@<TRIPOS>BOND
   1    1    2 ar
   2    1    6 ar
   3    1    9 1
   4    2    3 ar
   5    2    8 1
   6    3    4 ar
   7    3   19 1
   8    4    5 ar
   9    4   20 1
  10    5    6 ar
  11    5   21 1
  12    7    8 1
  13    7    9 2
  14    8   22 1
  15    9   10 1
  16   10   11 1
  17   10   12 1
  18   11   23 1
  19   11   24 1
  20   11   25 1
  21   12   13 ar
  22   12   17 ar
  23   13   14 ar
  24   13   26 1
  25   14   15 ar
  26   14   18 1
  27   15   16 ar
  28   15   27 1
  29   16   17 ar
  30   16   28 1
  31   17   29 1

#	End of record

