#	Name: ASD03080138
#	Creating user name:	WinNT
#	Creation time:	15. 06. 2019 20:26

#	Modifying user name:	WinNT
#	Modification time:	15. 06. 2019 20:26

#	Program:	/corina/corina34_cracker 3.40 0067  02.08.2006

@<TRIPOS>MOLECULE
ASD03080138
  37   38    0    0    0
SMALL
NO_CHARGES


@<TRIPOS>ATOM
   1 Cl1            0.0000     0.0000     0.0000 Cl      
   2 C2            10.5494     7.2637     7.3065 C.ar    
   3 C3             9.4157     9.2606     7.5326 C.2     
   4 O4             9.3641     7.9195     7.4210 O.3     
   5 C5             8.7049    11.8694     9.2670 C.3     
   6 C6             7.6740    11.4695    10.3224 C.3     
   7 N7             6.5135    10.8790     9.7112 N.3     
   8 N8             8.2866     9.9622     7.7548 N.am    
   9 C9             8.2946    11.4222     7.8831 C.3     
  10 C10            6.8951    11.9192     7.5167 C.3     
  11 C11            5.9358    11.7580     8.6907 C.3     
  12 C12            6.5725     9.4879     9.3489 C.3     
  13 C13            6.9631     9.2996     7.8840 C.3     
  14 O14           10.4802     9.8381     7.4331 O.2     
  15 C15           11.3495     7.0748     8.4239 C.ar    
  16 C16           10.9579     6.7775     6.0732 C.ar    
  17 C17           12.1600     6.1064     5.9600 C.ar    
  18 C18           12.9564     5.9190     7.0756 C.ar    
  19 C19           12.5509     6.4032     8.3065 C.ar    
  20 Br20          14.6015     5.0000     6.9178 Br      
  21 H21            8.8153    12.9538     9.2715 H       
  22 H22            9.6637    11.4153     9.5172 H       
  23 H23            8.1232    10.7501    11.0071 H       
  24 H24            7.3724    12.3550    10.8819 H       
  25 H25            8.9979    11.8332     7.1589 H       
  26 H26            6.9497    12.9722     7.2405 H       
  27 H27            6.5221    11.3459     6.6679 H       
  28 H28            5.0000    11.3280     8.3338 H       
  29 H29            5.7372    12.7359     9.1294 H       
  30 H30            7.3072     8.9874     9.9796 H       
  31 H31            5.5951     9.0355     9.5168 H       
  32 H32            6.2334     9.7799     7.2322 H       
  33 H33            7.0454     8.2389     7.6469 H       
  34 H34           11.0334     7.4529     9.3849 H       
  35 H35           10.3362     6.9232     5.2021 H       
  36 H36           12.4781     5.7274     5.0000 H       
  37 H37           13.1738     6.2556     9.1763 H       
@<TRIPOS>BOND
   1    2   15 ar
   2    2   16 ar
   3    2    4 1
   4    3    4 1
   5    3   14 2
   6    3    8 am
   7    5    6 1
   8    5    9 1
   9    5   21 1
  10    5   22 1
  11    6    7 1
  12    6   23 1
  13    6   24 1
  14    7   12 1
  15    7   11 1
  16    8    9 1
  17    8   13 1
  18    9   10 1
  19    9   25 1
  20   10   11 1
  21   10   26 1
  22   10   27 1
  23   11   28 1
  24   11   29 1
  25   12   13 1
  26   12   30 1
  27   12   31 1
  28   13   32 1
  29   13   33 1
  30   15   19 ar
  31   15   34 1
  32   16   17 ar
  33   16   35 1
  34   17   18 ar
  35   17   36 1
  36   18   19 ar
  37   18   20 1
  38   19   37 1

#	End of record

