#	Name: ASD00431010
#	Creating user name:	WinNT
#	Creation time:	15. 06. 2019 18:35

#	Modifying user name:	WinNT
#	Modification time:	15. 06. 2019 18:35

#	Program:	/corina/corina34_cracker 3.40 0067  02.08.2006

@<TRIPOS>MOLECULE
ASD00431010
  20   21    0    0    0
SMALL
NO_CHARGES


@<TRIPOS>ATOM
   1 C1            -0.0167     1.3813     0.0096 C.ar    
   2 C2             0.0021    -0.0041     0.0020 C.ar    
   3 C3             1.2195    -0.6802    -0.0132 C.ar    
   4 C4             2.4055     0.0360    -0.0203 C.ar    
   5 C5             2.3791     1.4181    -0.0118 C.ar    
   6 C6             1.1705     2.0893     0.0021 C.ar    
   7 C7             1.1474     3.5961     0.0112 C.3     
   8 N8             1.1286     4.0939    -1.3707 N.3     
   9 O9            -1.0073    -0.9230     0.0067 O.3     
  10 C10           -0.4036    -2.1593    -0.4179 C.3     
  11 O11            0.9729    -2.0227    -0.0181 O.3     
  12 H12           -0.9594     1.9082     0.0170 H       
  13 H13            3.3510    -0.4858    -0.0322 H       
  14 H14            3.3046     1.9747    -0.0169 H       
  15 H15            0.2562     3.9426     0.5344 H       
  16 H16            2.0359     3.9700     0.5201 H       
  17 H17            0.3489     3.7095    -1.8829 H       
  18 H18            1.1129     5.1026    -1.3915 H       
  19 H19           -0.8673    -3.0058     0.0886 H       
  20 H20           -0.4790    -2.2708    -1.4995 H       
@<TRIPOS>BOND
   1    1    2 ar
   2    1    6 ar
   3    1   12 1
   4    2    3 ar
   5    2    9 1
   6    3    4 ar
   7    3   11 1
   8    4    5 ar
   9    4   13 1
  10    5    6 ar
  11    5   14 1
  12    6    7 1
  13    7    8 1
  14    7   15 1
  15    7   16 1
  16    8   17 1
  17    8   18 1
  18    9   10 1
  19   10   11 1
  20   10   19 1
  21   10   20 1

#	End of record

