#	Name: ASD01915724
#	Creating user name:	WinNT
#	Creation time:	15. 06. 2019 20:06

#	Modifying user name:	WinNT
#	Modification time:	15. 06. 2019 20:06

#	Program:	/corina/corina34_cracker 3.40 0067  02.08.2006

@<TRIPOS>MOLECULE
ASD01915724
  44   47    0    0    0
SMALL
NO_CHARGES


@<TRIPOS>ATOM
   1 C1            -0.0042     1.4685     0.2349 C.2     
   2 N2             0.0662     0.1191    -0.0301 N.pl3   
   3 C3            -1.1429    -0.6636    -0.3130 C.3     
   4 C4            -2.3280    -0.0486     0.4295 C.3     
   5 N5            -2.4044     1.3988     0.2638 N.am    
   6 C6            -1.2935     2.1742     0.2863 C.2     
   7 C7             1.2763     1.9058     0.4260 C.2     
   8 C8             2.0758     0.7650     0.2737 C.2     
   9 N9             1.2864    -0.2504     0.0108 N.2     
  10 C10            3.5774     0.7130     0.3907 C.3     
  11 O11            4.0777     2.0189     0.6848 O.3     
  12 C12            5.4240     2.1472     0.8234 C.ar    
  13 O13           -1.3590     3.3874     0.3463 O.2     
  14 C14            5.9774     3.3866     1.1091 C.ar    
  15 C15            6.2450     1.0378     0.6848 C.ar    
  16 C16            7.6129     1.1697     0.8259 C.ar    
  17 C17            8.1644     2.4084     1.1059 C.ar    
  18 C18            7.3456     3.5157     1.2496 C.ar    
  19 C19           -3.6541     2.0003     0.0771 C.ar    
  20 C20           -4.5856     2.0028     1.1074 C.ar    
  21 C21           -3.9625     2.6004    -1.1364 C.ar    
  22 C22           -5.1966     3.1936    -1.3186 C.ar    
  23 C23           -6.1257     3.1903    -0.2920 C.ar    
  24 C24           -5.8181     2.5968     0.9211 C.ar    
  25 F25            9.5022     2.5358     1.2445 F       
  26 C26           -6.8313     2.5948     2.0366 C.3     
  27 F27           -7.3319     3.7714    -0.4720 F       
  28 H28           -1.3403    -0.6536    -1.3849 H       
  29 H29           -0.9977    -1.6910     0.0211 H       
  30 H30           -3.2488    -0.4952     0.0543 H       
  31 H31           -2.2354    -0.2771     1.4912 H       
  32 H32            1.6015     2.9119     0.6462 H       
  33 H33            3.8559     0.0283     1.1918 H       
  34 H34            4.0033     0.3641    -0.5500 H       
  35 H35            5.3389     4.2504     1.2213 H       
  36 H36            5.8150     0.0713     0.4671 H       
  37 H37            8.2524     0.3061     0.7181 H       
  38 H38            7.7771     4.4813     1.4680 H       
  39 H39           -4.3462     1.5401     2.0534 H       
  40 H40           -3.2379     2.6038    -1.9372 H       
  41 H41           -5.4369     3.6605    -2.2623 H       
  42 H42           -7.4505     1.7008     1.9635 H       
  43 H43           -6.3149     2.6016     2.9965 H       
  44 H44           -7.4614     3.4807     1.9568 H       
@<TRIPOS>BOND
   1    1    2 1
   2    1    7 2
   3    1    6 1
   4    2    3 1
   5    2    9 1
   6    3    4 1
   7    3   28 1
   8    3   29 1
   9    4    5 1
  10    4   30 1
  11    4   31 1
  12    5    6 am
  13    5   19 1
  14    6   13 2
  15    7    8 1
  16    7   32 1
  17    8    9 2
  18    8   10 1
  19   10   11 1
  20   10   33 1
  21   10   34 1
  22   11   12 1
  23   12   14 ar
  24   12   15 ar
  25   14   18 ar
  26   14   35 1
  27   15   16 ar
  28   15   36 1
  29   16   17 ar
  30   16   37 1
  31   17   18 ar
  32   17   25 1
  33   18   38 1
  34   19   20 ar
  35   19   21 ar
  36   20   24 ar
  37   20   39 1
  38   21   22 ar
  39   21   40 1
  40   22   23 ar
  41   22   41 1
  42   23   24 ar
  43   23   27 1
  44   24   26 1
  45   26   42 1
  46   26   43 1
  47   26   44 1

#	End of record

