#	Name: ASD01880389
#	Creating user name:	WinNT
#	Creation time:	15. 06. 2019 19:40

#	Modifying user name:	WinNT
#	Modification time:	15. 06. 2019 19:40

#	Program:	/corina/corina34_cracker 3.40 0067  02.08.2006

@<TRIPOS>MOLECULE
ASD01880389
  41   42    0    0    0
SMALL
NO_CHARGES


@<TRIPOS>ATOM
   1 C1            -1.1491     1.3253    -0.5896 C.ar    
   2 N2            -0.9567     0.0215    -0.5029 N.ar    
   3 C3             0.2644    -0.4905    -0.4603 C.ar    
   4 C4             1.3783     0.3863    -0.5093 C.ar    
   5 C5             1.1188     1.7565    -0.6009 C.ar    
   6 N6            -0.1517     2.1777    -0.6380 N.ar    
   7 C7             2.8009     0.1035    -0.4796 C.2     
   8 C8             3.5781     1.1672    -0.5431 C.2     
   9 S9             2.6359     2.6425    -0.6469 S.3     
  10 C10            5.0843     1.1206    -0.5283 C.3     
  11 N11            0.4501    -1.8581    -0.3690 N.pl3   
  12 C12            5.6053     1.0108    -1.9626 C.3     
  13 C13           -0.7088    -2.7530    -0.3187 C.3     
  14 C14           -0.2298    -4.2027    -0.2198 C.3     
  15 C15           -1.4401    -5.1373    -0.1673 C.3     
  16 C16           -2.2367    -8.9540     3.0692 C.3     
  17 C17           -2.4833    -7.4676     3.0946 C.2     
  18 C18           -2.0431    -6.7040     2.1003 C.2     
  19 C19           -1.3151    -7.3097     0.9746 C.2     
  20 C20           -0.9682    -6.5652    -0.0699 C.2     
  21 H21           -2.1604     1.7025    -0.6265 H       
  22 H22            3.1932    -0.9004    -0.4106 H       
  23 H23            5.4714     2.0306    -0.0698 H       
  24 H24            5.4154     0.2553     0.0459 H       
  25 H25            1.3476    -2.2247    -0.3383 H       
  26 H26            5.2742     1.8761    -2.5367 H       
  27 H27            6.6947     0.9771    -1.9519 H       
  28 H28            5.2182     0.1008    -2.4211 H       
  29 H29           -1.3170    -2.5111     0.5529 H       
  30 H30           -1.3040    -2.6279    -1.2232 H       
  31 H31            0.3785    -4.4446    -1.0914 H       
  32 H32            0.3654    -4.3278     0.6847 H       
  33 H33           -2.0483    -4.8954     0.7043 H       
  34 H34           -2.0353    -5.0121    -1.0718 H       
  35 H35           -1.1636    -9.1440     3.0465 H       
  36 H36           -2.6675    -9.4091     3.9611 H       
  37 H37           -2.7007    -9.3842     2.1816 H       
  38 H38           -3.0178    -7.0229     3.9211 H       
  39 H39           -2.2198    -5.6387     2.1186 H       
  40 H40           -1.0625    -8.3595     0.9971 H       
  41 H41           -0.3482    -6.9834    -0.8491 H       
@<TRIPOS>BOND
   1    1    2 ar
   2    1    6 ar
   3    1   21 1
   4    2    3 ar
   5    3    4 ar
   6    3   11 1
   7    4    5 ar
   8    4    7 1
   9    5    6 ar
  10    5    9 1
  11    7    8 2
  12    7   22 1
  13    8    9 1
  14    8   10 1
  15   10   12 1
  16   10   23 1
  17   10   24 1
  18   11   13 1
  19   11   25 1
  20   12   26 1
  21   12   27 1
  22   12   28 1
  23   13   14 1
  24   13   29 1
  25   13   30 1
  26   14   15 1
  27   14   31 1
  28   14   32 1
  29   15   20 1
  30   15   33 1
  31   15   34 1
  32   16   17 1
  33   16   35 1
  34   16   36 1
  35   16   37 1
  36   17   18 2
  37   17   38 1
  38   18   19 1
  39   18   39 1
  40   19   20 2
  41   19   40 1
  42   20   41 1

#	End of record

