#	Name: ASD00900002
#	Creating user name:	WinNT
#	Creation time:	15. 06. 2019 18:53

#	Modifying user name:	WinNT
#	Modification time:	15. 06. 2019 18:53

#	Program:	/corina/corina34_cracker 3.40 0067  02.08.2006

@<TRIPOS>MOLECULE
ASD00900002
  47   48    0    0    0
SMALL
NO_CHARGES


@<TRIPOS>ATOM
   1 P1            -0.0198     1.6058     0.0109 P.3     
   2 P2             2.1671     3.5690     0.3967 P.3     
   3 P3             4.9273     4.2124     1.2642 P.3     
   4 O4            -0.0384    -2.6398     1.2420 O.3     
   5 O5             0.0021    -0.0041     0.0020 O.3     
   6 O6            -1.3494    -3.0766     3.5435 O.2     
   7 O7             1.4907     2.1630    -0.0006 O.3     
   8 O8            -0.7984     2.1391    -1.2935 O.3     
   9 O9            -0.7125     2.0831     1.2285 O.2     
  10 O10            0.8906    -5.6035     6.4257 O.2     
  11 O11            3.7599     3.3787     0.5333 O.3     
  12 O12            1.8528     4.6578    -0.7470 O.3     
  13 O13            1.6135     4.0356     1.6875 O.2     
  14 O14            4.9356     3.8599     2.8351 O.3     
  15 O15            6.3499     3.8223     0.6192 O.3     
  16 O16            4.6850     5.6614     1.0850 O.2     
  17 N17            0.1304    -4.5051     2.7244 N.am    
  18 N18           -2.4668    -3.6040    -1.1957 N.2     
  19 N19           -0.2614    -4.3115     5.0250 N.am    
  20 N20           -3.4188    -4.1843    -1.3375 N.1     
  21 N21           -4.3709    -4.7647    -1.4794 N.pl3   
  22 C22           -2.0719    -3.1606     0.1436 C.3     
  23 C23           -0.8037    -2.2815     0.0707 C.3     
  24 C24           -1.6432    -4.3669     1.0088 C.3     
  25 C25           -0.1668    -4.0738     1.3562 C.3     
  26 C26           -1.1801    -0.7991     0.1135 C.3     
  27 C27            1.0697    -5.4765     2.9399 C.2     
  28 C28           -0.5188    -3.9383     3.7576 C.2     
  29 C29            1.3476    -5.8699     4.2013 C.2     
  30 C30            0.6571    -5.2653     5.2793 C.2     
  31 C31            2.3786    -6.9386     4.4582 C.3     
  32 H32           -0.3990     1.8638    -2.1300 H       
  33 H33            2.1875     4.4172    -1.6217 H       
  34 H34            5.0894     2.9249     3.0276 H       
  35 H35            7.1009     4.2879     1.0121 H       
  36 H36           -0.7386    -3.8926     5.7582 H       
  37 H37           -2.8870    -2.6163     0.6205 H       
  38 H38           -0.2389    -2.5045    -0.8344 H       
  39 H39           -2.2457    -4.4198     1.9156 H       
  40 H40           -1.7251    -5.2931     0.4400 H       
  41 H41            0.4957    -4.5717     0.6482 H       
  42 H42           -1.6790    -0.5780     1.0570 H       
  43 H43           -1.8511    -0.5706    -0.7146 H       
  44 H44            1.5861    -5.9266     2.1050 H       
  45 H45            3.3576    -6.4762     4.5838 H       
  46 H46            2.1165    -7.4861     5.3635 H       
  47 H47            2.4073    -7.6264     3.6131 H       
@<TRIPOS>BOND
   1    1    5 1
   2    1    7 1
   3    1    8 1
   4    1    9 2
   5    2    7 1
   6    2   11 1
   7    2   12 1
   8    2   13 2
   9    3   11 1
  10    3   14 1
  11    3   15 1
  12    3   16 2
  13    4   23 1
  14    4   25 1
  15    5   26 1
  16    6   28 2
  17    8   32 1
  18   10   30 2
  19   12   33 1
  20   14   34 1
  21   15   35 1
  22   17   27 1
  23   17   28 am
  24   17   25 1
  25   18   20 2
  26   18   22 1
  27   19   28 am
  28   19   30 am
  29   19   36 1
  30   20   21 2
  31   22   23 1
  32   22   24 1
  33   22   37 1
  34   23   26 1
  35   23   38 1
  36   24   25 1
  37   24   39 1
  38   24   40 1
  39   25   41 1
  40   26   42 1
  41   26   43 1
  42   27   29 2
  43   27   44 1
  44   29   30 1
  45   29   31 1
  46   31   45 1
  47   31   46 1
  48   31   47 1

#	End of record

