#	Name: ASD01811306
#	Creating user name:	WinNT
#	Creation time:	15. 06. 2019 19:26

#	Modifying user name:	WinNT
#	Modification time:	15. 06. 2019 19:26

#	Program:	/corina/corina34_cracker 3.40 0067  02.08.2006

@<TRIPOS>MOLECULE
ASD01811306
  64   67    0    0    0
SMALL
NO_CHARGES


@<TRIPOS>ATOM
   1 C1            -0.3949     1.2238     1.0563 C.2     
   2 C2            -0.3490    -0.2007     0.6749 C.ar    
   3 C3            -1.4785    -0.8273     0.1257 C.ar    
   4 C4            -1.3909    -2.1502    -0.2135 C.ar    
   5 C5            -0.1926    -2.8316    -0.0057 C.ar    
   6 N6             0.8601    -2.2157     0.5150 N.ar    
   7 C7             0.8200    -0.9430     0.8497 C.ar    
   8 O8            -1.4163     1.8636     0.8957 O.2     
   9 N9             0.6936     1.8145     1.5880 N.am    
  10 C10            0.6481     3.2289     1.9668 C.3     
  11 C11            2.0034     3.6472     2.5404 C.3     
  12 N12           -0.1004    -4.1711    -0.3476 N.pl3   
  13 C13            1.1334    -4.8253    -0.2842 C.ar    
  14 C14            1.1853    -6.1860    -0.0037 C.ar    
  15 C15            2.4025    -6.8372     0.0600 C.ar    
  16 C16            3.5750    -6.1411    -0.1544 C.ar    
  17 C17            3.5340    -4.7748    -0.4366 C.ar    
  18 C18            2.3052    -4.1184    -0.5066 C.ar    
  19 C19           -0.0902    -6.9533     0.2321 C.3     
  20 C20            4.7886    -4.0267    -0.6657 C.2     
  21 O21            4.8744    -2.8640    -0.3216 O.2     
  22 N22            5.8371    -4.6339    -1.2559 N.am    
  23 C23            7.1273    -3.9428    -1.3843 C.3     
  24 C24            7.5582    -3.9720    -2.8541 C.3     
  25 C25            7.5686    -5.4199    -3.3498 C.3     
  26 C26            6.1585    -6.0058    -3.2481 C.3     
  27 C27            5.7134    -6.0018    -1.7778 C.3     
  28 C28            8.0249    -5.4557    -4.7857 C.ar    
  29 C29            9.1586    -6.1700    -5.1304 C.ar    
  30 C30            9.5818    -6.2070    -6.4428 C.ar    
  31 C31            8.8630    -5.5218    -7.4244 C.ar    
  32 C32            7.7195    -4.8033    -7.0695 C.ar    
  33 C33            7.3049    -4.7787    -5.7541 C.ar    
  34 C34            9.2968    -5.5555    -8.7887 C.1     
  35 N35            9.6409    -5.5821    -9.8710 N.1     
  36 H36           -2.3960    -0.2780    -0.0253 H       
  37 H37           -2.2422    -2.6616    -0.6380 H       
  38 H38            1.6971    -0.4708     1.2668 H       
  39 H39            1.5072     1.3030     1.7199 H       
  40 H40            0.4233     3.8333     1.0880 H       
  41 H41           -0.1267     3.3790     2.7187 H       
  42 H42            1.9695     4.6996     2.8222 H       
  43 H43            2.2281     3.0428     3.4192 H       
  44 H44            2.7781     3.4972     1.7885 H       
  45 H45           -0.8919    -4.6549    -0.6309 H       
  46 H46            2.4366    -7.8943     0.2786 H       
  47 H47            4.5243    -6.6537    -0.1033 H       
  48 H48            2.2669    -3.0622    -0.7287 H       
  49 H49           -0.4575    -7.3475    -0.7154 H       
  50 H50            0.1034    -7.7779     0.9181 H       
  51 H51           -0.8390    -6.2894     0.6641 H       
  52 H52            7.0226    -2.9092    -1.0547 H       
  53 H53            7.8753    -4.4491    -0.7741 H       
  54 H54            6.8570    -3.3883    -3.4505 H       
  55 H55            8.5579    -3.5479    -2.9487 H       
  56 H56            8.2515    -6.0085    -2.7373 H       
  57 H57            5.4704    -5.4030    -3.8408 H       
  58 H58            6.1619    -7.0293    -3.6232 H       
  59 H59            6.3484    -6.6725    -1.1991 H       
  60 H60            4.6754    -6.3270    -1.7079 H       
  61 H61            9.7136    -6.6995    -4.3701 H       
  62 H62           10.4673    -6.7644    -6.7104 H       
  63 H63            7.1589    -4.2711    -7.8238 H       
  64 H64            6.4183    -4.2268    -5.4788 H       
@<TRIPOS>BOND
   1    1    2 1
   2    1    8 2
   3    1    9 am
   4    2    3 ar
   5    2    7 ar
   6    3    4 ar
   7    3   36 1
   8    4    5 ar
   9    4   37 1
  10    5    6 ar
  11    5   12 1
  12    6    7 ar
  13    7   38 1
  14    9   10 1
  15    9   39 1
  16   10   11 1
  17   10   40 1
  18   10   41 1
  19   11   42 1
  20   11   43 1
  21   11   44 1
  22   12   13 1
  23   12   45 1
  24   13   14 ar
  25   13   18 ar
  26   14   15 ar
  27   14   19 1
  28   15   16 ar
  29   15   46 1
  30   16   17 ar
  31   16   47 1
  32   17   18 ar
  33   17   20 1
  34   18   48 1
  35   19   49 1
  36   19   50 1
  37   19   51 1
  38   20   21 2
  39   20   22 am
  40   22   23 1
  41   22   27 1
  42   23   24 1
  43   23   52 1
  44   23   53 1
  45   24   25 1
  46   24   54 1
  47   24   55 1
  48   25   26 1
  49   25   28 1
  50   25   56 1
  51   26   27 1
  52   26   57 1
  53   26   58 1
  54   27   59 1
  55   27   60 1
  56   28   29 ar
  57   28   33 ar
  58   29   30 ar
  59   29   61 1
  60   30   31 ar
  61   30   62 1
  62   31   32 ar
  63   31   34 1
  64   32   33 ar
  65   32   63 1
  66   33   64 1
  67   34   35 3

#	End of record

