#	Name: ASD00111017
#	Creating user name:	WinNT
#	Creation time:	15. 06. 2019 18:30

#	Modifying user name:	WinNT
#	Modification time:	15. 06. 2019 18:30

#	Program:	/corina/corina34_cracker 3.40 0067  02.08.2006

@<TRIPOS>MOLECULE
ASD00111017
  32   34    0    0    0
SMALL
NO_CHARGES


@<TRIPOS>ATOM
   1 C1            -0.0167     1.3837     0.0096 C.ar    
   2 C2             0.0021    -0.0041     0.0020 C.ar    
   3 C3            -1.1894    -0.7104     0.0175 C.ar    
   4 C4            -2.4016    -0.0372     0.0404 C.ar    
   5 C5            -2.4145     1.3415     0.0333 C.ar    
   6 C6            -1.2258     2.0516     0.0306 C.ar    
   7 C7            -3.6702    -0.8486     0.0924 C.3     
   8 C8            -4.6589    -0.3839    -0.9778 C.3     
   9 N9            -5.5883     0.5931    -0.3802 N.3     
  10 C10           -4.9102     1.3795     0.6562 C.3     
  11 C11           -3.7188     2.0944     0.0154 C.3     
  12 Br12           1.6053     2.3557    -0.0006 Br      
  13 C13           -3.6562     3.6177     0.1491 C.3     
  14 C14           -4.0024     2.9826    -1.1989 C.3     
  15 O15            1.1874    -0.6688    -0.0211 O.3     
  16 C16            1.1305    -2.0966    -0.0277 C.3     
  17 H17           -1.1742    -1.7903     0.0114 H       
  18 H18           -1.2440     3.1315     0.0361 H       
  19 H19           -3.4307    -1.8990    -0.0729 H       
  20 H20           -4.1273    -0.7364     1.0755 H       
  21 H21           -4.1151     0.0845    -1.7981 H       
  22 H22           -5.2204    -1.2399    -1.3520 H       
  23 H23           -5.9859     1.1932    -1.0873 H       
  24 H24           -5.6005     2.1147     1.0699 H       
  25 H25           -4.5590     0.7182     1.4483 H       
  26 H26           -4.4615     4.1084     0.6958 H       
  27 H27           -2.6717     4.0738     0.2525 H       
  28 H28           -3.2455     3.0207    -1.9823 H       
  29 H29           -5.0354     3.0553    -1.5390 H       
  30 H30            0.6173    -2.4439     0.8691 H       
  31 H31            0.5879    -2.4345    -0.9106 H       
  32 H32            2.1427    -2.5005    -0.0465 H       
@<TRIPOS>BOND
   1    1    2 ar
   2    1   12 1
   3    1    6 ar
   4    2    3 ar
   5    2   15 1
   6    3    4 ar
   7    3   17 1
   8    4    5 ar
   9    4    7 1
  10    5    6 ar
  11    5   11 1
  12    6   18 1
  13    7    8 1
  14    7   19 1
  15    7   20 1
  16    8    9 1
  17    8   21 1
  18    8   22 1
  19    9   10 1
  20    9   23 1
  21   10   11 1
  22   10   24 1
  23   10   25 1
  24   11   13 1
  25   11   14 1
  26   13   14 1
  27   13   26 1
  28   13   27 1
  29   14   28 1
  30   14   29 1
  31   15   16 1
  32   16   30 1
  33   16   31 1
  34   16   32 1

#	End of record

