#	Name: ASD03731668
#	Creating user name:	WinNT
#	Creation time:	15. 06. 2019 20:46

#	Modifying user name:	WinNT
#	Modification time:	15. 06. 2019 20:46

#	Program:	/corina/corina34_cracker 3.40 0067  02.08.2006

@<TRIPOS>MOLECULE
ASD03731668
  34   35    0    0    0
SMALL
NO_CHARGES


@<TRIPOS>ATOM
   1 C1            -0.1362     1.4673     0.0333 C.2     
   2 C2            -0.0851    -0.0063     0.0191 C.ar    
   3 C3             1.1401    -0.6648    -0.1384 C.ar    
   4 C4             1.1828    -2.0446    -0.1506 C.ar    
   5 C5             0.0130    -2.7784    -0.0068 C.ar    
   6 C6            -1.2079    -2.1271     0.1502 C.ar    
   7 C7            -1.2595    -0.7501     0.1688 C.ar    
   8 O8             0.8870     2.1123    -0.0920 O.2     
   9 N9            -1.3175     2.0992     0.1796 N.am    
  10 S10           -1.3749     3.7541     0.1955 S.o2    
  11 O11           -2.7500     4.0553     0.3893 O.2     
  12 O12           -0.3999     4.1293     1.1588 O.2     
  13 C13           -0.8451     4.2415    -1.4696 C.3     
  14 F14           -2.3429    -2.8464     0.2892 F       
  15 F15            2.2787     0.0486    -0.2788 F       
  16 O16            0.0593    -4.1350    -0.0197 O.3     
  17 C17           -0.1521    -4.7686    -1.2013 C.ar    
  18 C18           -0.0456    -6.1643    -1.2803 C.ar    
  19 C19           -0.2658    -6.8058    -2.5013 C.ar    
  20 C20           -0.5863    -6.0634    -3.6204 C.ar    
  21 C21           -0.6904    -4.6832    -3.5367 C.ar    
  22 C22           -0.4799    -4.0386    -2.3331 C.ar    
  23 F23           -0.7988    -6.6839    -4.8015 F       
  24 C24            0.2876    -6.9279    -0.1156 C.1     
  25 N25            0.5520    -7.5337     0.8083 N.1     
  26 H26            2.1273    -2.5538    -0.2724 H       
  27 H27           -2.2063    -0.2462     0.2951 H       
  28 H28           -2.1342     1.5847     0.2755 H       
  29 H29           -1.5274     3.8177    -2.2065 H       
  30 H30           -0.8531     5.3285    -1.5498 H       
  31 H31            0.1635     3.8710    -1.6529 H       
  32 H32           -0.1852    -7.8806    -2.5700 H       
  33 H33           -0.9414    -4.1093    -4.4165 H       
  34 H34           -0.5671    -2.9638    -2.2748 H       
@<TRIPOS>BOND
   1    1    2 1
   2    1    8 2
   3    1    9 am
   4    2    3 ar
   5    2    7 ar
   6    3    4 ar
   7    3   15 1
   8    4    5 ar
   9    4   26 1
  10    5    6 ar
  11    5   16 1
  12    6    7 ar
  13    6   14 1
  14    7   27 1
  15    9   10 am
  16    9   28 1
  17   10   11 2
  18   10   12 2
  19   10   13 1
  20   13   29 1
  21   13   30 1
  22   13   31 1
  23   16   17 1
  24   17   18 ar
  25   17   22 ar
  26   18   19 ar
  27   18   24 1
  28   19   20 ar
  29   19   32 1
  30   20   21 ar
  31   20   23 1
  32   21   22 ar
  33   21   33 1
  34   22   34 1
  35   24   25 3

#	End of record

