#	Name: ASD01900028
#	Creating user name:	WinNT
#	Creation time:	15. 06. 2019 19:51

#	Modifying user name:	WinNT
#	Modification time:	15. 06. 2019 19:51

#	Program:	/corina/corina34_cracker 3.40 0067  02.08.2006

@<TRIPOS>MOLECULE
ASD01900028
  40   41    0    0    0
SMALL
NO_CHARGES


@<TRIPOS>ATOM
   1 C1            -0.0187     1.5258     0.0104 C.3     
   2 C2             0.0021    -0.0041     0.0020 C.3     
   3 C3             0.7182    -0.4975    -1.2568 C.3     
   4 C4             2.1536     0.0321    -1.2676 C.3     
   5 C5             2.1328     1.5619    -1.2592 C.3     
   6 C6             1.4167     2.0553    -0.0004 C.3     
   7 C7             3.5467     2.0836    -1.2699 C.2     
   8 C8             2.8825    -0.4671    -0.0468 C.2     
   9 O9             3.7740     3.4064    -1.2650 O.3     
  10 N10            3.0256    -1.7915     0.1581 N.am    
  11 O11            4.4755     1.3110    -1.2829 O.2     
  12 O12            3.3403     0.3229     0.7515 O.2     
  13 C13            3.7341    -2.2768     1.3449 C.3     
  14 H14            1.6057     1.9230    -2.1423 H       
  15 H15            2.6638    -0.3194    -2.1644 H       
  16 C16            2.9424    -3.4231     1.9783 C.3     
  17 C17            3.6965    -3.9403     3.2065 C.3     
  18 C18            5.0982    -4.3885     2.7836 C.3     
  19 C19            5.8275    -3.2143     2.1268 C.3     
  20 N20            5.0668    -2.7564     0.9572 N.3     
  21 H21           -0.5459     1.8868    -0.8726 H       
  22 H22           -0.5289     1.8773     0.9072 H       
  23 H23            0.5293    -0.3651     0.8851 H       
  24 H24           -1.0205    -0.3814     0.0098 H       
  25 H25            0.7330    -1.5874    -1.2628 H       
  26 H26            0.1910    -0.1364    -2.1398 H       
  27 H27            1.4019     3.1452     0.0056 H       
  28 H28            1.9439     1.6943     0.8826 H       
  29 H29            4.6975     3.6932    -1.2723 H       
  30 H30            2.6595    -2.4234    -0.4804 H       
  31 H31            3.8359    -1.4645     2.0646 H       
  32 H32            1.9589    -3.0628     2.2802 H       
  33 H33            2.8285    -4.2302     1.2546 H       
  34 H34            3.7765    -3.1443     3.9467 H       
  35 H35            3.1578    -4.7852     3.6355 H       
  36 H36            5.6550    -4.7180     3.6608 H       
  37 H37            5.0183    -5.2108     2.0726 H       
  38 H38            5.9193    -2.3975     2.8428 H       
  39 H39            6.8207    -3.5341     1.8117 H       
  40 H40            5.0009    -3.4841     0.2613 H       
@<TRIPOS>BOND
   1    1    2 1
   2    1    6 1
   3    1   21 1
   4    1   22 1
   5    2    3 1
   6    2   23 1
   7    2   24 1
   8    3    4 1
   9    3   25 1
  10    3   26 1
  11    4    5 1
  12    4    8 1
  13    4   15 1
  14    5    6 1
  15    5    7 1
  16    5   14 1
  17    6   27 1
  18    6   28 1
  19    7    9 1
  20    7   11 2
  21    8   10 am
  22    8   12 2
  23    9   29 1
  24   10   13 1
  25   10   30 1
  26   13   16 1
  27   13   20 1
  28   13   31 1
  29   16   17 1
  30   16   32 1
  31   16   33 1
  32   17   18 1
  33   17   34 1
  34   17   35 1
  35   18   19 1
  36   18   36 1
  37   18   37 1
  38   19   20 1
  39   19   38 1
  40   19   39 1
  41   20   40 1

#	End of record

