#	Name: ASD01915321
#	Creating user name:	WinNT
#	Creation time:	15. 06. 2019 20:05

#	Modifying user name:	WinNT
#	Modification time:	15. 06. 2019 20:05

#	Program:	/corina/corina34_cracker 3.40 0067  02.08.2006

@<TRIPOS>MOLECULE
ASD01915321
  43   45    0    0    0
SMALL
NO_CHARGES


@<TRIPOS>ATOM
   1 N1            -0.1679     1.3028     0.7584 N.2     
   2 N2            -0.2980    -0.0920     0.8615 N.pl3   
   3 N3             0.8166    -0.6041     0.4632 N.2     
   4 N4             1.6243     0.3371     0.1235 N.2     
   5 C5             1.0413     1.5196     0.2962 C.2     
   6 C6             1.6574     2.8653     0.0127 C.3     
   7 C7            -1.4253    -0.7942     1.3123 C.ar    
   8 C8            -1.4074    -2.1811     1.3595 C.ar    
   9 C9            -2.5203    -2.8705     1.8043 C.ar    
  10 C10           -3.6508    -2.1784     2.2015 C.ar    
  11 C11           -3.6706    -0.7965     2.1547 C.ar    
  12 C12           -2.5593    -0.1028     1.7175 C.ar    
  13 Cl13          -2.4996    -4.6053     1.8639 Cl      
  14 N14            2.7286     3.1308     0.9826 N.am    
  15 C15            3.5651     4.3251     0.8020 C.3     
  16 C16            4.1431     4.3123    -0.6166 C.3     
  17 C17            3.0009     4.1862    -1.6274 C.3     
  18 C18            2.2568     2.8689    -1.3971 C.3     
  19 C19            2.9396     2.2949     2.0186 C.2     
  20 O20            2.1757     1.3748     2.2207 O.2     
  21 C21            4.1248     2.5035     2.9258 C.3     
  22 C22            3.9260     3.7847     3.7381 C.3     
  23 C23            4.2552     1.3119     3.8766 C.3     
  24 H24            0.8945     3.6400     0.0896 H       
  25 H25           -0.5253    -2.7213     1.0488 H       
  26 H26           -4.5194    -2.7185     2.5483 H       
  27 H27           -4.5544    -0.2589     2.4650 H       
  28 H28           -2.5756     0.9765     1.6817 H       
  29 H29            2.9590     5.2202     0.9416 H       
  30 H30            4.3782     4.3149     1.5279 H       
  31 H31            4.6871     5.2396    -0.7962 H       
  32 H32            4.8207     3.4655    -0.7258 H       
  33 H33            2.3105     5.0202    -1.5011 H       
  34 H34            3.4075     4.2017    -2.6386 H       
  35 H35            2.9521     2.0357    -1.4990 H       
  36 H36            1.4582     2.7688    -2.1322 H       
  37 H37            5.0307     2.5905     2.3259 H       
  38 H38            4.7795     3.9313     4.4000 H       
  39 H39            3.8411     4.6347     3.0610 H       
  40 H40            3.0158     3.7009     4.3319 H       
  41 H41            4.3968     0.3991     3.2978 H       
  42 H42            5.1124     1.4627     4.5327 H       
  43 H43            3.3493     1.2249     4.4764 H       
@<TRIPOS>BOND
   1    1    2 1
   2    1    5 2
   3    2    3 1
   4    2    7 1
   5    3    4 2
   6    4    5 1
   7    5    6 1
   8    6   14 1
   9    6   18 1
  10    6   24 1
  11    7    8 ar
  12    7   12 ar
  13    8    9 ar
  14    8   25 1
  15    9   10 ar
  16    9   13 1
  17   10   11 ar
  18   10   26 1
  19   11   12 ar
  20   11   27 1
  21   12   28 1
  22   14   15 1
  23   14   19 am
  24   15   16 1
  25   15   29 1
  26   15   30 1
  27   16   17 1
  28   16   31 1
  29   16   32 1
  30   17   18 1
  31   17   33 1
  32   17   34 1
  33   18   35 1
  34   18   36 1
  35   19   20 2
  36   19   21 1
  37   21   22 1
  38   21   23 1
  39   21   37 1
  40   22   38 1
  41   22   39 1
  42   22   40 1
  43   23   41 1
  44   23   42 1
  45   23   43 1

#	End of record

