#	Name: ASD01813595
#	Creating user name:	WinNT
#	Creation time:	15. 06. 2019 19:30

#	Modifying user name:	WinNT
#	Modification time:	15. 06. 2019 19:30

#	Program:	/corina/corina34_cracker 3.40 0067  02.08.2006

@<TRIPOS>MOLECULE
ASD01813595
  48   52    0    0    0
SMALL
NO_CHARGES


@<TRIPOS>ATOM
   1 C1             0.0066    -5.7498     1.3989 C.ar    
   2 C2             0.0435    -4.5724     0.6678 C.ar    
   3 C3             1.2316    -3.8962     0.4787 C.ar    
   4 C4             2.4121    -4.3956     1.0258 C.ar    
   5 C5             2.3732    -5.5890     1.7670 C.ar    
   6 C6             1.1634    -6.2633     1.9502 C.ar    
   7 N7             3.6056    -3.7294     0.8428 N.pl3   
   8 C8             4.7659    -4.1683     1.3467 C.2     
   9 C9             4.8528    -5.3276     2.0908 C.2     
  10 C10            3.6285    -6.1062     2.3401 C.2     
  11 O11            3.6523    -7.1360     2.9912 O.2     
  12 C12            6.1456    -5.7767     2.6260 C.2     
  13 O13            6.2176    -6.9108     3.3514 O.3     
  14 O14            7.1502    -5.1256     2.4147 O.2     
  15 C15            3.6041    -2.4889     0.0634 C.3     
  16 C16            3.6959    -2.8178    -1.4044 C.ar    
  17 N17            2.5967    -3.0792    -2.0815 N.ar    
  18 C18            2.6302    -3.3737    -3.3758 C.ar    
  19 C19            3.8435    -3.4152    -4.0614 C.ar    
  20 C20            5.0138    -3.1446    -3.3738 C.ar    
  21 C21            4.9325    -2.8354    -2.0234 C.ar    
  22 F22            1.2504    -2.7506    -0.2370 F       
  23 F23            1.1257    -7.4103     2.6630 F       
  24 C24            1.3689    -3.6608    -4.0967 C.ar    
  25 C25            0.2484    -2.8031    -3.9695 C.ar    
  26 C26           -0.9310    -3.1321    -4.6854 C.ar    
  27 C27           -0.9361    -4.2871    -5.4842 C.ar    
  28 N28            0.1342    -5.0437    -5.5623 N.ar    
  29 C29            1.2569    -4.7712    -4.9164 C.ar    
  30 C30            0.2741    -1.6568    -3.1676 C.ar    
  31 C31           -0.8363    -0.8702    -3.0848 C.ar    
  32 C32           -1.9962    -1.1908    -3.7869 C.ar    
  33 C33           -2.0559    -2.2988    -4.5765 C.ar    
  34 H34           -0.9318    -6.2651     1.5415 H       
  35 H35           -0.8679    -4.1800     0.2413 H       
  36 H36            5.6638    -3.5964     1.1646 H       
  37 H37            7.0897    -7.1656     3.6823 H       
  38 H38            2.6822    -1.9401     0.2558 H       
  39 H39            4.4584    -1.8770     0.3527 H       
  40 H40            3.8698    -3.6556    -5.1139 H       
  41 H41            5.9685    -3.1691    -3.8781 H       
  42 H42            5.8276    -2.6190    -1.4591 H       
  43 H43           -1.8247    -4.5546    -6.0366 H       
  44 H44            2.1019    -5.4352    -5.0237 H       
  45 H45            1.1668    -1.3973    -2.6179 H       
  46 H46           -0.8167     0.0144    -2.4655 H       
  47 H47           -2.8620    -0.5506    -3.7034 H       
  48 H48           -2.9617    -2.5347    -5.1152 H       
@<TRIPOS>BOND
   1    1    2 ar
   2    1    6 ar
   3    1   34 1
   4    2    3 ar
   5    2   35 1
   6    3    4 ar
   7    3   22 1
   8    4    5 ar
   9    4    7 1
  10    5    6 ar
  11    5   10 1
  12    6   23 1
  13    7    8 1
  14    7   15 1
  15    8    9 2
  16    8   36 1
  17    9   10 1
  18    9   12 1
  19   10   11 2
  20   12   13 1
  21   12   14 2
  22   13   37 1
  23   15   16 1
  24   15   38 1
  25   15   39 1
  26   16   17 ar
  27   16   21 ar
  28   17   18 ar
  29   18   19 ar
  30   18   24 1
  31   19   20 ar
  32   19   40 1
  33   20   21 ar
  34   20   41 1
  35   21   42 1
  36   24   25 ar
  37   24   29 ar
  38   25   26 ar
  39   25   30 ar
  40   26   27 ar
  41   26   33 ar
  42   27   28 ar
  43   27   43 1
  44   28   29 ar
  45   29   44 1
  46   30   31 ar
  47   30   45 1
  48   31   32 ar
  49   31   46 1
  50   32   33 ar
  51   32   47 1
  52   33   48 1

#	End of record

