#	Name: ASD01900922
#	Creating user name:	WinNT
#	Creation time:	15. 06. 2019 19:52

#	Modifying user name:	WinNT
#	Modification time:	15. 06. 2019 19:52

#	Program:	/corina/corina34_cracker 3.40 0067  02.08.2006

@<TRIPOS>MOLECULE
ASD01900922
  43   45    0    0    0
SMALL
NO_CHARGES


@<TRIPOS>ATOM
   1 C1            -0.0355     1.4627    -0.7470 C.ar    
   2 C2            -0.0217     0.1316    -1.1586 C.ar    
   3 C3             1.1945    -0.5194    -1.2909 C.ar    
   4 C4             2.3552     0.1835    -1.0069 C.ar    
   5 C5             2.2668     1.5057    -0.6022 C.ar    
   6 N6             1.0991     2.0996    -0.4848 N.ar    
   7 C7            -1.3267     2.1747    -0.6066 C.2     
   8 O8            -2.3682     1.5979    -0.8502 O.2     
   9 N9            -1.3465     3.4623    -0.2088 N.am    
  10 S10           -2.7293     5.7576     0.4165 S.3     
  11 C11           -2.5572     4.1298    -0.0772 C.2     
  12 N12           -3.7213     3.6096    -0.3116 N.2     
  13 C13           -4.7709     4.3902    -0.1356 C.2     
  14 C14           -4.4799     5.6290     0.2666 C.2     
  15 S15           -5.6434     6.9118     0.5912 S.o2    
  16 O16           -6.7958     6.2282     1.0644 O.2     
  17 O17           -4.9381     7.8222     1.4237 O.2     
  18 C18           -5.9650     7.6527    -1.0331 C.3     
  19 C19           -6.9580     8.7766    -0.8848 C.ar    
  20 C20           -6.5144    10.0635    -0.6429 C.ar    
  21 C21           -7.4252    11.0942    -0.5069 C.ar    
  22 C22           -8.7797    10.8384    -0.6132 C.ar    
  23 C23           -9.2231     9.5520    -0.8559 C.ar    
  24 C24           -8.3119     8.5217    -0.9963 C.ar    
  25 C25           -6.9417    12.4968    -0.2422 C.3     
  26 F26           -6.7322    13.1552    -1.4587 F       
  27 F27           -7.9028    13.1885     0.5028 F       
  28 F28           -5.7414    12.4489     0.4748 F       
  29 C29           -6.1836     3.9208    -0.3704 C.3     
  30 H30           -0.9457    -0.3855    -1.3712 H       
  31 H31            1.2371    -1.5510    -1.6078 H       
  32 H32            3.3189    -0.2950    -1.0998 H       
  33 H33            3.1690     2.0562    -0.3802 H       
  34 H34           -0.5151     3.9227    -0.0144 H       
  35 H35           -5.0343     8.0423    -1.4454 H       
  36 H36           -6.3708     6.8955    -1.7039 H       
  37 H37           -5.4563    10.2633    -0.5599 H       
  38 H38           -9.4914    11.6437    -0.5062 H       
  39 H39          -10.2812     9.3521    -0.9386 H       
  40 H40           -8.6581     7.5172    -1.1896 H       
  41 H41           -6.6193     3.5934     0.5736 H       
  42 H42           -6.7754     4.7399    -0.7791 H       
  43 H43           -6.1778     3.0896    -1.0755 H       
@<TRIPOS>BOND
   1    1    2 ar
   2    1    6 ar
   3    1    7 1
   4    2    3 ar
   5    2   30 1
   6    3    4 ar
   7    3   31 1
   8    4    5 ar
   9    4   32 1
  10    5    6 ar
  11    5   33 1
  12    7    8 2
  13    7    9 am
  14    9   11 1
  15    9   34 1
  16   10   11 1
  17   10   14 1
  18   11   12 2
  19   12   13 1
  20   13   14 2
  21   13   29 1
  22   14   15 1
  23   15   16 2
  24   15   17 2
  25   15   18 1
  26   18   19 1
  27   18   35 1
  28   18   36 1
  29   19   20 ar
  30   19   24 ar
  31   20   21 ar
  32   20   37 1
  33   21   22 ar
  34   21   25 1
  35   22   23 ar
  36   22   38 1
  37   23   24 ar
  38   23   39 1
  39   24   40 1
  40   25   26 1
  41   25   27 1
  42   25   28 1
  43   29   41 1
  44   29   42 1
  45   29   43 1

#	End of record

