#	Name: ASD06020108
#	Creating user name:	WinNT
#	Creation time:	15. 06. 2019 21:04

#	Modifying user name:	WinNT
#	Modification time:	15. 06. 2019 21:04

#	Program:	/corina/corina34_cracker 3.40 0067  02.08.2006

@<TRIPOS>MOLECULE
ASD06020108
  34   37    0    0    0
SMALL
NO_CHARGES


@<TRIPOS>ATOM
   1 C1            -0.0187     1.5258     0.0104 C.3     
   2 C2             0.0021    -0.0041     0.0020 C.3     
   3 C3             1.3165     0.7789    -0.0063 C.3     
   4 C4            -0.4420     2.2229    -1.2568 C.2     
   5 O5            -0.7498     1.5724    -2.2330 O.2     
   6 N6            -0.4784     3.5693    -1.3053 N.am    
   7 F7            -0.3508    -0.6614     1.1855 F       
   8 C8            -0.8700     4.2142    -2.4777 C.ar    
   9 C9            -0.9065     5.6111    -2.5239 C.ar    
  10 C10           -1.3002     6.2528    -3.7043 C.ar    
  11 C11           -1.6446     5.4262    -4.8034 C.ar    
  12 C12           -1.5806     4.0746    -4.6716 C.ar    
  13 N13           -1.1994     3.5021    -3.5408 N.ar    
  14 S14           -0.5341     6.8419    -1.3221 S.3     
  15 C15           -0.9297     8.1058    -2.4798 C.2     
  16 N16           -1.2885     7.5829    -3.6068 N.2     
  17 C17           -0.8623     9.5564    -2.2039 C.ar    
  18 C18           -1.1998    10.4763    -3.1992 C.ar    
  19 C19           -1.1349    11.8301    -2.9341 C.ar    
  20 C20           -0.7367    12.2757    -1.6866 C.ar    
  21 C21           -0.4009    11.3704    -0.6961 C.ar    
  22 C22           -0.4662    10.0136    -0.9451 C.ar    
  23 Cl23          -0.0512     8.8791     0.3017 Cl      
  24 Cl24          -1.6992     9.9193    -4.7657 Cl      
  25 H25           -0.3072     2.0201     0.9381 H       
  26 H26           -0.2904    -0.5063    -0.9201 H       
  27 H27            1.8888     0.7918    -0.9339 H       
  28 H28            1.9064     0.7818     0.9103 H       
  29 H29           -0.2322     4.0896    -0.5246 H       
  30 H30           -1.9559     5.8672    -5.7389 H       
  31 H31           -1.8448     3.4515    -5.5132 H       
  32 H32           -1.3953    12.5426    -3.7029 H       
  33 H33           -0.6875    13.3356    -1.4851 H       
  34 H34           -0.0909    11.7255     0.2756 H       
@<TRIPOS>BOND
   1    1    2 1
   2    1    3 1
   3    1    4 1
   4    1   25 1
   5    2    3 1
   6    2    7 1
   7    2   26 1
   8    3   27 1
   9    3   28 1
  10    4    5 2
  11    4    6 am
  12    6    8 1
  13    6   29 1
  14    8    9 ar
  15    8   13 ar
  16    9   10 ar
  17    9   14 1
  18   10   11 ar
  19   10   16 1
  20   11   12 ar
  21   11   30 1
  22   12   13 ar
  23   12   31 1
  24   14   15 1
  25   15   16 2
  26   15   17 1
  27   17   18 ar
  28   17   22 ar
  29   18   19 ar
  30   18   24 1
  31   19   20 ar
  32   19   32 1
  33   20   21 ar
  34   20   33 1
  35   21   22 ar
  36   21   34 1
  37   22   23 1

#	End of record

