#	Name: ASD02670014
#	Creating user name:	WinNT
#	Creation time:	15. 06. 2019 20:26

#	Modifying user name:	WinNT
#	Modification time:	15. 06. 2019 20:26

#	Program:	/corina/corina34_cracker 3.40 0067  02.08.2006

@<TRIPOS>MOLECULE
ASD02670014
  44   46    0    0    0
SMALL
NO_CHARGES


@<TRIPOS>ATOM
   1 N1             0.0376     1.3925     0.3170 N.am    
   2 N2             0.0380     0.0009     0.2815 N.am    
   3 C3             1.2334    -0.4866    -0.1009 C.2     
   4 O4             1.5365    -1.6544    -0.2250 O.2     
   5 C5             2.1240     0.7138    -0.3459 C.3     
   6 C6             1.2327     1.8996    -0.0399 C.2     
   7 O7             1.5351     3.0725    -0.1042 O.2     
   8 C8            -1.0719     2.1700     0.6745 C.ar    
   9 C9            -2.3087     1.9236     0.0937 C.ar    
  10 C10           -3.4018     2.6903     0.4463 C.ar    
  11 C11           -3.2642     3.7067     1.3803 C.ar    
  12 O12           -4.3407     4.4615     1.7268 O.3     
  13 C13           -2.0288     3.9530     1.9613 C.ar    
  14 C14           -0.9362     3.1834     1.6138 C.ar    
  15 C15           -1.0677    -0.7936     0.6041 C.ar    
  16 C16           -1.4650    -1.8134    -0.2507 C.ar    
  17 C17           -2.5565    -2.5962     0.0709 C.ar    
  18 C18           -3.2535    -2.3653     1.2426 C.ar    
  19 C19           -2.8605    -1.3506     2.0960 C.ar    
  20 C20           -1.7666    -0.5678     1.7827 C.ar    
  21 C21            3.3280     0.6901     0.5979 C.3     
  22 C22            4.2241    -0.5008     0.2516 C.3     
  23 C23            5.4281    -0.5245     1.1954 C.3     
  24 C24            6.3241    -1.7153     0.8491 C.3     
  25 H25            2.4522     0.7405    -1.3850 H       
  26 H26           -2.4159     1.1328    -0.6340 H       
  27 H27           -4.3639     2.4988    -0.0054 H       
  28 H28           -4.8429     4.1103     2.4749 H       
  29 H29           -1.9224     4.7443     2.6887 H       
  30 H30            0.0246     3.3726     2.0692 H       
  31 H31           -0.9212    -1.9940    -1.1662 H       
  32 H32           -2.8661    -3.3892    -0.5937 H       
  33 H33           -4.1069    -2.9785     1.4917 H       
  34 H34           -3.4072    -1.1726     3.0102 H       
  35 H35           -1.4575     0.2217     2.4517 H       
  36 H36            3.8942     1.6149     0.4879 H       
  37 H37            2.9812     0.5966     1.6270 H       
  38 H38            3.6579    -1.4256     0.3616 H       
  39 H39            4.5709    -0.4073    -0.7775 H       
  40 H40            5.9943     0.4004     1.0854 H       
  41 H41            5.0812    -0.6179     2.2245 H       
  42 H42            5.7579    -2.6402     0.9591 H       
  43 H43            6.6710    -1.6219    -0.1800 H       
  44 H44            7.1819    -1.7322     1.5214 H       
@<TRIPOS>BOND
   1    1    2 1
   2    1    6 am
   3    1    8 1
   4    2    3 am
   5    2   15 1
   6    3    4 2
   7    3    5 1
   8    5    6 1
   9    5   21 1
  10    5   25 1
  11    6    7 2
  12    8    9 ar
  13    8   14 ar
  14    9   10 ar
  15    9   26 1
  16   10   11 ar
  17   10   27 1
  18   11   12 1
  19   11   13 ar
  20   12   28 1
  21   13   14 ar
  22   13   29 1
  23   14   30 1
  24   15   16 ar
  25   15   20 ar
  26   16   17 ar
  27   16   31 1
  28   17   18 ar
  29   17   32 1
  30   18   19 ar
  31   18   33 1
  32   19   20 ar
  33   19   34 1
  34   20   35 1
  35   21   22 1
  36   21   36 1
  37   21   37 1
  38   22   23 1
  39   22   38 1
  40   22   39 1
  41   23   24 1
  42   23   40 1
  43   23   41 1
  44   24   42 1
  45   24   43 1
  46   24   44 1

#	End of record

