#	Name: ASD03331472
#	Creating user name:	WinNT
#	Creation time:	15. 06. 2019 20:39

#	Modifying user name:	WinNT
#	Modification time:	15. 06. 2019 20:39

#	Program:	/corina/corina34_cracker 3.40 0067  02.08.2006

@<TRIPOS>MOLECULE
ASD03331472
  57   59    0    0    0
SMALL
NO_CHARGES


@<TRIPOS>ATOM
   1 C1             0.9393     2.1648    -0.4661 C.ar    
   2 C2             0.6781     0.7095    -0.4199 C.2     
   3 N3            -0.4989     0.1252    -0.0744 N.pl3   
   4 C4            -0.3251    -1.2259    -0.1553 C.2     
   5 C5             0.9533    -1.4422    -0.5520 C.2     
   6 N6             1.5439    -0.2354    -0.7118 N.2     
   7 C7             1.5841    -2.7552    -0.7750 C.2     
   8 N8             2.8705    -2.8263    -1.1708 N.am    
   9 C9             0.0806     3.0508     0.1850 C.ar    
  10 O10            0.9440    -3.7747    -0.6017 O.2     
  11 C11            3.4976    -4.1316    -1.3925 C.3     
  12 C12            4.6550    -3.9799    -2.3815 C.3     
  13 C13            4.0294    -4.6739    -0.0643 C.3     
  14 C14            5.6195    -2.9047    -1.8770 C.3     
  15 C15           -1.7621     0.7548     0.3199 C.3     
  16 C16           -2.8762    -0.2935     0.2028 C.3     
  17 N17           -2.4750    -1.5265     0.8944 N.3     
  18 C18           -1.4067    -2.2270     0.1588 C.3     
  19 O19            5.0370    -3.7950     0.4399 O.3     
  20 C20            5.3968    -5.3123    -2.5067 C.3     
  21 C21            4.1062    -3.5712    -3.7500 C.3     
  22 C22            0.3293     4.4088     0.1386 C.ar    
  23 C23            1.4307     4.8907    -0.5546 C.ar    
  24 C24            2.2850     4.0133    -1.2025 C.ar    
  25 C25            2.0486     2.6552    -1.1561 C.ar    
  26 F26            1.6704     6.2195    -0.5981 F       
  27 F27           -0.5009     5.2688     0.7683 F       
  28 C28           -3.6300    -2.4080     1.1114 C.3     
  29 C29           -4.1567     0.2522     0.8379 C.3     
  30 H30            3.3811    -2.0132    -1.3090 H       
  31 H31           -0.7770     2.6758     0.7238 H       
  32 H32            2.7608    -4.8243    -1.7989 H       
  33 H33            3.2125    -4.7404     0.6542 H       
  34 H34            4.4567    -5.6644    -0.2213 H       
  35 H35            6.1386    -3.2693    -0.9905 H       
  36 H36            6.3472    -2.6751    -2.6554 H       
  37 H37            5.0600    -2.0038    -1.6255 H       
  38 H38           -1.6930     1.1046     1.3499 H       
  39 H39           -1.9765     1.5948    -0.3409 H       
  40 H40           -3.0594    -0.5114    -0.8494 H       
  41 H41           -1.8066    -2.6400    -0.7673 H       
  42 H42           -0.9994    -3.0285     0.7750 H       
  43 H43            5.4198    -4.0774     1.2818 H       
  44 H44            4.7096    -6.0782    -2.8662 H       
  45 H45            6.2213    -5.2042    -3.2114 H       
  46 H46            5.7877    -5.6035    -1.5318 H       
  47 H47            3.5778    -2.6220    -3.6608 H       
  48 H48            4.9308    -3.4632    -4.4546 H       
  49 H49            3.4191    -4.3372    -4.1094 H       
  50 H50            3.1405     4.3933    -1.7412 H       
  51 H51            2.7157     1.9728    -1.6617 H       
  52 H52           -4.0699    -2.6737     0.1501 H       
  53 H53           -3.3050    -3.3129     1.6248 H       
  54 H54           -4.3720    -1.8914     1.7202 H       
  55 H55           -4.4587     1.1634     0.3215 H       
  56 H56           -4.9489    -0.4919     0.7553 H       
  57 H57           -3.9748     0.4739     1.8895 H       
@<TRIPOS>BOND
   1    1    2 1
   2    1    9 ar
   3    1   25 ar
   4    2    3 1
   5    2    6 2
   6    3    4 1
   7    3   15 1
   8    4    5 2
   9    4   18 1
  10    5    6 1
  11    5    7 1
  12    7    8 am
  13    7   10 2
  14    8   11 1
  15    8   30 1
  16    9   22 ar
  17    9   31 1
  18   11   12 1
  19   11   13 1
  20   11   32 1
  21   12   14 1
  22   12   20 1
  23   12   21 1
  24   13   19 1
  25   13   33 1
  26   13   34 1
  27   14   35 1
  28   14   36 1
  29   14   37 1
  30   15   16 1
  31   15   38 1
  32   15   39 1
  33   16   17 1
  34   16   29 1
  35   16   40 1
  36   17   18 1
  37   17   28 1
  38   18   41 1
  39   18   42 1
  40   19   43 1
  41   20   44 1
  42   20   45 1
  43   20   46 1
  44   21   47 1
  45   21   48 1
  46   21   49 1
  47   22   23 ar
  48   22   27 1
  49   23   24 ar
  50   23   26 1
  51   24   25 ar
  52   24   50 1
  53   25   51 1
  54   28   52 1
  55   28   53 1
  56   28   54 1
  57   29   55 1
  58   29   56 1
  59   29   57 1

#	End of record

