#	Name: ASD01890432
#	Creating user name:	WinNT
#	Creation time:	15. 06. 2019 19:51

#	Modifying user name:	WinNT
#	Modification time:	15. 06. 2019 19:51

#	Program:	/corina/corina34_cracker 3.40 0067  02.08.2006

@<TRIPOS>MOLECULE
ASD01890432
  38   41    0    0    0
SMALL
NO_CHARGES


@<TRIPOS>ATOM
   1 C1            -0.0178     1.4582     0.0101 C.2     
   2 C2             0.0021    -0.0041     0.0020 C.2     
   3 C3             1.1807    -0.6634    -0.0128 C.2     
   4 O4             1.0282     2.0812     0.0034 O.2     
   5 C5             1.2007    -2.1343    -0.0209 C.ar    
   6 C6             2.4194    -2.8210    -0.0362 C.ar    
   7 C7             2.4296    -4.1996    -0.0432 C.ar    
   8 C8             1.2382    -4.9042    -0.0356 C.ar    
   9 C9             0.0282    -4.2323    -0.0204 C.ar    
  10 C10            0.0010    -2.8539    -0.0074 C.ar    
  11 N11           -2.8509     5.5963     0.0450 N.pl3   
  12 C12           -2.5360     4.2485     0.0367 C.ar    
  13 C13           -1.3233     3.5728     0.0277 C.ar    
  14 C14           -1.3074     2.1796     0.0201 C.ar    
  15 C15           -2.5089     1.4605     0.0214 C.ar    
  16 C16           -3.7035     2.1191     0.0302 C.ar    
  17 C17           -3.7334     3.5141     0.0379 C.ar    
  18 C18           -4.8274     4.5009     0.0475 C.ar    
  19 C19           -6.2169     4.3905     0.0526 C.ar    
  20 C20           -6.9935     5.5284     0.0617 C.ar    
  21 C21           -6.3976     6.7808     0.0658 C.ar    
  22 C22           -5.0253     6.9048     0.0608 C.ar    
  23 C23           -4.2228     5.7674     0.0516 C.ar    
  24 H24           -0.9258    -0.5567     0.0079 H       
  25 H25            2.1086    -0.1107    -0.0187 H       
  26 H26            3.3498    -2.2726    -0.0429 H       
  27 H27            3.3697    -4.7312    -0.0550 H       
  28 H28            1.2529    -5.9841    -0.0419 H       
  29 H29           -0.8971    -4.7893    -0.0146 H       
  30 H30           -0.9438    -2.3311     0.0086 H       
  31 H31           -2.2021     6.3174     0.0498 H       
  32 H32           -0.3953     4.1252     0.0263 H       
  33 H33           -2.4897     0.3807     0.0151 H       
  34 H34           -4.6275     1.5599     0.0308 H       
  35 H35           -6.6831     3.4163     0.0491 H       
  36 H36           -8.0703     5.4448     0.0653 H       
  37 H37           -7.0149     7.6670     0.0726 H       
  38 H38           -4.5720     7.8850     0.0640 H       
@<TRIPOS>BOND
   1    1    2 1
   2    1    4 2
   3    1   14 1
   4    2    3 2
   5    2   24 1
   6    3    5 1
   7    3   25 1
   8    5    6 ar
   9    5   10 ar
  10    6    7 ar
  11    6   26 1
  12    7    8 ar
  13    7   27 1
  14    8    9 ar
  15    8   28 1
  16    9   10 ar
  17    9   29 1
  18   10   30 1
  19   11   12 1
  20   11   23 1
  21   11   31 1
  22   12   13 ar
  23   12   17 ar
  24   13   14 ar
  25   13   32 1
  26   14   15 ar
  27   15   16 ar
  28   15   33 1
  29   16   17 ar
  30   16   34 1
  31   17   18 1
  32   18   19 ar
  33   18   23 ar
  34   19   20 ar
  35   19   35 1
  36   20   21 ar
  37   20   36 1
  38   21   22 ar
  39   21   37 1
  40   22   23 ar
  41   22   38 1

#	End of record

