#	Name: ASD01208050
#	Creating user name:	WinNT
#	Creation time:	15. 06. 2019 19:09

#	Modifying user name:	WinNT
#	Modification time:	15. 06. 2019 19:09

#	Program:	/corina/corina34_cracker 3.40 0067  02.08.2006

@<TRIPOS>MOLECULE
ASD01208050
  59   63    0    0    0
SMALL
NO_CHARGES


@<TRIPOS>ATOM
   1 C1            -0.0888     1.4346     0.0256 C.ar    
   2 C2             0.0151     0.0519    -0.0167 C.ar    
   3 C3            -1.1272    -0.7356     0.0267 C.ar    
   4 C4            -2.3761    -0.1432     0.1130 C.ar    
   5 C5            -2.4850     1.2477     0.1562 C.ar    
   6 C6            -1.3336     2.0353     0.1172 C.ar    
   7 C7            -3.8153     1.8842     0.2483 C.2     
   8 C8            -4.0563     3.2271     0.2973 C.2     
   9 N9            -5.0171     1.2269     0.2931 N.pl3   
  10 C10           -6.0214     2.1603     0.3767 C.2     
  11 C11           -5.4394     3.4091     0.3804 C.2     
  12 O12            1.0328     2.2009    -0.0172 O.3     
  13 C13            0.8492     3.6159    -0.0952 C.3     
  14 C14            2.0804     4.2552    -0.7404 C.3     
  15 O15            3.2146     4.0674     0.1083 O.3     
  16 C16            0.6584     4.1838     1.3127 C.3     
  17 O17           -1.0199    -2.0895    -0.0160 O.3     
  18 C18           -1.4897    -2.7322    -1.1169 C.ar    
  19 C19           -1.5233    -4.1228    -1.1473 C.ar    
  20 C20           -1.9402    -1.9999    -2.2067 C.ar    
  21 C21           -2.4178    -2.6481    -3.3260 C.ar    
  22 C22           -2.4483    -4.0431    -3.3636 C.ar    
  23 C23           -1.9999    -4.7780    -2.2640 C.ar    
  24 C24           -2.9595    -4.7406    -4.5618 C.2     
  25 C25           -7.4629     1.8770     0.4457 C.2     
  26 C26            4.4238     4.6302    -0.4046 C.3     
  27 N27           -8.4083     2.7733     0.5250 N.2     
  28 C28           -9.6441     2.3324     0.5771 C.2     
  29 C29           -9.7916     1.0040     0.5427 C.2     
  30 S30           -8.1919     0.2732     0.4270 S.3     
  31 F31           -1.0887    -4.8319    -0.0827 F       
  32 O32           -3.0462    -6.0748    -4.7345 O.3     
  33 C33           -3.5643    -6.2649    -5.9606 C.2     
  34 N34           -3.7737    -5.0910    -6.4872 N.2     
  35 N35           -3.4193    -4.1765    -5.6545 N.2     
  36 C36           -3.8508    -7.5948    -6.6090 C.3     
  37 H37            0.9875    -0.4132    -0.0840 H       
  38 H38           -3.2644    -0.7566     0.1463 H       
  39 H39           -1.4134     3.1118     0.1505 H       
  40 H40           -3.3114     4.0088     0.2757 H       
  41 H41           -5.1381     0.2647     0.2697 H       
  42 H42           -5.9571     4.3552     0.4368 H       
  43 H43           -0.0321     3.8353    -0.6979 H       
  44 H44            2.2683     3.7874    -1.7068 H       
  45 H45            1.9045     5.3217    -0.8810 H       
  46 H46            1.5397     3.9644     1.9155 H       
  47 H47            0.5183     5.2631     1.2532 H       
  48 H48           -0.2188     3.7284     1.7724 H       
  49 H49           -1.9170    -0.9205    -2.1776 H       
  50 H50           -2.7683    -2.0769    -4.1729 H       
  51 H51           -2.0220    -5.8575    -2.2894 H       
  52 H52            4.2965     5.7044    -0.5382 H       
  53 H53            5.2370     4.4452     0.2973 H       
  54 H54            4.6604     4.1702    -1.3640 H       
  55 H55          -10.4891     3.0015     0.6441 H       
  56 H56          -10.7300     0.4705     0.5760 H       
  57 H57           -4.8669    -7.9058    -6.3666 H       
  58 H58           -3.7474    -7.5017    -7.6901 H       
  59 H59           -3.1451    -8.3387    -6.2393 H       
@<TRIPOS>BOND
   1    1    2 ar
   2    1   12 1
   3    1    6 ar
   4    2    3 ar
   5    2   37 1
   6    3    4 ar
   7    3   17 1
   8    4    5 ar
   9    4   38 1
  10    5    6 ar
  11    5    7 1
  12    6   39 1
  13    7    8 2
  14    7    9 1
  15    8   11 1
  16    8   40 1
  17    9   10 1
  18    9   41 1
  19   10   11 2
  20   10   25 1
  21   11   42 1
  22   12   13 1
  23   13   14 1
  24   13   16 1
  25   13   43 1
  26   14   15 1
  27   14   44 1
  28   14   45 1
  29   15   26 1
  30   16   46 1
  31   16   47 1
  32   16   48 1
  33   17   18 1
  34   18   19 ar
  35   18   20 ar
  36   19   31 1
  37   19   23 ar
  38   20   21 ar
  39   20   49 1
  40   21   22 ar
  41   21   50 1
  42   22   23 ar
  43   22   24 1
  44   23   51 1
  45   24   32 1
  46   24   35 2
  47   25   27 2
  48   25   30 1
  49   26   52 1
  50   26   53 1
  51   26   54 1
  52   27   28 1
  53   28   29 2
  54   28   55 1
  55   29   30 1
  56   29   56 1
  57   32   33 1
  58   33   34 2
  59   33   36 1
  60   34   35 1
  61   36   57 1
  62   36   58 1
  63   36   59 1

#	End of record

