#	Name: ASD00069299
#	Creating user name:	WinNT
#	Creation time:	15. 06. 2019 18:29

#	Modifying user name:	WinNT
#	Modification time:	15. 06. 2019 18:29

#	Program:	/corina/corina34_cracker 3.40 0067  02.08.2006

@<TRIPOS>MOLECULE
ASD00069299
  52   53    0    0    0
SMALL
NO_CHARGES


@<TRIPOS>ATOM
   1 C1            -0.0162     1.3436     0.0094 C.2     
   2 N2             0.0021    -0.0041     0.0020 N.am    
   3 O3             1.0277     1.9654     0.0028 O.2     
   4 O4            -1.1912     2.0008     0.0186 O.3     
   5 C5            -1.2565    -0.7538     0.0100 C.3     
   6 C6             1.2806    -0.7192    -0.0140 C.3     
   7 N7             3.7715    -0.7273     3.4594 N.3     
   8 C8             3.4979    -2.0329     2.8455 C.3     
   9 C9             3.0098    -1.8307     1.4093 C.3     
  10 C10            1.7394    -0.9759     1.4228 C.3     
  11 C11            2.0391     0.3589     2.1105 C.3     
  12 C12            2.5554     0.0932     3.5264 C.3     
  13 C13            4.3440    -0.8791     4.7262 C.ar    
  14 C14            3.6538    -1.5559     5.7267 C.ar    
  15 C15            4.2237    -1.7041     6.9774 C.ar    
  16 C16            5.4780    -1.1799     7.2336 C.ar    
  17 C17            6.1655    -0.5071     6.2410 C.ar    
  18 C18            5.6045    -0.3600     4.9866 C.ar    
  19 N19            6.3448     0.3559     3.9235 N.pl3   
  20 O20            7.4510     0.8113     4.1525 O.2     
  21 O21            5.8478     0.4897     2.8196 O.2     
  22 F22            2.4285    -2.0670     5.4766 F       
  23 C23           -1.1349     3.4517     0.0262 C.3     
  24 C24           -0.4003     3.9401    -1.2239 C.3     
  25 C25           -2.5565     4.0172     0.0360 C.3     
  26 C26           -0.3885     3.9266     1.2745 C.3     
  27 H27           -1.5785    -0.9342    -1.0156 H       
  28 H28           -1.1084    -1.7071     0.5173 H       
  29 H29           -2.0192    -0.1778     0.5342 H       
  30 H30            1.1583    -1.6705    -0.5318 H       
  31 H31            2.0272    -0.1171    -0.5318 H       
  32 H32            4.4104    -2.6292     2.8384 H       
  33 H33            2.7303    -2.5509     3.4205 H       
  34 H34            3.7824    -1.3250     0.8301 H       
  35 H35            2.7920    -2.7992     0.9591 H       
  36 H36            0.9540    -1.4994     1.9680 H       
  37 H37            2.7965     0.8990     1.5423 H       
  38 H38            1.1278     0.9548     2.1613 H       
  39 H39            1.7922    -0.4347     4.0981 H       
  40 H40            2.7833     1.0411     4.0138 H       
  41 H41            3.6892    -2.2292     7.7551 H       
  42 H42            5.9209    -1.2963     8.2117 H       
  43 H43            7.1446    -0.0993     6.4448 H       
  44 H44           -0.9321     3.6018    -2.1132 H       
  45 H45           -0.3581     5.0293    -1.2182 H       
  46 H46            0.6125     3.5373    -1.2309 H       
  47 H47           -3.0798     3.6692     0.9266 H       
  48 H48           -2.5142     5.1064     0.0417 H       
  49 H49           -3.0883     3.6789    -0.8533 H       
  50 H50            0.6243     3.5237     1.2675 H       
  51 H51           -0.3462     5.0157     1.2802 H       
  52 H52           -0.9118     3.5786     2.1651 H       
@<TRIPOS>BOND
   1    1    2 am
   2    1    3 2
   3    1    4 1
   4    2    5 1
   5    2    6 1
   6    4   23 1
   7    5   27 1
   8    5   28 1
   9    5   29 1
  10    6   10 1
  11    6   30 1
  12    6   31 1
  13    7    8 1
  14    7   12 1
  15    7   13 1
  16    8    9 1
  17    8   32 1
  18    8   33 1
  19    9   10 1
  20    9   34 1
  21    9   35 1
  22   10   11 1
  23   10   36 1
  24   11   12 1
  25   11   37 1
  26   11   38 1
  27   12   39 1
  28   12   40 1
  29   13   14 ar
  30   13   18 ar
  31   14   15 ar
  32   14   22 1
  33   15   16 ar
  34   15   41 1
  35   16   17 ar
  36   16   42 1
  37   17   18 ar
  38   17   43 1
  39   18   19 1
  40   19   20 2
  41   19   21 2
  42   23   24 1
  43   23   26 1
  44   23   25 1
  45   24   44 1
  46   24   45 1
  47   24   46 1
  48   25   47 1
  49   25   48 1
  50   25   49 1
  51   26   50 1
  52   26   51 1
  53   26   52 1

#	End of record

