#	Name: ASD01208882
#	Creating user name:	WinNT
#	Creation time:	15. 06. 2019 19:10

#	Modifying user name:	WinNT
#	Modification time:	15. 06. 2019 19:10

#	Program:	/corina/corina34_cracker 3.40 0067  02.08.2006

@<TRIPOS>MOLECULE
ASD01208882
  58   61    0    0    0
SMALL
NO_CHARGES


@<TRIPOS>ATOM
   1 S1             0.0278     1.9169     1.7152 S.3     
   2 C2             0.0830     0.2984     1.1685 C.2     
   3 N3             1.3139    -0.0726     0.9644 N.2     
   4 C4             2.2526     0.8075     1.1990 C.2     
   5 C5             1.7850     2.0173     1.6353 C.2     
   6 C6             2.5976     3.1836     1.9741 C.2     
   7 O7             3.8092     3.1298     1.8772 O.2     
   8 O8             2.0041     4.3202     2.3944 O.3     
   9 C9            -0.8706    -1.7710     0.5364 C.2     
  10 C10           -2.0551    -2.6297     0.3256 C.ar    
  11 C11           -1.8974    -3.9413    -0.1248 C.ar    
  12 C12           -3.0099    -4.7424    -0.3210 C.ar    
  13 C13           -4.2799    -4.2430    -0.0705 C.ar    
  14 C14           -4.4414    -2.9396     0.3769 C.ar    
  15 C15           -3.3335    -2.1333     0.5818 C.ar    
  16 O16            0.2427    -2.2069     0.3174 O.2     
  17 N17           -1.0250    -0.5048     0.9713 N.am    
  18 O18           -5.6875    -2.4553     0.6203 O.3     
  19 C19           -6.2388    -1.6222    -0.2999 C.ar    
  20 C20           -7.4894    -1.0638    -0.0676 C.ar    
  21 C21           -8.0520    -0.2181    -0.9989 C.ar    
  22 C22           -7.3632     0.0777    -2.1769 C.ar    
  23 C23           -6.1062    -0.4852    -2.4065 C.ar    
  24 C24           -5.5481    -1.3262    -1.4682 C.ar    
  25 O25           -7.4139     1.3542    -4.3523 O.3     
  26 C26           -7.9632     0.9837    -3.1783 C.2     
  27 N27           -9.1305     1.5778    -3.0905 N.2     
  28 N28           -9.3245     2.2898    -4.1444 N.2     
  29 C29           -8.2978     2.1796    -4.9400 C.2     
  30 C30           -8.1316     2.8551    -6.2768 C.3     
  31 O31           -2.8574    -6.0196    -0.7600 O.3     
  32 C32           -3.7349    -7.8482    -2.0741 C.3     
  33 C33           -4.0491    -6.7507    -1.0554 C.3     
  34 C34           -4.5894    -7.3853     0.2276 C.3     
  35 O35           -2.8429    -8.7993    -1.4896 O.3     
  36 C36           -2.4838    -9.8722    -2.3625 C.3     
  37 H37            3.3031     0.5980     1.0608 H       
  38 H38            2.6227     5.0360     2.5946 H       
  39 H39           -0.9093    -4.3308    -0.3204 H       
  40 H40           -5.1453    -4.8705    -0.2246 H       
  41 H41           -3.4596    -1.1204     0.9347 H       
  42 H42           -1.9135    -0.1569     1.1461 H       
  43 H43           -8.0216    -1.2930     0.8437 H       
  44 H44           -9.0247     0.2151    -0.8180 H       
  45 H45           -5.5706    -0.2590    -3.3166 H       
  46 H46           -4.5742    -1.7590    -1.6434 H       
  47 H47           -8.5354     2.2141    -7.0605 H       
  48 H48           -8.6663     3.8049    -6.2730 H       
  49 H49           -7.0729     3.0348    -6.4640 H       
  50 H50           -4.6585    -8.3479    -2.3663 H       
  51 H51           -3.2678    -7.4047    -2.9535 H       
  52 H52           -4.7972    -6.0744    -1.4691 H       
  53 H53           -3.8413    -8.0616     0.6413 H       
  54 H54           -4.8132    -6.6035     0.9534 H       
  55 H55           -5.4984    -7.9430     0.0023 H       
  56 H56           -3.3814   -10.4140    -2.6607 H       
  57 H57           -1.9908    -9.4708    -3.2479 H       
  58 H58           -1.8053   -10.5503    -1.8449 H       
@<TRIPOS>BOND
   1    1    2 1
   2    1    5 1
   3    2    3 2
   4    2   17 1
   5    3    4 1
   6    4    5 2
   7    4   37 1
   8    5    6 1
   9    6    7 2
  10    6    8 1
  11    8   38 1
  12    9   10 1
  13    9   16 2
  14    9   17 am
  15   10   11 ar
  16   10   15 ar
  17   11   12 ar
  18   11   39 1
  19   12   13 ar
  20   12   31 1
  21   13   14 ar
  22   13   40 1
  23   14   15 ar
  24   14   18 1
  25   15   41 1
  26   17   42 1
  27   18   19 1
  28   19   20 ar
  29   19   24 ar
  30   20   21 ar
  31   20   43 1
  32   21   22 ar
  33   21   44 1
  34   22   23 ar
  35   22   26 1
  36   23   24 ar
  37   23   45 1
  38   24   46 1
  39   25   26 1
  40   25   29 1
  41   26   27 2
  42   27   28 1
  43   28   29 2
  44   29   30 1
  45   30   47 1
  46   30   48 1
  47   30   49 1
  48   31   33 1
  49   32   33 1
  50   32   35 1
  51   32   50 1
  52   32   51 1
  53   33   34 1
  54   33   52 1
  55   34   53 1
  56   34   54 1
  57   34   55 1
  58   35   36 1
  59   36   56 1
  60   36   57 1
  61   36   58 1

#	End of record

