#	Name: ASD01881858
#	Creating user name:	WinNT
#	Creation time:	15. 06. 2019 19:43

#	Modifying user name:	WinNT
#	Modification time:	15. 06. 2019 19:43

#	Program:	/corina/corina34_cracker 3.40 0067  02.08.2006

@<TRIPOS>MOLECULE
ASD01881858
  44   47    0    0    0
SMALL
NO_CHARGES


@<TRIPOS>ATOM
   1 C1             0.1945    -0.0674     0.4386 C.1     
   2 C2             0.1245     1.3689     0.1244 C.3     
   3 C3             1.5023     2.0028     0.3260 C.3     
   4 N4             0.2485    -1.1759     0.6811 N.1     
   5 N5             1.4325     3.4363     0.0125 N.3     
   6 C6             2.6699     4.1270     0.4192 C.3     
   7 C7             3.2395     4.8215    -0.8356 C.3     
   8 C8             1.9964     4.9587    -1.7537 C.3     
   9 C9             1.2269     3.6525    -1.4355 C.3     
  10 O10            3.7680     6.1075    -0.5054 O.3     
  11 N11            7.6180     8.3720    -3.6762 N.pl3   
  12 N12            7.8572     9.4855    -2.8574 N.2     
  13 N13            7.0952     9.4276    -1.8227 N.2     
  14 C14            6.3249     8.3225    -1.8693 C.ar    
  15 C15            6.6430     7.6294    -3.0501 C.ar    
  16 C16            5.3484     7.7993    -1.0105 C.ar    
  17 C17            4.7161     6.6173    -1.3365 C.ar    
  18 C18            5.0418     5.9421    -2.5103 C.ar    
  19 C19            5.9926     6.4394    -3.3564 C.ar    
  20 C20            8.2725     8.0635    -4.9501 C.3     
  21 C21            9.5216     7.2191    -4.6903 C.3     
  22 C22           10.2841     6.6925    -5.9078 C.3     
  23 C23           10.8750     7.8255    -5.0664 C.3     
  24 Br24           4.8998     8.7089     0.5855 Br      
  25 H25           -0.1874     1.4994    -0.9118 H       
  26 H26           -0.5971     1.8505     0.7844 H       
  27 H27            1.8142     1.8724     1.3623 H       
  28 H28            2.2239     1.5213    -0.3339 H       
  29 H29            2.4455     4.8700     1.1845 H       
  30 H30            3.3900     3.4035     0.8016 H       
  31 H31            4.0007     4.2005    -1.3078 H       
  32 H32            1.4067     5.8348    -1.4842 H       
  33 H33            2.2882     4.9941    -2.8033 H       
  34 H34            1.6396     2.8203    -2.0059 H       
  35 H35            0.1660     3.7743    -1.6542 H       
  36 H36            4.5394     5.0175    -2.7533 H       
  37 H37            6.2383     5.9082    -4.2641 H       
  38 H38            7.5843     7.5079    -5.5870 H       
  39 H39            8.5578     8.9913    -5.4460 H       
  40 H40            9.4832     6.5823    -3.8065 H       
  41 H41           10.7476     5.7095    -5.8249 H       
  42 H42            9.8958     6.9477    -6.8938 H       
  43 H43           10.8756     8.8260    -5.4988 H       
  44 H44           11.7273     7.5878    -4.4298 H       
@<TRIPOS>BOND
   1    1    2 1
   2    1    4 3
   3    2    3 1
   4    2   25 1
   5    2   26 1
   6    3    5 1
   7    3   27 1
   8    3   28 1
   9    5    6 1
  10    5    9 1
  11    6    7 1
  12    6   29 1
  13    6   30 1
  14    7    8 1
  15    7   10 1
  16    7   31 1
  17    8    9 1
  18    8   32 1
  19    8   33 1
  20    9   34 1
  21    9   35 1
  22   10   17 1
  23   11   12 1
  24   11   15 1
  25   11   20 1
  26   12   13 2
  27   13   14 1
  28   14   15 ar
  29   14   16 ar
  30   15   19 ar
  31   16   17 ar
  32   16   24 1
  33   17   18 ar
  34   18   19 ar
  35   18   36 1
  36   19   37 1
  37   20   21 1
  38   20   38 1
  39   20   39 1
  40   21   22 1
  41   21   23 1
  42   21   40 1
  43   22   23 1
  44   22   41 1
  45   22   42 1
  46   23   43 1
  47   23   44 1

#	End of record

