#	Name: ASD08150351
#	Creating user name:	WinNT
#	Creation time:	15. 06. 2019 21:15

#	Modifying user name:	WinNT
#	Modification time:	15. 06. 2019 21:15

#	Program:	/corina/corina34_cracker 3.40 0067  02.08.2006

@<TRIPOS>MOLECULE
ASD08150351
  46   50    0    0    0
SMALL
NO_CHARGES


@<TRIPOS>ATOM
   1 C1             1.2343    -0.2301     1.0540 C.3     
   2 N2             1.7199    -4.3688    -1.5563 N.am    
   3 C3             2.8202    -4.3973    -2.3332 C.2     
   4 C4             2.8093    -5.0561    -3.5794 C.2     
   5 C5             1.6824    -5.6744    -4.0154 C.2     
   6 C6             0.5231    -5.6469    -3.2005 C.ar    
   7 C7            -0.6716    -6.2727    -3.6052 C.ar    
   8 N8            -1.7394    -6.2461    -2.8513 N.ar    
   9 C9            -1.7618    -5.6284    -1.6604 C.ar    
  10 C10           -0.6046    -4.9722    -1.1733 C.ar    
  11 C11            0.5675    -4.9822    -1.9653 C.ar    
  12 C12           -0.6385    -4.3310     0.0689 C.ar    
  13 C13           -1.8077    -4.3446     0.8120 C.ar    
  14 C14           -2.9487    -4.9964     0.3235 C.ar    
  15 C15           -2.9315    -5.6240    -0.8829 C.ar    
  16 O16            3.8389    -3.8454    -1.9534 O.2     
  17 C17           -1.8523    -3.6669     2.1306 C.ar    
  18 C18            1.7578    -3.7122    -0.3199 C.ar    
  19 C19            2.0646    -4.4207     0.8346 C.ar    
  20 C20            2.1014    -3.7714     2.0526 C.ar    
  21 C21            1.8326    -2.4145     2.1236 C.ar    
  22 C22            1.5264    -1.7063     0.9738 C.ar    
  23 C23            1.4942    -2.3508    -0.2474 C.ar    
  24 F24            1.8682    -1.7812     3.3165 F       
  25 C25           -2.5763    -4.2141     3.1933 C.ar    
  26 N26           -2.5913    -3.5807     4.3527 N.ar    
  27 C27           -1.9322    -2.4424     4.5143 C.ar    
  28 N28           -1.2350    -1.8920     3.5307 N.ar    
  29 C29           -1.1666    -2.4680     2.3435 C.ar    
  30 N30           -1.9734    -1.8104     5.7445 N.pl3   
  31 H31            2.1613     0.3308     0.9339 H       
  32 H32            0.5376     0.0460     0.2625 H       
  33 H33            0.7929     0.0008     2.0235 H       
  34 H34            3.7005    -5.0686    -4.1893 H       
  35 H35            1.6692    -6.1798    -4.9698 H       
  36 H36           -0.7066    -6.7837    -4.5560 H       
  37 H37            0.2402    -3.8292     0.4464 H       
  38 H38           -3.8535    -5.0001     0.9132 H       
  39 H39           -3.8198    -6.1209    -1.2439 H       
  40 H40            2.2740    -5.4788     0.7798 H       
  41 H41            2.3399    -4.3219     2.9506 H       
  42 H42            1.2602    -1.7972    -1.1446 H       
  43 H43           -3.1160    -5.1412     3.0685 H       
  44 H44           -0.5964    -2.0141     1.5465 H       
  45 H45           -2.4797    -2.2012     6.4737 H       
  46 H46           -1.4959    -0.9767     5.8776 H       
@<TRIPOS>BOND
   1    1   22 1
   2    1   31 1
   3    1   32 1
   4    1   33 1
   5    2    3 am
   6    2   11 1
   7    2   18 1
   8    3    4 1
   9    3   16 2
  10    4    5 2
  11    4   34 1
  12    5    6 1
  13    5   35 1
  14    6    7 ar
  15    6   11 ar
  16    7    8 ar
  17    7   36 1
  18    8    9 ar
  19    9   10 ar
  20    9   15 ar
  21   10   11 ar
  22   10   12 ar
  23   12   13 ar
  24   12   37 1
  25   13   14 ar
  26   13   17 1
  27   14   15 ar
  28   14   38 1
  29   15   39 1
  30   17   25 ar
  31   17   29 ar
  32   18   19 ar
  33   18   23 ar
  34   19   20 ar
  35   19   40 1
  36   20   21 ar
  37   20   41 1
  38   21   22 ar
  39   21   24 1
  40   22   23 ar
  41   23   42 1
  42   25   26 ar
  43   25   43 1
  44   26   27 ar
  45   27   28 ar
  46   27   30 1
  47   28   29 ar
  48   29   44 1
  49   30   45 1
  50   30   46 1

#	End of record

