#	Name: ASD00990072
#	Creating user name:	WinNT
#	Creation time:	15. 06. 2019 18:54

#	Modifying user name:	WinNT
#	Modification time:	15. 06. 2019 18:54

#	Program:	/corina/corina34_cracker 3.40 0067  02.08.2006

@<TRIPOS>MOLECULE
ASD00990072
  58   60    0    0    0
SMALL
NO_CHARGES


@<TRIPOS>ATOM
   1 C1            -0.0166     1.3755     0.0096 C.ar    
   2 C2             0.0021    -0.0041     0.0020 C.ar    
   3 C3             1.2210    -0.6859    -0.0133 C.ar    
   4 C4             2.4167     0.0329    -0.0209 C.ar    
   5 C5             2.3866     1.4192    -0.0132 C.ar    
   6 C6             1.1682     2.0878     0.0021 C.ar    
   7 N7             3.5810     2.1438    -0.0203 N.3     
   8 C8             4.7428     1.2440    -0.0358 C.3     
   9 C9             6.0261     2.0736    -0.1235 C.3     
  10 N10            6.0910     2.9931     1.0210 N.3     
  11 C11            4.9292     3.8929     1.0365 C.3     
  12 C12            3.6460     3.0633     1.1242 C.3     
  13 C13            7.3469     3.7550     1.0135 C.3     
  14 C14            7.2747     4.8676     2.0614 C.3     
  15 C15            1.2434    -2.1177    -0.0208 C.1     
  16 N16            1.2611    -3.2535    -0.0267 N.1     
  17 C17           -1.3333     2.1085     0.0198 C.3     
  18 C18            8.5828     5.6611     2.0536 C.3     
  19 C19            8.7359     6.3789     0.7111 C.3     
  20 C20            8.5604     6.6924     3.1836 C.3     
  21 C21            9.8685     7.4860     3.1759 C.3     
  22 C22           10.0216     8.2037     1.8334 C.3     
  23 C23           10.0440     7.1725     0.7034 C.3     
  24 N24            8.8942     9.1185     1.6374 N.am    
  25 C25            9.0296    10.1924     0.8343 C.2     
  26 N26            7.9924    11.0340     0.6540 N.am    
  27 O27           10.0873    10.4020     0.2725 O.2     
  28 F28           -2.3823     1.1829     0.0198 F       
  29 F29           -1.4146     2.9053     1.1669 F       
  30 F30           -1.4254     2.9178    -1.1176 F       
  31 H31           -0.9258    -0.5568     0.0083 H       
  32 H32            3.3624    -0.4886    -0.0324 H       
  33 H33            1.1470     3.1676     0.0078 H       
  34 H34            4.7553     0.6504     0.8783 H       
  35 H35            4.6783     0.5817    -0.8991 H       
  36 H36            6.8903     1.4095    -0.1059 H       
  37 H37            6.0261     2.6465    -1.0508 H       
  38 H38            4.9937     4.5552     1.8998 H       
  39 H39            4.9167     4.4865     0.1224 H       
  40 H40            2.7818     3.7274     1.1067 H       
  41 H41            3.6460     2.4904     2.0515 H       
  42 H42            8.1774     3.0889     1.2475 H       
  43 H43            7.4998     4.1939     0.0276 H       
  44 H44            6.4442     5.5337     1.8275 H       
  45 H45            7.1219     4.4287     3.0474 H       
  46 H46            9.4216     4.9805     2.1995 H       
  47 H47            8.7519     5.6442    -0.0939 H       
  48 H48            7.8971     7.0595     0.5653 H       
  49 H49            7.7216     7.3730     3.0378 H       
  50 H50            8.4513     6.1810     4.1401 H       
  51 H51            9.8525     8.2206     3.9809 H       
  52 H52           10.7073     6.8053     3.3217 H       
  53 H53           10.9535     8.7691     1.8278 H       
  54 H54           10.8828     6.4918     0.8492 H       
  55 H55           10.1530     7.6838    -0.2531 H       
  56 H56            8.0504     8.9514     2.0855 H       
  57 H57            7.1486    10.8668     1.1022 H       
  58 H58            8.0899    11.8069     0.0760 H       
@<TRIPOS>BOND
   1    1    2 ar
   2    1    6 ar
   3    1   17 1
   4    2    3 ar
   5    2   31 1
   6    3    4 ar
   7    3   15 1
   8    4    5 ar
   9    4   32 1
  10    5    6 ar
  11    5    7 1
  12    6   33 1
  13    7    8 1
  14    7   12 1
  15    8    9 1
  16    8   34 1
  17    8   35 1
  18    9   10 1
  19    9   36 1
  20    9   37 1
  21   10   11 1
  22   10   13 1
  23   11   12 1
  24   11   38 1
  25   11   39 1
  26   12   40 1
  27   12   41 1
  28   13   14 1
  29   13   42 1
  30   13   43 1
  31   14   18 1
  32   14   44 1
  33   14   45 1
  34   15   16 3
  35   17   28 1
  36   17   29 1
  37   17   30 1
  38   18   20 1
  39   18   19 1
  40   18   46 1
  41   19   23 1
  42   19   47 1
  43   19   48 1
  44   20   21 1
  45   20   49 1
  46   20   50 1
  47   21   22 1
  48   21   51 1
  49   21   52 1
  50   22   23 1
  51   22   24 1
  52   22   53 1
  53   23   54 1
  54   23   55 1
  55   24   25 am
  56   24   56 1
  57   25   26 am
  58   25   27 2
  59   26   57 1
  60   26   58 1

#	End of record

