#	Name: ASD05430132
#	Creating user name:	WinNT
#	Creation time:	15. 06. 2019 20:59

#	Modifying user name:	WinNT
#	Modification time:	15. 06. 2019 20:59

#	Program:	/corina/corina34_cracker 3.40 0067  02.08.2006

@<TRIPOS>MOLECULE
ASD05430132
  66   71    0    0    0
SMALL
NO_CHARGES


@<TRIPOS>ATOM
   1 C1             0.1635     1.1944    -0.9969 C.ar    
   2 C2             0.0192    -0.0130    -0.3143 C.ar    
   3 C3             1.0616    -0.5057     0.4602 C.ar    
   4 C4             2.2431     0.1964     0.5581 C.ar    
   5 C5             2.3950     1.4081    -0.1237 C.ar    
   6 C6             1.3459     1.9039    -0.9036 C.ar    
   7 C7             4.8884    -0.0015    -0.0918 C.3     
   8 C8             4.8270     1.5012     0.0670 C.2     
   9 C9             3.6566     2.1597    -0.0203 C.2     
  10 C10            6.3032    -0.4326    -0.4634 C.3     
  11 C11            7.1030     0.6162    -1.2338 C.3     
  12 N12            7.1978     1.8300    -0.4224 N.pl3   
  13 C13            6.0864     2.2230     0.3206 C.2     
  14 C14            8.2779     3.8031    -1.3360 C.ar    
  15 C15            9.3631     4.1970    -2.0965 C.ar    
  16 C16            9.2419     5.2533    -2.9793 C.ar    
  17 C17            8.0331     5.9171    -3.1020 C.ar    
  18 C18            6.9469     5.5217    -2.3398 C.ar    
  19 C19            7.0704     4.4651    -1.4576 C.ar    
  20 N20           -1.1807    -0.7308    -0.4097 N.pl3   
  21 C21           -1.3122    -2.0624    -0.7079 C.2     
  22 C22           -2.6306    -2.3368    -0.6945 C.2     
  23 N23           -3.2903    -1.2075    -0.3970 N.2     
  24 C24           -2.4327    -0.2399    -0.2183 C.2     
  25 C25           -3.2565    -3.6802    -0.9675 C.3     
  26 N26            6.1764     3.1663     1.2002 N.2     
  27 C27           -0.6399     2.9137    -2.4298 C.3     
  28 O28           -0.8569     1.6709    -1.7585 O.3     
  29 C29            8.4096     2.6471    -0.3781 C.3     
  30 C30            8.5819     3.1766     1.0499 C.3     
  31 O31            7.3896     3.8273     1.4769 O.3     
  32 F32            7.9136     6.9502    -3.9644 F       
  33 C33            7.0823    -1.0451     0.7122 C.3     
  34 O34            7.5078    -2.0415    -0.2399 O.3     
  35 C35            6.3680    -1.8312    -1.0983 C.3     
  36 C36            8.8878     2.0093     1.9905 C.3     
  37 O37            9.1635     2.5120     3.2994 O.3     
  38 H38            0.9457    -1.4413     0.9872 H       
  39 H39            3.0517    -0.1888     1.1616 H       
  40 H40            1.4592     2.8390    -1.4320 H       
  41 H41            4.6007    -0.4761     0.8464 H       
  42 H42            4.1985    -0.3104    -0.8771 H       
  43 H43            3.6429     3.2396    -0.0145 H       
  44 H44            8.1034     0.2348    -1.4383 H       
  45 H45            6.5980     0.8433    -2.1727 H       
  46 H46           10.3060     3.6793    -2.0004 H       
  47 H47           10.0899     5.5611    -3.5731 H       
  48 H48            6.0035     6.0388    -2.4347 H       
  49 H49            6.2233     4.1565    -0.8630 H       
  50 H50           -0.5121    -2.7580    -0.9139 H       
  51 H51           -2.6778     0.7817     0.0320 H       
  52 H52           -3.3494    -4.2343    -0.0335 H       
  53 H53           -4.2445    -3.5384    -1.4057 H       
  54 H54           -2.6284    -4.2395    -1.6609 H       
  55 H55           -0.4343     3.6923    -1.6952 H       
  56 H56            0.2101     2.8181    -3.1054 H       
  57 H57           -1.5299     3.1785    -3.0006 H       
  58 H58            9.2724     2.0396    -0.6512 H       
  59 H59            9.4096     3.8854     1.0752 H       
  60 H60            7.8907    -0.4145     1.0821 H       
  61 H61            6.4468    -1.4367     1.5065 H       
  62 H62            5.5132    -2.4642    -0.8597 H       
  63 H63            6.6113    -1.8227    -2.1608 H       
  64 H64            8.0278     1.3409     2.0316 H       
  65 H65            9.7554     1.4627     1.6210 H       
  66 H66            9.3665     1.8256     3.9496 H       
@<TRIPOS>BOND
   1    1    2 ar
   2    1    6 ar
   3    1   28 1
   4    2    3 ar
   5    2   20 1
   6    3    4 ar
   7    3   38 1
   8    4    5 ar
   9    4   39 1
  10    5    6 ar
  11    5    9 1
  12    6   40 1
  13    7    8 1
  14    7   10 1
  15    7   41 1
  16    7   42 1
  17    8    9 2
  18    8   13 1
  19    9   43 1
  20   10   11 1
  21   10   33 1
  22   10   35 1
  23   11   12 1
  24   11   44 1
  25   11   45 1
  26   12   13 1
  27   12   29 1
  28   13   26 2
  29   14   15 ar
  30   14   19 ar
  31   14   29 1
  32   15   16 ar
  33   15   46 1
  34   16   17 ar
  35   16   47 1
  36   17   18 ar
  37   17   32 1
  38   18   19 ar
  39   18   48 1
  40   19   49 1
  41   20   21 1
  42   20   24 1
  43   21   22 2
  44   21   50 1
  45   22   23 1
  46   22   25 1
  47   23   24 2
  48   24   51 1
  49   25   52 1
  50   25   53 1
  51   25   54 1
  52   26   31 1
  53   27   28 1
  54   27   55 1
  55   27   56 1
  56   27   57 1
  57   29   30 1
  58   29   58 1
  59   30   31 1
  60   30   36 1
  61   30   59 1
  62   33   34 1
  63   33   60 1
  64   33   61 1
  65   34   35 1
  66   35   62 1
  67   35   63 1
  68   36   37 1
  69   36   64 1
  70   36   65 1
  71   37   66 1

#	End of record

