#	Name: ASD05473001
#	Creating user name:	WinNT
#	Creation time:	15. 06. 2019 21:00

#	Modifying user name:	WinNT
#	Modification time:	15. 06. 2019 21:00

#	Program:	/corina/corina34_cracker 3.40 0067  02.08.2006

@<TRIPOS>MOLECULE
ASD05473001
  37   39    0    0    0
SMALL
NO_CHARGES


@<TRIPOS>ATOM
   1 C1            -0.0168     1.3843     0.0097 C.ar    
   2 C2             0.0021    -0.0041     0.0020 C.ar    
   3 C3             1.1981    -0.6869    -0.0126 C.ar    
   4 C4             2.4017     0.0227    -0.0203 C.ar    
   5 C5             2.3766     1.4277    -0.0129 C.ar    
   6 C6             1.1621     2.0990     0.0022 C.ar    
   7 N7             3.7074    -0.3497    -0.0343 N.2     
   8 C8             4.4642     0.7087    -0.0360 C.2     
   9 N9             3.6973     1.8320    -0.0232 N.pl3   
  10 C10            5.9711     0.6924    -0.0507 C.3     
  11 C11            6.4834    -0.1472     1.1213 C.3     
  12 C12            6.0609    -1.6049     0.9276 C.3     
  13 C13            7.9869    -0.0635     1.1798 C.ar    
  14 C14            8.6075     0.4409     2.3075 C.ar    
  15 C15            9.9864     0.5180     2.3617 C.ar    
  16 C16           10.7457     0.0901     1.2872 C.ar    
  17 C17           10.1240    -0.4147     0.1589 C.ar    
  18 C18            8.7452    -0.4964     0.1081 C.ar    
  19 Cl19          12.4776     0.1870     1.3544 Cl      
  20 Cl20          -1.4932    -0.8859     0.0115 Cl      
  21 C21            6.4581    -2.4083     2.1391 C.2     
  22 O22            7.0213    -1.8702     3.0628 O.2     
  23 O23            6.1862    -3.7217     2.1921 O.3     
  24 H24           -0.9613     1.9079     0.0170 H       
  25 H25            1.2056    -1.7668    -0.0177 H       
  26 H26            1.1405     3.1787     0.0075 H       
  27 H27            4.0184     2.7474    -0.0219 H       
  28 H28            6.3207     0.2594    -0.9879 H       
  29 H29            6.3464     1.7116     0.0411 H       
  30 H30            6.0618     0.2326     2.0520 H       
  31 H31            4.9800    -1.6555     0.7964 H       
  32 H32            6.5535    -2.0116     0.0444 H       
  33 H33            8.0147     0.7752     3.1460 H       
  34 H34           10.4711     0.9124     3.2426 H       
  35 H35           10.7162    -0.7488    -0.6801 H       
  36 H36            8.2598    -0.8904    -0.7726 H       
  37 H37            6.4602    -4.1949     2.9897 H       
@<TRIPOS>BOND
   1    1    2 ar
   2    1    6 ar
   3    1   24 1
   4    2    3 ar
   5    2   20 1
   6    3    4 ar
   7    3   25 1
   8    4    5 ar
   9    4    7 1
  10    5    6 ar
  11    5    9 1
  12    6   26 1
  13    7    8 2
  14    8    9 1
  15    8   10 1
  16    9   27 1
  17   10   11 1
  18   10   28 1
  19   10   29 1
  20   11   12 1
  21   11   13 1
  22   11   30 1
  23   12   21 1
  24   12   31 1
  25   12   32 1
  26   13   14 ar
  27   13   18 ar
  28   14   15 ar
  29   14   33 1
  30   15   16 ar
  31   15   34 1
  32   16   17 ar
  33   16   19 1
  34   17   18 ar
  35   17   35 1
  36   18   36 1
  37   21   22 2
  38   21   23 1
  39   23   37 1

#	End of record

