#	Name: ASD01948194
#	Creating user name:	WinNT
#	Creation time:	15. 06. 2019 20:13

#	Modifying user name:	WinNT
#	Modification time:	15. 06. 2019 20:13

#	Program:	/corina/corina34_cracker 3.40 0067  02.08.2006

@<TRIPOS>MOLECULE
ASD01948194
  76   81    0    0    0
SMALL
NO_CHARGES


@<TRIPOS>ATOM
   1 C1             5.2974     1.6781    -3.2628 C.ar    
   2 C2             5.9077     2.8861    -2.8901 C.ar    
   3 C3             5.6849     3.4262    -1.6213 C.ar    
   4 C4             4.8604     2.7672    -0.7317 C.ar    
   5 C5             4.2524     1.5676    -1.0962 C.ar    
   6 C6             4.4711     1.0205    -2.3546 C.ar    
   7 F7             4.6427     3.2867     0.4963 F       
   8 O8             5.6893     1.4037    -4.5250 O.3     
   9 C9             6.5141     2.3597    -4.9888 C.2     
  10 C10            6.6999     3.3016    -4.0546 C.2     
  11 F11            6.2744     4.5888    -1.2660 F       
  12 N12            3.8541    -0.1885    -2.7128 N.am    
  13 N13            3.4172     0.9053    -0.1847 N.pl3   
  14 C14            3.9308    -0.1177     0.6183 C.ar    
  15 C15            4.1432     0.1014     1.9760 C.ar    
  16 C16            4.2245    -1.3562     0.0641 C.ar    
  17 C17            4.7315    -2.3655     0.8602 C.ar    
  18 C18            4.9463    -2.1441     2.2082 C.ar    
  19 C19            4.6506    -0.9127     2.7663 C.ar    
  20 I20            5.7139    -3.6789     3.4100 I       
  21 F21            3.8543     1.3036     2.5206 F       
  22 C22            5.6155    -1.4712    -4.3814 C.3     
  23 C23            6.7635    -0.5762    -3.9105 C.3     
  24 C24            7.9389    -1.4474    -3.4630 C.3     
  25 O25            7.5574    -2.2096    -2.3160 O.3     
  26 C26            9.1298    -0.5546    -3.1090 C.3     
  27 O27           10.2932    -1.3635    -2.9239 O.3     
  28 C28            5.8927    -2.4199    -5.5494 C.3     
  29 C29            5.7440    -2.9752    -4.1315 C.3     
  30 C30            8.2772    -3.4349    -2.1667 C.3     
  31 C31            7.7014    -4.2187    -1.0155 C.ar    
  32 C32            6.6498    -5.0899    -1.2299 C.ar    
  33 C33            8.2285    -4.0707     0.2538 C.ar    
  34 C34            7.7003    -4.7896     1.3097 C.ar    
  35 C35            6.6447    -5.6563     1.0965 C.ar    
  36 C36            6.1216    -5.8088    -0.1739 C.ar    
  37 C37           11.4905    -0.6167    -2.6987 C.3     
  38 C38           12.6238    -1.5633    -2.3975 C.ar    
  39 C39           13.4650    -1.9795    -3.4124 C.ar    
  40 C40           14.5045    -2.8478    -3.1361 C.ar    
  41 C41           14.7031    -3.2996    -1.8449 C.ar    
  42 C42           13.8624    -2.8827    -0.8298 C.ar    
  43 C43           12.8256    -2.0109    -1.1053 C.ar    
  44 S44            3.9583    -0.7417    -4.2701 S.o2    
  45 O45            2.9623    -1.7520    -4.3505 O.2     
  46 O46            3.8762     0.4330    -5.0655 O.2     
  47 H47            6.9612     2.3670    -5.9718 H       
  48 H48            7.3098     4.1887    -4.1407 H       
  49 H49            3.3668    -0.6998    -2.0480 H       
  50 H50            2.4833     1.1569    -0.1114 H       
  51 H51            4.0566    -1.5308    -0.9883 H       
  52 H52            4.9600    -3.3289     0.4289 H       
  53 H53            4.8198    -0.7429     3.8194 H       
  54 H54            7.0807     0.0691    -4.7297 H       
  55 H55            6.4268     0.0369    -3.0745 H       
  56 H56            8.2188    -2.1229    -4.2714 H       
  57 H57            9.3054     0.1546    -3.9179 H       
  58 H58            8.9153    -0.0106    -2.1891 H       
  59 H59            5.0793    -2.6059    -6.2507 H       
  60 H60            6.8930    -2.4063    -5.9822 H       
  61 H61            6.6464    -3.3270    -3.6315 H       
  62 H62            4.8327    -3.5266    -3.8999 H       
  63 H63            8.1930    -4.0198    -3.0826 H       
  64 H64            9.3270    -3.2179    -1.9694 H       
  65 H65            6.2406    -5.2087    -2.2223 H       
  66 H66            9.0533    -3.3936     0.4204 H       
  67 H67            8.1126    -4.6745     2.3013 H       
  68 H68            6.2323    -6.2182     1.9214 H       
  69 H69            5.2969    -6.4860    -0.3406 H       
  70 H70           11.7294    -0.0357    -3.5895 H       
  71 H71           11.3453     0.0567    -1.8539 H       
  72 H72           13.3099    -1.6265    -4.4212 H       
  73 H73           15.1613    -3.1735    -3.9292 H       
  74 H74           15.5148    -3.9785    -1.6292 H       
  75 H75           14.0174    -3.2359     0.1790 H       
  76 H76           12.1688    -1.6852    -0.3122 H       
@<TRIPOS>BOND
   1    1    2 ar
   2    1    8 1
   3    1    6 ar
   4    2    3 ar
   5    2   10 1
   6    3    4 ar
   7    3   11 1
   8    4    5 ar
   9    4    7 1
  10    5    6 ar
  11    5   13 1
  12    6   12 1
  13    8    9 1
  14    9   10 2
  15    9   47 1
  16   10   48 1
  17   12   44 am
  18   12   49 1
  19   13   14 1
  20   13   50 1
  21   14   15 ar
  22   14   16 ar
  23   15   21 1
  24   15   19 ar
  25   16   17 ar
  26   16   51 1
  27   17   18 ar
  28   17   52 1
  29   18   19 ar
  30   18   20 1
  31   19   53 1
  32   22   23 1
  33   22   28 1
  34   22   44 1
  35   22   29 1
  36   23   24 1
  37   23   54 1
  38   23   55 1
  39   24   25 1
  40   24   26 1
  41   24   56 1
  42   25   30 1
  43   26   27 1
  44   26   57 1
  45   26   58 1
  46   27   37 1
  47   28   29 1
  48   28   59 1
  49   28   60 1
  50   29   61 1
  51   29   62 1
  52   30   31 1
  53   30   63 1
  54   30   64 1
  55   31   32 ar
  56   31   33 ar
  57   32   36 ar
  58   32   65 1
  59   33   34 ar
  60   33   66 1
  61   34   35 ar
  62   34   67 1
  63   35   36 ar
  64   35   68 1
  65   36   69 1
  66   37   38 1
  67   37   70 1
  68   37   71 1
  69   38   39 ar
  70   38   43 ar
  71   39   40 ar
  72   39   72 1
  73   40   41 ar
  74   40   73 1
  75   41   42 ar
  76   41   74 1
  77   42   43 ar
  78   42   75 1
  79   43   76 1
  80   44   45 2
  81   44   46 2

#	End of record

