#	Name: ASD03330265
#	Creating user name:	WinNT
#	Creation time:	15. 06. 2019 20:36

#	Modifying user name:	WinNT
#	Modification time:	15. 06. 2019 20:36

#	Program:	/corina/corina34_cracker 3.40 0067  02.08.2006

@<TRIPOS>MOLECULE
ASD03330265
  62   64    0    0    0
SMALL
NO_CHARGES


@<TRIPOS>ATOM
   1 C1             0.0498     1.4548     0.1024 C.3     
   2 N2            -0.0181     0.0058    -0.1339 N.3     
   3 C3             0.1979    -0.3121    -1.5570 C.3     
   4 C4             1.4419     0.4070    -2.0112 C.2     
   5 N5             2.0213     1.4223    -1.3185 N.pl3   
   6 C6             1.4975     1.9387    -0.0507 C.3     
   7 C7             2.1874     0.2038    -3.1261 C.2     
   8 N8             3.2100     1.0890    -3.1029 N.2     
   9 C9             3.1153     1.8238    -2.0173 C.2     
  10 C10            4.0438     2.9061    -1.6226 C.ar    
  11 C11            4.9383     3.4356    -2.5530 C.ar    
  12 C12            1.9298    -0.8002    -4.1736 C.2     
  13 O13            0.9718    -1.5437    -4.0809 O.2     
  14 C14            2.4997    -1.8926    -6.2757 C.3     
  15 N15            2.7558    -0.8945    -5.2344 N.am    
  16 C16            5.8013     4.4451    -2.1788 C.ar    
  17 C17            5.7807     4.9322    -0.8841 C.ar    
  18 C18            4.8959     4.4113     0.0432 C.ar    
  19 C19            4.0243     3.4053    -0.3200 C.ar    
  20 C20            3.8101    -2.2350    -6.9874 C.3     
  21 C21            1.5016    -1.3282    -7.2887 C.3     
  22 C22            4.8082    -2.7995    -5.9744 C.3     
  23 C23            3.5426    -3.2774    -8.0749 C.3     
  24 C24            4.3900    -0.9706    -7.6244 C.3     
  25 C25           -1.2942    -0.5458     0.3409 C.3     
  26 C26           -1.3695    -2.0328    -0.0111 C.3     
  27 C27           -0.2769    -2.7917     0.7447 C.3     
  28 C28           -2.7408    -2.5823     0.3872 C.3     
  29 H29           -0.5828     1.9698    -0.6205 H       
  30 H30           -0.3010     1.6743     1.1107 H       
  31 H31            0.3288    -1.3874    -1.6785 H       
  32 H32           -0.6570     0.0242    -2.1435 H       
  33 H33            1.5221     3.0284    -0.0593 H       
  34 H34            2.1002     1.5632     0.7763 H       
  35 H35            4.9556     3.0560    -3.5639 H       
  36 H36            2.0865    -2.7934    -5.8219 H       
  37 H37            3.5199    -0.3015    -5.3084 H       
  38 H38            6.4945     4.8557    -2.8980 H       
  39 H39            6.4583     5.7222    -0.5960 H       
  40 H40            4.8847     4.7958     1.0524 H       
  41 H41            3.3341     2.9994     0.4048 H       
  42 H42            1.9147    -0.4274    -7.7426 H       
  43 H43            1.3110    -2.0708    -8.0635 H       
  44 H44            0.5680    -1.0842    -6.7818 H       
  45 H45            4.3950    -3.7003    -5.5205 H       
  46 H46            5.7417    -3.0434    -6.4813 H       
  47 H47            4.9987    -2.0569    -5.1996 H       
  48 H48            2.8316    -2.8753    -8.7966 H       
  49 H49            4.4762    -3.5213    -8.5819 H       
  50 H50            3.1295    -4.1782    -7.6211 H       
  51 H51            4.5805    -0.2280    -6.8496 H       
  52 H52            5.3236    -1.2145    -8.1314 H       
  53 H53            3.6789    -0.5684    -8.3461 H       
  54 H54           -1.3627    -0.4243     1.4219 H       
  55 H55           -2.1188    -0.0170    -0.1372 H       
  56 H56           -1.2247    -2.1601    -1.0839 H       
  57 H57           -0.3731    -3.8594     0.5472 H       
  58 H58            0.7020    -2.4473     0.4109 H       
  59 H59           -0.3811    -2.6092     1.8142 H       
  60 H60           -3.5192    -2.0417    -0.1512 H       
  61 H61           -2.7944    -3.6418     0.1365 H       
  62 H62           -2.8856    -2.4551     1.4600 H       
@<TRIPOS>BOND
   1    1    2 1
   2    1    6 1
   3    1   29 1
   4    1   30 1
   5    2    3 1
   6    2   25 1
   7    3    4 1
   8    3   31 1
   9    3   32 1
  10    4    5 1
  11    4    7 2
  12    5    6 1
  13    5    9 1
  14    6   33 1
  15    6   34 1
  16    7    8 1
  17    7   12 1
  18    8    9 2
  19    9   10 1
  20   10   11 ar
  21   10   19 ar
  22   11   16 ar
  23   11   35 1
  24   12   13 2
  25   12   15 am
  26   14   15 1
  27   14   21 1
  28   14   20 1
  29   14   36 1
  30   15   37 1
  31   16   17 ar
  32   16   38 1
  33   17   18 ar
  34   17   39 1
  35   18   19 ar
  36   18   40 1
  37   19   41 1
  38   20   22 1
  39   20   23 1
  40   20   24 1
  41   21   42 1
  42   21   43 1
  43   21   44 1
  44   22   45 1
  45   22   46 1
  46   22   47 1
  47   23   48 1
  48   23   49 1
  49   23   50 1
  50   24   51 1
  51   24   52 1
  52   24   53 1
  53   25   26 1
  54   25   54 1
  55   25   55 1
  56   26   27 1
  57   26   28 1
  58   26   56 1
  59   27   57 1
  60   27   58 1
  61   27   59 1
  62   28   60 1
  63   28   61 1
  64   28   62 1

#	End of record

