#	Name: ASD05323013
#	Creating user name:	WinNT
#	Creation time:	15. 06. 2019 20:59

#	Modifying user name:	WinNT
#	Modification time:	15. 06. 2019 20:59

#	Program:	/corina/corina34_cracker 3.40 0067  02.08.2006

@<TRIPOS>MOLECULE
ASD05323013
  50   52    0    0    0
SMALL
NO_CHARGES


@<TRIPOS>ATOM
   1 C1             0.0602     1.4385    -0.0618 C.3     
   2 C2             0.0380    -0.0911    -0.0354 C.3     
   3 P3             1.7875     2.0207    -0.0931 P.3     
   4 O4             2.4840     1.5607    -1.4699 O.3     
   5 O5             1.8144     3.6271     0.0113 O.3     
   6 O6             2.5248     1.4395     1.0510 O.2     
   7 O7            -2.0762    -0.2491    -1.2480 O.3     
   8 C8            -1.4116    -0.5797    -0.0091 C.3     
   9 C9            -1.4580    -2.1221     0.0643 C.3     
  10 C10           -2.6646    -2.5040    -0.8220 C.3     
  11 C11           -3.2045    -1.1472    -1.3260 C.3     
  12 O12           -3.6577    -3.1826    -0.0504 O.3     
  13 O13           -1.6690    -2.5532     1.4103 O.3     
  14 C14           -2.7908    -1.6023    -3.6702 C.2     
  15 N15           -3.1576    -1.7256    -4.9577 N.am    
  16 C16           -4.4380    -1.5098    -5.3258 C.2     
  17 C17           -5.4161    -1.1392    -4.2905 C.2     
  18 C18           -4.9806    -1.0302    -2.9979 C.2     
  19 N19           -3.6676    -1.2652    -2.7108 N.am    
  20 C20           -6.8254    -0.8920    -4.6364 C.2     
  21 C21           -7.2102    -0.8867    -5.9238 C.2     
  22 C22           -8.6398    -0.7814    -6.2650 C.ar    
  23 C23           -9.0439    -0.7756    -7.6029 C.ar    
  24 C24          -10.3837    -0.6768    -7.9145 C.ar    
  25 C25          -11.3270    -0.5836    -6.9063 C.ar    
  26 C26          -10.9345    -0.5887    -5.5793 C.ar    
  27 C27           -9.5988    -0.6927    -5.2522 C.ar    
  28 O28           -4.7766    -1.6190    -6.4896 O.2     
  29 O29           -1.6319    -1.8069    -3.3647 O.2     
  30 H30           -0.4592     1.7941    -0.9517 H       
  31 H31           -0.4372     1.8246     0.8279 H       
  32 H32            0.5355    -0.4771    -0.9251 H       
  33 H33            0.5575    -0.4467     0.8545 H       
  34 H34            2.0522     1.9055    -2.2635 H       
  35 H35            2.7035     4.0071     0.0005 H       
  36 H36           -1.9447    -0.1434     0.8357 H       
  37 H37           -0.5393    -2.5512    -0.3357 H       
  38 H38           -2.3425    -3.1219    -1.6601 H       
  39 H39           -4.0126    -0.7979    -0.6832 H       
  40 H40           -3.3525    -4.0126     0.3408 H       
  41 H41           -1.7066    -3.5139     1.5142 H       
  42 H42           -2.4984    -1.9707    -5.6257 H       
  43 H43           -5.6701    -0.7598    -2.2118 H       
  44 H44           -7.5500    -0.7148    -3.8554 H       
  45 H45           -6.4717    -0.9595    -6.7085 H       
  46 H46           -8.3087    -0.8480    -8.3908 H       
  47 H47          -10.6974    -0.6718    -8.9479 H       
  48 H48          -12.3748    -0.5060    -7.1564 H       
  49 H49          -11.6764    -0.5156    -4.7979 H       
  50 H50           -9.2942    -0.7015    -4.2160 H       
@<TRIPOS>BOND
   1    1    2 1
   2    1    3 1
   3    1   30 1
   4    1   31 1
   5    2    8 1
   6    2   32 1
   7    2   33 1
   8    3    4 1
   9    3    5 1
  10    3    6 2
  11    4   34 1
  12    5   35 1
  13    7    8 1
  14    7   11 1
  15    8    9 1
  16    8   36 1
  17    9   10 1
  18    9   13 1
  19    9   37 1
  20   10   11 1
  21   10   12 1
  22   10   38 1
  23   11   19 1
  24   11   39 1
  25   12   40 1
  26   13   41 1
  27   14   15 am
  28   14   19 am
  29   14   29 2
  30   15   16 am
  31   15   42 1
  32   16   17 1
  33   16   28 2
  34   17   18 2
  35   17   20 1
  36   18   19 1
  37   18   43 1
  38   20   21 2
  39   20   44 1
  40   21   22 1
  41   21   45 1
  42   22   23 ar
  43   22   27 ar
  44   23   24 ar
  45   23   46 1
  46   24   25 ar
  47   24   47 1
  48   25   26 ar
  49   25   48 1
  50   26   27 ar
  51   26   49 1
  52   27   50 1

#	End of record

