#	Name: ASD07300351
#	Creating user name:	WinNT
#	Creation time:	15. 06. 2019 21:09

#	Modifying user name:	WinNT
#	Modification time:	15. 06. 2019 21:09

#	Program:	/corina/corina34_cracker 3.40 0067  02.08.2006

@<TRIPOS>MOLECULE
ASD07300351
  48   51    0    0    0
SMALL
NO_CHARGES


@<TRIPOS>ATOM
   1 C1            -0.0169     1.3941     0.0097 C.ar    
   2 C2             0.0021    -0.0041     0.0020 C.ar    
   3 C3             1.2199    -0.6674    -0.0136 C.ar    
   4 C4             2.3808     0.0923    -0.0210 C.ar    
   5 C5             2.2878     1.4713    -0.0127 C.ar    
   6 N6             1.1161     2.0768     0.0026 N.ar    
   7 C7            -2.1139     0.6622     0.0347 C.2     
   8 N8            -1.3542     1.7734     0.0301 N.am    
   9 N9            -1.3234    -0.4279     0.0129 N.am    
  10 O10           -3.3304     0.6453     0.0517 O.2     
  11 C11            3.7298    -0.5793    -0.0375 C.3     
  12 C12           -1.7801    -1.8199     0.0099 C.3     
  13 C13           -1.9248    -2.3122     1.4513 C.3     
  14 C14           -1.8317     3.0925     0.0437 C.ar    
  15 C15           -3.1983     3.3361     0.0638 C.ar    
  16 C16           -3.6677     4.6347     0.0777 C.ar    
  17 C17           -2.7741     5.6957     0.0715 C.ar    
  18 C18           -1.4084     5.4528     0.0509 C.ar    
  19 C19           -0.9378     4.1546     0.0429 C.ar    
  20 O20           -3.2368     6.9741     0.0851 O.3     
  21 C21           -2.2605     8.0176     0.0777 C.3     
  22 C22           -2.9547     9.3551     0.0948 C.ar    
  23 C23           -3.2566     9.9617     1.2997 C.ar    
  24 C24           -3.8934    11.1885     1.3155 C.ar    
  25 C25           -4.2278    11.8090     0.1263 C.ar    
  26 C26           -3.9250    11.2028    -1.0786 C.ar    
  27 C27           -3.2844     9.9780    -1.0944 C.ar    
  28 H28            1.2635    -1.7465    -0.0195 H       
  29 H29            3.1908     2.0638    -0.0181 H       
  30 H30            4.0450    -0.7361    -1.0690 H       
  31 H31            4.4567     0.0528     0.4725 H       
  32 H32            3.6633    -1.5405     0.4722 H       
  33 H33           -2.7440    -1.8851    -0.4947 H       
  34 H34           -1.0528    -2.4398    -0.5144 H       
  35 H35           -0.9608    -2.2471     1.9560 H       
  36 H36           -2.6520    -1.6924     1.9757 H       
  37 H37           -2.2645    -3.3479     1.4492 H       
  38 H38           -3.8941     2.5102     0.0683 H       
  39 H39           -4.7308     4.8243     0.0929 H       
  40 H40           -0.7131     6.2792     0.0454 H       
  41 H41            0.1255     3.9656     0.0317 H       
  42 H42           -1.6250     7.9268     0.9586 H       
  43 H43           -1.6493     7.9369    -0.8212 H       
  44 H44           -2.9954     9.4769     2.2288 H       
  45 H45           -4.1300    11.6621     2.2568 H       
  46 H46           -4.7259    12.7672     0.1386 H       
  47 H47           -4.1866    11.6874    -2.0077 H       
  48 H48           -3.0445     9.5061    -2.0357 H       
@<TRIPOS>BOND
   1    1    2 ar
   2    1    6 ar
   3    1    8 1
   4    2    3 ar
   5    2    9 1
   6    3    4 ar
   7    3   28 1
   8    4    5 ar
   9    4   11 1
  10    5    6 ar
  11    5   29 1
  12    7    8 am
  13    7    9 am
  14    7   10 2
  15    8   14 1
  16    9   12 1
  17   11   30 1
  18   11   31 1
  19   11   32 1
  20   12   13 1
  21   12   33 1
  22   12   34 1
  23   13   35 1
  24   13   36 1
  25   13   37 1
  26   14   15 ar
  27   14   19 ar
  28   15   16 ar
  29   15   38 1
  30   16   17 ar
  31   16   39 1
  32   17   18 ar
  33   17   20 1
  34   18   19 ar
  35   18   40 1
  36   19   41 1
  37   20   21 1
  38   21   22 1
  39   21   42 1
  40   21   43 1
  41   22   23 ar
  42   22   27 ar
  43   23   24 ar
  44   23   44 1
  45   24   25 ar
  46   24   45 1
  47   25   26 ar
  48   25   46 1
  49   26   27 ar
  50   26   47 1
  51   27   48 1

#	End of record

