#	Name: ASD05720202
#	Creating user name:	WinNT
#	Creation time:	15. 06. 2019 21:02

#	Modifying user name:	WinNT
#	Modification time:	15. 06. 2019 21:02

#	Program:	/corina/corina34_cracker 3.40 0067  02.08.2006

@<TRIPOS>MOLECULE
ASD05720202
  60   64    0    0    0
SMALL
NO_CHARGES


@<TRIPOS>ATOM
   1 C1             0.5116     1.0240     1.1162 C.2     
   2 N2             0.4120    -0.2388     0.6810 N.am    
   3 C3             1.6581    -0.6134    -0.0042 C.3     
   4 C4             2.5297     0.6535     0.0959 C.3     
   5 N5             1.6822     1.6074     0.8269 N.am    
   6 O6            -0.3815     1.5912     1.7150 O.2     
   7 C7             2.0584     2.9779     1.1823 C.3     
   8 C8             2.7345     2.9815     2.5548 C.3     
   9 O9             3.9650     2.2586     2.4816 O.3     
  10 C10            4.6799     2.2014     3.7176 C.3     
  11 C11            1.3822    -0.9611    -1.4684 C.3     
  12 C12            0.5228    -2.2250    -1.5393 C.3     
  13 C13            0.6403     0.1981    -2.1368 C.3     
  14 C14           -1.6779    -3.1430     0.6622 C.2     
  15 N15           -0.6244    -2.3356     0.5058 N.2     
  16 C16           -0.6923    -1.0633     0.8500 C.2     
  17 C17           -1.8854    -0.5410     1.3896 C.2     
  18 C18           -2.9533    -1.3554     1.5492 C.2     
  19 N19           -2.8524    -2.6688     1.1834 N.pl3   
  20 N20           -3.7638    -3.7298     1.2267 N.2     
  21 C21           -3.1919    -4.8114     0.7580 C.2     
  22 C22           -1.8788    -4.5016     0.3820 C.2     
  23 C23           -0.8887    -5.4340    -0.2004 C.ar    
  24 C24           -0.6496    -6.6682     0.4083 C.ar    
  25 C25            0.2709    -7.5358    -0.1334 C.ar    
  26 C26            0.9664    -7.1821    -1.2924 C.ar    
  27 C27            0.7270    -5.9475    -1.9011 C.ar    
  28 C28           -0.1975    -5.0825    -1.3620 C.ar    
  29 C29            1.9551    -8.1133    -1.8740 C.2     
  30 N30            2.2694    -9.2986    -1.3985 N.2     
  31 C31            3.1998    -9.8561    -2.1824 C.2     
  32 C32            3.4827    -8.9985    -3.1835 C.2     
  33 N33            2.6944    -7.8933    -2.9999 N.pl3   
  34 H34            2.1381    -1.4493     0.5046 H       
  35 H35            3.4426     0.4467     0.6545 H       
  36 H36            2.7659     1.0348    -0.8975 H       
  37 H37            2.7492     3.3702     0.4360 H       
  38 H38            1.1659     3.6027     1.2153 H       
  39 H39            2.9343     4.0091     2.8587 H       
  40 H40            2.0778     2.5080     3.2846 H       
  41 H41            4.0636     1.7117     4.4715 H       
  42 H42            5.6014     1.6361     3.5785 H       
  43 H43            4.9201     3.2128     4.0456 H       
  44 H44            2.3263    -1.1342    -1.9849 H       
  45 H45            0.9406    -2.9858    -0.8799 H       
  46 H46           -0.4944    -1.9908    -1.2253 H       
  47 H47            0.5101    -2.5987    -2.5631 H       
  48 H48            1.2525     1.0985    -2.0863 H       
  49 H49            0.4438    -0.0496    -3.1799 H       
  50 H50           -0.3038     0.3713    -1.6204 H       
  51 H51           -1.9460     0.4993     1.6731 H       
  52 H52           -3.8753    -0.9725     1.9613 H       
  53 H53           -3.6578    -5.7819     0.6720 H       
  54 H54           -1.1869    -6.9414     1.3044 H       
  55 H55            0.4560    -8.4899     0.3375 H       
  56 H56            1.2647    -5.6737    -2.7968 H       
  57 H57           -0.3858    -4.1300    -1.8350 H       
  58 H58            3.6482   -10.8279    -2.0375 H       
  59 H59            4.1931    -9.1551    -3.9818 H       
  60 H60            2.6681    -7.1034    -3.5623 H       
@<TRIPOS>BOND
   1    1    2 am
   2    1    5 am
   3    1    6 2
   4    2    3 1
   5    2   16 1
   6    3    4 1
   7    3   11 1
   8    3   34 1
   9    4    5 1
  10    4   35 1
  11    4   36 1
  12    5    7 1
  13    7    8 1
  14    7   37 1
  15    7   38 1
  16    8    9 1
  17    8   39 1
  18    8   40 1
  19    9   10 1
  20   10   41 1
  21   10   42 1
  22   10   43 1
  23   11   12 1
  24   11   13 1
  25   11   44 1
  26   12   45 1
  27   12   46 1
  28   12   47 1
  29   13   48 1
  30   13   49 1
  31   13   50 1
  32   14   15 1
  33   14   19 1
  34   14   22 2
  35   15   16 2
  36   16   17 1
  37   17   18 2
  38   17   51 1
  39   18   19 1
  40   18   52 1
  41   19   20 1
  42   20   21 2
  43   21   22 1
  44   21   53 1
  45   22   23 1
  46   23   24 ar
  47   23   28 ar
  48   24   25 ar
  49   24   54 1
  50   25   26 ar
  51   25   55 1
  52   26   27 ar
  53   26   29 1
  54   27   28 ar
  55   27   56 1
  56   28   57 1
  57   29   30 2
  58   29   33 1
  59   30   31 1
  60   31   32 2
  61   31   58 1
  62   32   33 1
  63   32   59 1
  64   33   60 1

#	End of record

