#	Name: ASD06340001
#	Creating user name:	WinNT
#	Creation time:	15. 06. 2019 21:05

#	Modifying user name:	WinNT
#	Modification time:	15. 06. 2019 21:05

#	Program:	/corina/corina34_cracker 3.40 0067  02.08.2006

@<TRIPOS>MOLECULE
ASD06340001
  35   37    0    0    0
SMALL
NO_CHARGES


@<TRIPOS>ATOM
   1 S1            -0.0210     1.6939     0.0114 S.3     
   2 N2             0.0021    -0.0041     0.0020 N.am    
   3 C3             1.2962    -0.3594    -0.0122 C.2     
   4 N4             2.1856     0.6226    -0.0155 N.am    
   5 C5             1.6912     1.8721    -0.0040 C.2     
   6 O6             1.6365    -1.5276    -0.0214 O.2     
   7 O7             2.3224     2.9128    -0.0052 O.2     
   8 C8            -1.1035    -0.8590     0.0084 C.ar    
   9 C9            -2.3257    -0.4204    -0.4857 C.ar    
  10 C10           -3.4161    -1.2678    -0.4779 C.ar    
  11 C11           -3.2926    -2.5515     0.0215 C.ar    
  12 C12           -2.0775    -2.9914     0.5141 C.ar    
  13 C13           -0.9815    -2.1513     0.5036 C.ar    
  14 C14           -4.4850    -3.4730     0.0293 C.3     
  15 C15            3.6269     0.3610    -0.0302 C.3     
  16 C16            4.1080     0.2785    -1.4559 C.ar    
  17 C17            4.5424     1.4190    -2.1053 C.ar    
  18 C18            4.9842     1.3446    -3.4127 C.ar    
  19 C19            4.9917     0.1271    -4.0721 C.ar    
  20 C20            4.5563    -1.0145    -3.4206 C.ar    
  21 C21            4.1199    -0.9385    -2.1116 C.ar    
  22 F22            5.4229     0.0532    -5.3503 F       
  23 H23           -2.4230     0.5822    -0.8752 H       
  24 H24           -4.3664    -0.9275    -0.8618 H       
  25 H25           -1.9847    -3.9944     0.9037 H       
  26 H26           -0.0317    -2.4971     0.8840 H       
  27 H27           -4.5164    -4.0346    -0.9044 H       
  28 H28           -4.4035    -4.1655     0.8672 H       
  29 H29           -5.3975    -2.8856     0.1309 H       
  30 H30            4.1482     1.1691     0.4830 H       
  31 H31            3.8302    -0.5822     0.4770 H       
  32 H32            4.5362     2.3686    -1.5909 H       
  33 H33            5.3232     2.2357    -3.9199 H       
  34 H34            4.5617    -1.9647    -3.9340 H       
  35 H35            3.7842    -1.8295    -1.6019 H       
@<TRIPOS>BOND
   1    1    2 1
   2    1    5 1
   3    2    3 am
   4    2    8 1
   5    3    4 am
   6    3    6 2
   7    4    5 am
   8    4   15 1
   9    5    7 2
  10    8    9 ar
  11    8   13 ar
  12    9   10 ar
  13    9   23 1
  14   10   11 ar
  15   10   24 1
  16   11   12 ar
  17   11   14 1
  18   12   13 ar
  19   12   25 1
  20   13   26 1
  21   14   27 1
  22   14   28 1
  23   14   29 1
  24   15   16 1
  25   15   30 1
  26   15   31 1
  27   16   17 ar
  28   16   21 ar
  29   17   18 ar
  30   17   32 1
  31   18   19 ar
  32   18   33 1
  33   19   20 ar
  34   19   22 1
  35   20   21 ar
  36   20   34 1
  37   21   35 1

#	End of record

