#	Name: ASD07300518
#	Creating user name:	WinNT
#	Creation time:	15. 06. 2019 21:09

#	Modifying user name:	WinNT
#	Modification time:	15. 06. 2019 21:09

#	Program:	/corina/corina34_cracker 3.40 0067  02.08.2006

@<TRIPOS>MOLECULE
ASD07300518
  44   48    0    0    0
SMALL
NO_CHARGES


@<TRIPOS>ATOM
   1 C1            -0.2804     1.4629    -0.5232 C.ar    
   2 C2            -0.0950     0.0840    -0.5448 C.ar    
   3 C3             1.0470    -0.4319    -1.1299 C.ar    
   4 C4             1.9690     0.4516    -1.6761 C.ar    
   5 C5             1.7210     1.8084    -1.6196 C.ar    
   6 N6             0.6225     2.2726    -1.0548 N.ar    
   7 N7            -1.4268     1.9950     0.0567 N.pl3   
   8 N8            -1.1059    -0.8183     0.0509 N.pl3   
   9 O9            -0.9943    -2.0248    -0.0738 O.2     
  10 O10           -2.0495    -0.3544     0.6658 O.2     
  11 C11           -1.5630     3.3817     0.1937 C.ar    
  12 C12           -2.8189     3.9681     0.1059 C.ar    
  13 C13           -2.9532     5.3355     0.2414 C.ar    
  14 C14           -1.8325     6.1245     0.4650 C.ar    
  15 C15           -0.5765     5.5382     0.5524 C.ar    
  16 C16           -0.4429     4.1702     0.4230 C.ar    
  17 C17           -3.1605     8.2096     0.5349 C.2     
  18 N18           -4.4464     7.9662     0.3514 N.2     
  19 C19           -5.1454     9.1280     0.3882 C.ar    
  20 C20           -4.2194    10.1595     0.6107 C.ar    
  21 N21           -2.9783     9.5481     0.6984 N.pl3   
  22 C22           -6.5012     9.4389     0.2542 C.ar    
  23 C23           -6.9138    10.7499     0.3415 C.ar    
  24 C24           -5.9943    11.7644     0.5609 C.ar    
  25 C25           -4.6518    11.4736     0.6962 C.ar    
  26 N26           -1.9687     7.5116     0.6020 N.pl3   
  27 C27           -0.8697     8.4537     0.8400 C.3     
  28 C28           -1.5509     9.8312     0.9030 C.3     
  29 H29            1.2181    -1.4978    -1.1611 H       
  30 H30            2.8711     0.0809    -2.1400 H       
  31 H31            2.4355     2.4989    -2.0428 H       
  32 H32           -2.1321     1.4055     0.3664 H       
  33 H33           -3.6904     3.3546    -0.0688 H       
  34 H34           -3.9298     5.7915     0.1731 H       
  35 H35            0.2951     6.1519     0.7256 H       
  36 H36            0.5332     3.7137     0.4958 H       
  37 H37           -7.2228     8.6539     0.0825 H       
  38 H38           -7.9617    10.9898     0.2380 H       
  39 H39           -6.3307    12.7885     0.6267 H       
  40 H40           -3.9403    12.2678     0.8676 H       
  41 H41           -0.3718     8.2273     1.7828 H       
  42 H42           -0.1573     8.4235     0.0156 H       
  43 H43           -1.1741    10.4776     0.1104 H       
  44 H44           -1.3905    10.2910     1.8782 H       
@<TRIPOS>BOND
   1    1    2 ar
   2    1    6 ar
   3    1    7 1
   4    2    3 ar
   5    2    8 1
   6    3    4 ar
   7    3   29 1
   8    4    5 ar
   9    4   30 1
  10    5    6 ar
  11    5   31 1
  12    7   11 1
  13    7   32 1
  14    8    9 2
  15    8   10 2
  16   11   12 ar
  17   11   16 ar
  18   12   13 ar
  19   12   33 1
  20   13   14 ar
  21   13   34 1
  22   14   15 ar
  23   14   26 1
  24   15   16 ar
  25   15   35 1
  26   16   36 1
  27   17   18 2
  28   17   21 1
  29   17   26 1
  30   18   19 1
  31   19   20 ar
  32   19   22 ar
  33   20   21 1
  34   20   25 ar
  35   21   28 1
  36   22   23 ar
  37   22   37 1
  38   23   24 ar
  39   23   38 1
  40   24   25 ar
  41   24   39 1
  42   25   40 1
  43   26   27 1
  44   27   28 1
  45   27   41 1
  46   27   42 1
  47   28   43 1
  48   28   44 1

#	End of record

