#	Name: ASD01811092
#	Creating user name:	WinNT
#	Creation time:	15. 06. 2019 19:26

#	Modifying user name:	WinNT
#	Modification time:	15. 06. 2019 19:26

#	Program:	/corina/corina34_cracker 3.40 0067  02.08.2006

@<TRIPOS>MOLECULE
ASD01811092
  45   48    0    0    0
SMALL
NO_CHARGES


@<TRIPOS>ATOM
   1 C1            -2.5008     1.2121     0.0175 C.2     
   2 C2            -2.3757    -0.1308     0.0129 C.2     
   3 N3            -1.1472    -0.7207     0.0090 N.pl3   
   4 C4            -0.0030    -0.0230     0.0111 C.2     
   5 C5            -0.0269     1.3575     0.0167 C.2     
   6 C6            -1.3374     2.0240     0.0245 C.2     
   7 C7            -1.0740    -2.1839     0.0027 C.3     
   8 C8            -0.9085    -2.6847     1.4144 C.ar    
   9 O9            -1.4221     3.2418     0.0287 O.2     
  10 C10            1.2207     2.1376     0.0200 C.2     
  11 O11            2.2940     1.5673     0.0178 O.2     
  12 O12            1.1732     3.4845     0.0254 O.3     
  13 C13           -2.0223    -2.8830     2.2102 C.ar    
  14 C14           -1.8764    -3.3415     3.5038 C.ar    
  15 C15           -0.6043    -3.6047     4.0077 C.ar    
  16 C16            0.5142    -3.4032     3.2016 C.ar    
  17 C17            0.3564    -2.9497     1.9076 C.ar    
  18 C18           -0.4412    -4.0974     5.3979 C.ar    
  19 C19            0.8309    -4.3606     5.9018 C.ar    
  20 C20            0.9768    -4.8187     7.1955 C.ar    
  21 C21           -0.1370    -5.0170     7.9914 C.ar    
  22 C22           -1.4022    -4.7578     7.4961 C.ar    
  23 C23           -1.5593    -4.2930     6.2061 C.ar    
  24 C24           -3.9612     1.6093     0.0203 C.3     
  25 C25           -4.7204     0.3388    -0.4192 C.3     
  26 C26           -3.7478    -0.7785     0.0141 C.3     
  27 H27            0.9433    -0.5436     0.0088 H       
  28 H28           -1.9912    -2.5917    -0.4223 H       
  29 H29           -0.2222    -2.5025    -0.5981 H       
  30 H30            2.0188     3.9536     0.0274 H       
  31 H31           -3.0078    -2.6783     1.8188 H       
  32 H32           -2.7467    -3.4957     4.1245 H       
  33 H33            1.5025    -3.6056     3.5871 H       
  34 H34            1.2226    -2.7932     1.2818 H       
  35 H35            1.7012    -4.2067     5.2810 H       
  36 H36            1.9624    -5.0230     7.5871 H       
  37 H37           -0.0183    -5.3760     9.0030 H       
  38 H38           -2.2685    -4.9147     8.1217 H       
  39 H39           -2.5476    -4.0906     5.8205 H       
  40 H40           -4.2707     1.9083     1.0218 H       
  41 H41           -4.1350     2.4189    -0.6885 H       
  42 H42           -5.6719     0.2523     0.1054 H       
  43 H43           -4.8700     0.3281    -1.4989 H       
  44 H44           -3.7775    -1.6033    -0.6979 H       
  45 H45           -3.9986    -1.1318     1.0143 H       
@<TRIPOS>BOND
   1    1    2 2
   2    1   24 1
   3    1    6 1
   4    2    3 1
   5    2   26 1
   6    3    4 1
   7    3    7 1
   8    4    5 2
   9    4   27 1
  10    5    6 1
  11    5   10 1
  12    6    9 2
  13    7    8 1
  14    7   28 1
  15    7   29 1
  16    8   13 ar
  17    8   17 ar
  18   10   11 2
  19   10   12 1
  20   12   30 1
  21   13   14 ar
  22   13   31 1
  23   14   15 ar
  24   14   32 1
  25   15   16 ar
  26   15   18 1
  27   16   17 ar
  28   16   33 1
  29   17   34 1
  30   18   19 ar
  31   18   23 ar
  32   19   20 ar
  33   19   35 1
  34   20   21 ar
  35   20   36 1
  36   21   22 ar
  37   21   37 1
  38   22   23 ar
  39   22   38 1
  40   23   39 1
  41   24   25 1
  42   24   40 1
  43   24   41 1
  44   25   26 1
  45   25   42 1
  46   25   43 1
  47   26   44 1
  48   26   45 1

#	End of record

