#	Name: ASD01812640
#	Creating user name:	WinNT
#	Creation time:	15. 06. 2019 19:28

#	Modifying user name:	WinNT
#	Modification time:	15. 06. 2019 19:28

#	Program:	/corina/corina34_cracker 3.40 0067  02.08.2006

@<TRIPOS>MOLECULE
ASD01812640
  60   64    0    0    0
SMALL
NO_CHARGES


@<TRIPOS>ATOM
   1 O1            -0.0163     1.3523     0.0095 O.3     
   2 C2             0.0097     0.0100     0.2037 C.ar    
   3 C3             1.2216    -0.6601     0.2774 C.ar    
   4 C4             1.2502    -2.0266     0.4746 C.ar    
   5 C5             0.0680    -2.7399     0.6006 C.ar    
   6 C6            -1.1405    -2.0895     0.5297 C.ar    
   7 C7            -1.1882    -0.7059     0.3368 C.ar    
   8 C8            -2.5721    -2.5555     0.6243 C.3     
   9 N9            -3.4040    -1.3569     0.4672 N.am    
  10 C10           -2.6004    -0.2907     0.3104 C.2     
  11 C11           -4.8685    -1.3255     0.4906 C.3     
  12 O12           -2.9854     0.8519     0.1538 O.2     
  13 C13            1.2359     1.9974    -0.2310 C.3     
  14 C14            1.0015     3.2892    -1.0167 C.3     
  15 C15            0.1294     4.1849    -0.2395 C.1     
  16 C16            1.9045     2.3273     1.1050 C.3     
  17 C17            3.2453     3.0180     0.8476 C.3     
  18 C18            3.0109     4.3098     0.0619 C.3     
  19 C19            2.3423     3.9799    -1.2742 C.3     
  20 C20           -5.3438    -1.1118     1.9046 C.ar    
  21 C21           -5.6354     0.1687     2.3385 C.ar    
  22 C22           -6.0717     0.3602     3.6381 C.ar    
  23 C23           -6.2006    -0.7587     4.4657 C.ar    
  24 C24           -5.8869    -2.0155     3.9533 C.ar    
  25 N25           -5.4803    -2.1493     2.7073 N.ar    
  26 C26           -6.6638    -0.6102     5.8676 C.ar    
  27 N27           -0.5436     4.8761     0.3603 N.1     
  28 F28            1.0757     3.1786     1.8437 F       
  29 C29           -6.9803     0.6488     6.3896 C.ar    
  30 C30           -7.4076     0.7457     7.6963 C.ar    
  31 N31           -7.5201    -0.3285     8.4554 N.ar    
  32 C32           -7.2317    -1.5379     8.0033 C.ar    
  33 C33           -6.8006    -1.7228     6.6980 C.ar    
  34 O34           -7.3642    -2.6101     8.8243 O.3     
  35 C35           -7.8175    -2.3560    10.1554 C.3     
  36 H36            2.1466    -0.1112     0.1798 H       
  37 H37            2.1976    -2.5420     0.5306 H       
  38 H38            0.0970    -3.8085     0.7543 H       
  39 H39           -2.7875    -3.2682    -0.1717 H       
  40 H40           -2.7538    -3.0129     1.5969 H       
  41 H41           -5.2245    -0.5105    -0.1396 H       
  42 H42           -5.2582    -2.2718     0.1154 H       
  43 H43            1.8817     1.3342    -0.8065 H       
  44 H44            0.5252     3.0542    -1.9685 H       
  45 H45            2.0715     1.4071     1.6648 H       
  46 H46            3.7216     3.2530     1.7994 H       
  47 H47            3.8910     2.3548     0.2721 H       
  48 H48            2.3651     4.9730     0.6374 H       
  49 H49            3.9661     4.8018    -0.1216 H       
  50 H50            2.9880     3.3167    -1.8497 H       
  51 H51            2.1753     4.9002    -1.8339 H       
  52 H52           -5.5236     1.0101     1.6707 H       
  53 H53           -6.3061     1.3491     4.0034 H       
  54 H54           -5.9817    -2.8886     4.5820 H       
  55 H55           -6.8907     1.5334     5.7765 H       
  56 H56           -7.6535     1.7145     8.1054 H       
  57 H57           -6.5703    -2.7123     6.3315 H       
  58 H58           -7.8793    -3.2959    10.7039 H       
  59 H59           -7.1168    -1.6882    10.6566 H       
  60 H60           -8.8023    -1.8899    10.1211 H       
@<TRIPOS>BOND
   1    1    2 1
   2    1   13 1
   3    2    3 ar
   4    2    7 ar
   5    3    4 ar
   6    3   36 1
   7    4    5 ar
   8    4   37 1
   9    5    6 ar
  10    5   38 1
  11    6    8 1
  12    6    7 ar
  13    7   10 1
  14    8    9 1
  15    8   39 1
  16    8   40 1
  17    9   10 am
  18    9   11 1
  19   10   12 2
  20   11   20 1
  21   11   41 1
  22   11   42 1
  23   13   16 1
  24   13   14 1
  25   13   43 1
  26   14   15 1
  27   14   19 1
  28   14   44 1
  29   15   27 3
  30   16   17 1
  31   16   28 1
  32   16   45 1
  33   17   18 1
  34   17   46 1
  35   17   47 1
  36   18   19 1
  37   18   48 1
  38   18   49 1
  39   19   50 1
  40   19   51 1
  41   20   21 ar
  42   20   25 ar
  43   21   22 ar
  44   21   52 1
  45   22   23 ar
  46   22   53 1
  47   23   24 ar
  48   23   26 1
  49   24   25 ar
  50   24   54 1
  51   26   29 ar
  52   26   33 ar
  53   29   30 ar
  54   29   55 1
  55   30   31 ar
  56   30   56 1
  57   31   32 ar
  58   32   33 ar
  59   32   34 1
  60   33   57 1
  61   34   35 1
  62   35   58 1
  63   35   59 1
  64   35   60 1

#	End of record

