#	Name: ASD03090936
#	Creating user name:	WinNT
#	Creation time:	15. 06. 2019 20:29

#	Modifying user name:	WinNT
#	Modification time:	15. 06. 2019 20:29

#	Program:	/corina/corina34_cracker 3.40 0067  02.08.2006

@<TRIPOS>MOLECULE
ASD03090936
  35   37    0    0    0
SMALL
NO_CHARGES


@<TRIPOS>ATOM
   1 C1            -0.0183     1.5030     0.0798 C.2     
   2 C2             0.0022    -0.0037     0.0999 C.3     
   3 O3             1.0269     2.1255     0.0695 O.2     
   4 N4            -1.1762     2.1507     0.0678 N.2     
   5 S5             0.1650     4.5422     0.0393 S.3     
   6 C6            -1.1944     3.4850     0.0500 C.2     
   7 N7            -2.2863     4.2876     0.0362 N.pl3   
   8 C8            -2.0655     5.6297     0.0185 C.2     
   9 C9            -0.7996     6.0286     0.0165 C.2     
  10 O10           -7.4226     2.2197     0.0595 O.3     
  11 C11           -7.5957     0.8841    -0.4263 C.3     
  12 C12           -6.5099    -0.0001     0.2020 C.3     
  13 O13           -5.2320     0.5197    -0.1808 O.3     
  14 C14           -5.0599     1.8652    -0.0684 C.ar    
  15 C15           -6.1540     2.7151     0.0496 C.ar    
  16 C16           -3.7764     2.3883    -0.0719 C.ar    
  17 C17           -3.5847     3.7585     0.0394 C.ar    
  18 C18           -4.6790     4.6046     0.1544 C.ar    
  19 C19           -5.9586     4.0837     0.1594 C.ar    
  20 F20           -6.6306     0.0232     1.5956 F       
  21 F21           -6.6436    -1.3130    -0.2621 F       
  22 F22           -8.8601     0.4095    -0.0616 F       
  23 F23           -7.4689     0.8687    -1.8195 F       
  24 C24           -0.2900     7.4467    -0.0014 C.3     
  25 O25            0.4041     7.7188     1.2177 O.3     
  26 H26            0.0091    -0.3532     1.1323 H       
  27 H27           -0.8838    -0.3859    -0.4072 H       
  28 H28            0.8960    -0.3618    -0.4109 H       
  29 H29           -2.8815     6.3371     0.0064 H       
  30 H30           -2.9253     1.7295    -0.1612 H       
  31 H31           -4.5301     5.6709     0.2404 H       
  32 H32           -6.8086     4.7438     0.2487 H       
  33 H33            0.3895     7.5780    -0.8435 H       
  34 H34           -1.1304     8.1335    -0.1021 H       
  35 H35            0.7603     8.6160     1.2757 H       
@<TRIPOS>BOND
   1    1    2 1
   2    1    3 2
   3    1    4 1
   4    2   26 1
   5    2   27 1
   6    2   28 1
   7    4    6 2
   8    5    6 1
   9    5    9 1
  10    6    7 1
  11    7    8 1
  12    7   17 1
  13    8    9 2
  14    8   29 1
  15    9   24 1
  16   10   11 1
  17   10   15 1
  18   11   12 1
  19   11   22 1
  20   11   23 1
  21   12   13 1
  22   12   20 1
  23   12   21 1
  24   13   14 1
  25   14   15 ar
  26   14   16 ar
  27   15   19 ar
  28   16   17 ar
  29   16   30 1
  30   17   18 ar
  31   18   19 ar
  32   18   31 1
  33   19   32 1
  34   24   25 1
  35   24   33 1
  36   24   34 1
  37   25   35 1

#	End of record

