#	Name: ASD02500783
#	Creating user name:	WinNT
#	Creation time:	15. 06. 2019 20:23

#	Modifying user name:	WinNT
#	Modification time:	15. 06. 2019 20:23

#	Program:	/corina/corina34_cracker 3.40 0067  02.08.2006

@<TRIPOS>MOLECULE
ASD02500783
  51   54    0    0    0
SMALL
NO_CHARGES


@<TRIPOS>ATOM
   1 N1            -0.0179     1.4654     0.0101 N.am    
   2 C2             0.0021    -0.0041     0.0020 C.3     
   3 C3             0.8261    -0.4764    -1.2022 C.3     
   4 N4             2.1040     0.2493    -1.2105 N.am    
   5 C5             2.0841     1.7188    -1.2024 C.3     
   6 C6             1.2601     2.1912     0.0018 C.3     
   7 C7             0.6414    -0.5160     1.2943 C.3     
   8 S8            -1.4546     2.2888     0.0214 S.o2    
   9 O9            -1.1840     3.5755    -0.5173 O.2     
  10 O10           -2.4267     1.4070    -0.5232 O.2     
  11 O11           -2.9591     3.1084     5.6604 O.3     
  12 C12           -2.6024     2.9304     4.3590 C.ar    
  13 C13           -1.8259     3.8756     3.6985 C.ar    
  14 O14           -1.4003     4.9983     4.3395 O.3     
  15 C15           -2.0797     5.3437     5.5516 C.3     
  16 C16           -2.2116     4.0755     6.4060 C.3     
  17 C17           -1.4776     3.6762     2.3712 C.ar    
  18 C18           -1.8991     2.5390     1.7080 C.ar    
  19 C19           -2.6690     1.5981     2.3653 C.ar    
  20 C20           -3.0212     1.7916     3.6880 C.ar    
  21 S21            3.5407    -0.5740    -1.2281 S.o2    
  22 O22            4.5153     0.3081    -0.6883 O.2     
  23 O23            3.2726    -1.8605    -0.6876 O.2     
  24 C24            3.9775    -0.8248    -2.9166 C.ar    
  25 C25            4.7450     0.1164    -3.5807 C.ar    
  26 C26            5.0876    -0.0818    -4.9076 C.ar    
  27 C27            4.6635    -1.2188    -5.5690 C.ar    
  28 C28            3.8971    -2.1593    -4.9070 C.ar    
  29 C29            3.5580    -1.9659    -3.5783 C.ar    
  30 F30            2.8139    -2.8883    -2.9297 F       
  31 F31            5.1594     1.2281    -2.9345 F       
  32 H32           -1.0165    -0.3833    -0.0803 H       
  33 H33            1.0139    -1.5469    -1.1197 H       
  34 H34            0.2810    -0.2679    -2.1228 H       
  35 H35            3.1027     2.0980    -1.1201 H       
  36 H36            1.6286     2.0836    -2.1231 H       
  37 H37            1.0723     3.2617    -0.0807 H       
  38 H38            1.8051     1.9827     0.9224 H       
  39 H39            0.0627    -0.1665     2.1493 H       
  40 H40            0.6551    -1.6059     1.2859 H       
  41 H41            1.6620    -0.1405     1.3683 H       
  42 H42           -1.5049     6.0943     6.0941 H       
  43 H43           -3.0700     5.7353     5.3192 H       
  44 H44           -2.7350     4.3096     7.3330 H       
  45 H45           -1.2214     3.6799     6.6322 H       
  46 H46           -0.8763     4.4101     1.8552 H       
  47 H47           -2.9964     0.7103     1.8447 H       
  48 H48           -3.6229     1.0548     4.1994 H       
  49 H49            5.6862     0.6526    -5.4261 H       
  50 H50            4.9309    -1.3724    -6.6041 H       
  51 H51            3.5659    -3.0472    -5.4249 H       
@<TRIPOS>BOND
   1    1    2 1
   2    1    6 1
   3    1    8 am
   4    2    3 1
   5    2    7 1
   6    2   32 1
   7    3    4 1
   8    3   33 1
   9    3   34 1
  10    4    5 1
  11    4   21 am
  12    5    6 1
  13    5   35 1
  14    5   36 1
  15    6   37 1
  16    6   38 1
  17    7   39 1
  18    7   40 1
  19    7   41 1
  20    8    9 2
  21    8   10 2
  22    8   18 1
  23   11   12 1
  24   11   16 1
  25   12   13 ar
  26   12   20 ar
  27   13   14 1
  28   13   17 ar
  29   14   15 1
  30   15   16 1
  31   15   42 1
  32   15   43 1
  33   16   44 1
  34   16   45 1
  35   17   18 ar
  36   17   46 1
  37   18   19 ar
  38   19   20 ar
  39   19   47 1
  40   20   48 1
  41   21   22 2
  42   21   23 2
  43   21   24 1
  44   24   25 ar
  45   24   29 ar
  46   25   26 ar
  47   25   31 1
  48   26   27 ar
  49   26   49 1
  50   27   28 ar
  51   27   50 1
  52   28   29 ar
  53   28   51 1
  54   29   30 1

#	End of record

