#	Name: ASD01882792
#	Creating user name:	WinNT
#	Creation time:	15. 06. 2019 19:45

#	Modifying user name:	WinNT
#	Modification time:	15. 06. 2019 19:45

#	Program:	/corina/corina34_cracker 3.40 0067  02.08.2006

@<TRIPOS>MOLECULE
ASD01882792
  41   44    0    0    0
SMALL
NO_CHARGES


@<TRIPOS>ATOM
   1 C1            -0.1999     1.6051    -0.0802 C.2     
   2 C2             0.0031     0.2118    -0.1043 C.2     
   3 C3            -1.0665    -0.6176     0.0307 C.2     
   4 C4            -2.3533    -0.0757     0.1915 C.2     
   5 C5            -2.5326     1.2617     0.2122 C.2     
   6 N6            -1.4700     2.1050     0.0719 N.pl3   
   7 C7            -0.8726    -2.1119     0.0074 C.3     
   8 O8            -1.4580    -2.6865     1.1775 O.3     
   9 C9             1.3891    -0.3537    -0.2780 C.3     
  10 C10           -0.9912    -3.9023     1.5678 C.ar    
  11 C11           -1.5449    -2.6940    -1.2376 C.3     
  12 N12            0.6115     2.6450    -0.1830 N.2     
  13 N13           -0.0714     3.7323    -0.0985 N.2     
  14 C14           -1.3413     3.4595     0.0562 C.2     
  15 C15           -2.4583     4.4623     0.1900 C.3     
  16 F16            1.4117    -1.1986    -1.3928 F       
  17 F17            2.2991     0.6919    -0.4668 F       
  18 F18            1.7432    -1.0795     0.8644 F       
  19 C19           -2.3936     5.4391     1.3658 C.3     
  20 C20           -2.1196     5.9339    -0.0559 C.3     
  21 C21           -1.5498    -4.5416     2.6668 C.ar    
  22 C22           -1.0720    -5.7803     3.0611 C.ar    
  23 C23           -0.0388    -6.3790     2.3596 C.ar    
  24 C24            0.5170    -5.7420     1.2662 C.ar    
  25 C25            0.0395    -4.5084     0.8656 C.ar    
  26 F26           -1.6133    -6.4042     4.1302 F       
  27 F27           -2.5573    -3.9561     3.3504 F       
  28 H28           -3.2034    -0.7332     0.2987 H       
  29 H29           -3.5259     1.6674     0.3359 H       
  30 H30            0.1931    -2.3396    -0.0151 H       
  31 H31           -1.0984    -2.2558    -2.1302 H       
  32 H32           -1.4046    -3.7748    -1.2545 H       
  33 H33           -2.6106    -2.4663    -1.2152 H       
  34 H34           -3.4430     4.1134    -0.1209 H       
  35 H35           -3.3359     5.7332     1.8282 H       
  36 H36           -1.5432     5.3565     2.0426 H       
  37 H37           -1.0890     6.1768    -0.3143 H       
  38 H38           -2.8816     6.5535    -0.5287 H       
  39 H39            0.3334    -7.3449     2.6676 H       
  40 H40            1.3228    -6.2110     0.7212 H       
  41 H41            0.4723    -4.0143     0.0083 H       
@<TRIPOS>BOND
   1    1    2 1
   2    1   12 2
   3    1    6 1
   4    2    9 1
   5    2    3 2
   6    3    4 1
   7    3    7 1
   8    4    5 2
   9    4   28 1
  10    5    6 1
  11    5   29 1
  12    6   14 1
  13    7    8 1
  14    7   11 1
  15    7   30 1
  16    8   10 1
  17    9   16 1
  18    9   17 1
  19    9   18 1
  20   10   21 ar
  21   10   25 ar
  22   11   31 1
  23   11   32 1
  24   11   33 1
  25   12   13 1
  26   13   14 2
  27   14   15 1
  28   15   19 1
  29   15   20 1
  30   15   34 1
  31   19   20 1
  32   19   35 1
  33   19   36 1
  34   20   37 1
  35   20   38 1
  36   21   22 ar
  37   21   27 1
  38   22   23 ar
  39   22   26 1
  40   23   24 ar
  41   23   39 1
  42   24   25 ar
  43   24   40 1
  44   25   41 1

#	End of record

