#	Name: ASD01916607
#	Creating user name:	WinNT
#	Creation time:	15. 06. 2019 20:07

#	Modifying user name:	WinNT
#	Modification time:	15. 06. 2019 20:07

#	Program:	/corina/corina34_cracker 3.40 0067  02.08.2006

@<TRIPOS>MOLECULE
ASD01916607
  25   26    0    0    0
SMALL
NO_CHARGES


@<TRIPOS>ATOM
   1 O1            -0.0144     1.2087     0.0087 O.3     
   2 N2             0.0021    -0.0041     0.0020 N.2     
   3 C3             1.2360    -0.4366    -0.0121 C.2     
   4 N4             2.0401     0.6504    -0.0139 N.2     
   5 C5             1.2351     1.6835    -0.0007 C.2     
   6 C6             1.6722    -1.8553    -0.0234 C.ar    
   7 C7             0.7256    -2.8775    -0.0199 C.ar    
   8 C8             1.1377    -4.1969    -0.0310 C.ar    
   9 C9             2.4893    -4.5020    -0.0451 C.ar    
  10 C10            3.4311    -3.4897    -0.0482 C.ar    
  11 C11            3.0294    -2.1689    -0.0434 C.ar    
  12 F12            0.2218    -5.1900    -0.0277 F       
  13 C13            1.6413     3.1347     0.0028 C.3     
  14 C14            1.7645     3.6333    -1.4385 C.3     
  15 C15            2.1612     5.0508    -1.4351 C.1     
  16 C16            2.4776     6.1814    -1.4324 C.1     
  17 H17           -0.3278    -2.6396    -0.0082 H       
  18 H18            2.8081    -5.5338    -0.0534 H       
  19 H19            4.4833    -3.7328    -0.0588 H       
  20 H20            3.7665    -1.3797    -0.0503 H       
  21 H21            0.8872     3.7218     0.5271 H       
  22 H22            2.6012     3.2422     0.5078 H       
  23 H23            2.5186     3.0462    -1.9628 H       
  24 H24            0.8045     3.5259    -1.9434 H       
  25 H25            2.7606     7.1925    -1.4299 H       
@<TRIPOS>BOND
   1    1    2 1
   2    1    5 1
   3    2    3 2
   4    3    4 1
   5    3    6 1
   6    4    5 2
   7    5   13 1
   8    6    7 ar
   9    6   11 ar
  10    7    8 ar
  11    7   17 1
  12    8    9 ar
  13    8   12 1
  14    9   10 ar
  15    9   18 1
  16   10   11 ar
  17   10   19 1
  18   11   20 1
  19   13   14 1
  20   13   21 1
  21   13   22 1
  22   14   15 1
  23   14   23 1
  24   14   24 1
  25   15   16 3
  26   16   25 1

#	End of record

