#	Name: ASD03331827
#	Creating user name:	WinNT
#	Creation time:	15. 06. 2019 20:39

#	Modifying user name:	WinNT
#	Modification time:	15. 06. 2019 20:39

#	Program:	/corina/corina34_cracker 3.40 0067  02.08.2006

@<TRIPOS>MOLECULE
ASD03331827
  48   51    0    0    0
SMALL
NO_CHARGES


@<TRIPOS>ATOM
   1 C1             0.4154     1.6456    -0.9472 C.ar    
   2 C2             0.3967     0.2654    -0.9679 C.ar    
   3 C3             1.2273    -0.4606    -0.1183 C.ar    
   4 C4             2.0770     0.1847     0.7531 C.ar    
   5 C5             1.2739     2.3117    -0.0676 C.ar    
   6 C6             1.5424     3.7219     0.2089 C.2     
   7 C7             2.1115     1.5742     0.7905 C.ar    
   8 N8             2.8378     2.4799     1.5358 N.pl3   
   9 C9             2.4895     3.7618     1.1786 C.2     
  10 C10            0.8909     4.9062    -0.4575 C.3     
  11 C11            1.5315     5.1418    -1.8011 C.ar    
  12 C12            2.5949     6.6137    -3.3617 C.ar    
  13 C13            2.7072     5.5740    -4.2657 C.ar    
  14 C14            2.2259     4.3197    -3.9399 C.ar    
  15 C15            1.6383     4.1036    -2.7075 C.ar    
  16 C16            2.0072     6.3975    -2.1293 C.ar    
  17 C17           -0.6018     4.6280    -0.6459 C.3     
  18 N18           -1.1838     4.2015     0.6291 N.pl3   
  19 O19           -2.2463     4.6675     0.9997 O.2     
  20 O20           -0.6051     3.3809     1.3185 O.2     
  21 C21            3.0600     4.9947     1.7633 C.ar    
  22 O22           -0.4366    -0.3878    -1.8212 O.3     
  23 C23           -0.4060    -1.8162    -1.7914 C.3     
  24 C24            3.2455     6.1265     0.9682 C.ar    
  25 C25            3.4097     5.0331     3.1137 C.ar    
  26 C26            3.9410     6.1865     3.6530 C.ar    
  27 C27            4.1268     7.3036     2.8582 C.ar    
  28 C28            3.7777     7.2736     1.5198 C.ar    
  29 H29           -0.2261     2.2075    -1.6099 H       
  30 H30            1.2049    -1.5401    -0.1424 H       
  31 H31            2.7165    -0.3890     1.4076 H       
  32 H32            3.4957     2.2477     2.2097 H       
  33 H33            1.0197     5.7906     0.1665 H       
  34 H34            2.9709     7.5936    -3.6162 H       
  35 H35            3.1663     5.7428    -5.2286 H       
  36 H36            2.3136     3.5074    -4.6462 H       
  37 H37            1.2629     3.1235    -2.4526 H       
  38 H38            1.9195     7.2099    -1.4230 H       
  39 H39           -1.1002     5.5352    -0.9875 H       
  40 H40           -0.7337     3.8399    -1.3873 H       
  41 H41            0.5972    -2.1633    -2.0387 H       
  42 H42           -0.6757    -2.1647    -0.7945 H       
  43 H43           -1.1163    -2.2100    -2.5185 H       
  44 H44            2.9733     6.1043    -0.0767 H       
  45 H45            3.2645     4.1620     3.7353 H       
  46 H46            4.2121     6.2176     4.6980 H       
  47 H47            4.5427     8.2042     3.2853 H       
  48 H48            3.9217     8.1502     0.9055 H       
@<TRIPOS>BOND
   1    1    2 ar
   2    1    5 ar
   3    1   29 1
   4    2    3 ar
   5    2   22 1
   6    3    4 ar
   7    3   30 1
   8    4    7 ar
   9    4   31 1
  10    5    7 ar
  11    5    6 1
  12    6    9 2
  13    6   10 1
  14    7    8 1
  15    8    9 1
  16    8   32 1
  17    9   21 1
  18   10   11 1
  19   10   17 1
  20   10   33 1
  21   11   16 ar
  22   11   15 ar
  23   12   13 ar
  24   12   16 ar
  25   12   34 1
  26   13   14 ar
  27   13   35 1
  28   14   15 ar
  29   14   36 1
  30   15   37 1
  31   16   38 1
  32   17   18 1
  33   17   39 1
  34   17   40 1
  35   18   19 2
  36   18   20 2
  37   21   25 ar
  38   21   24 ar
  39   22   23 1
  40   23   41 1
  41   23   42 1
  42   23   43 1
  43   24   28 ar
  44   24   44 1
  45   25   26 ar
  46   25   45 1
  47   26   27 ar
  48   26   46 1
  49   27   28 ar
  50   27   47 1
  51   28   48 1

#	End of record

