#	Name: ASD03090721
#	Creating user name:	WinNT
#	Creation time:	15. 06. 2019 20:29

#	Modifying user name:	WinNT
#	Modification time:	15. 06. 2019 20:29

#	Program:	/corina/corina34_cracker 3.40 0067  02.08.2006

@<TRIPOS>MOLECULE
ASD03090721
  39   40    0    0    0
SMALL
NO_CHARGES


@<TRIPOS>ATOM
   1 N1            -0.0162     1.3436     0.0094 N.am    
   2 C2            -0.1348     0.0013     0.0382 C.2     
   3 O3             0.8564    -0.6984    -0.0420 O.2     
   4 N4            -1.3520    -0.5653     0.1560 N.am    
   5 O5            -2.3645    -3.8319     0.2906 O.3     
   6 N6            -2.5809    -2.6423     0.2948 N.2     
   7 C7            -1.4747    -1.9543     0.1858 C.2     
   8 C8            -0.4229    -2.9052     0.1031 C.2     
   9 C9            -1.0554    -4.0984     0.1758 C.2     
  10 C10           -0.4140    -5.4615     0.1355 C.3     
  11 O11           -0.0906    -5.8752     1.4645 O.3     
  12 C12            0.5258    -7.1623     1.5388 C.3     
  13 C13            1.2562     1.9358     0.0099 C.ar    
  14 C14            1.4709     3.1264    -0.6799 C.ar    
  15 C15            2.7272     3.7094    -0.6778 C.ar    
  16 C16            3.7694     3.1074     0.0108 C.ar    
  17 C17            3.5548     1.9201     0.6979 C.ar    
  18 C18            2.2993     1.3388     0.7019 C.ar    
  19 O19            5.0032     3.6802     0.0127 O.3     
  20 C20            5.1529     4.9008    -0.7152 C.3     
  21 O21            0.4479     3.7159    -1.3553 O.3     
  22 C22            0.7404     4.9354    -2.0403 C.3     
  23 F23            4.5716     1.3348     1.3678 F       
  24 H24           -0.8102     1.9002    -0.0156 H       
  25 H25           -2.1426    -0.0071     0.2201 H       
  26 H26            0.6363    -2.7187     0.0044 H       
  27 H27           -1.1069    -6.1760    -0.3090 H       
  28 H28            0.4959    -5.4173    -0.4630 H       
  29 H29            0.7398    -7.4031     2.5801 H       
  30 H30           -0.1475    -7.9121     1.1234 H       
  31 H31            1.4553    -7.1534     0.9695 H       
  32 H32            2.8951     4.6326    -1.2126 H       
  33 H33            2.1326     0.4176     1.2405 H       
  34 H34            4.9108     4.7303    -1.7642 H       
  35 H35            4.4798     5.6536    -0.3047 H       
  36 H36            6.1822     5.2496    -0.6320 H       
  37 H37            1.5178     4.7574    -2.7833 H       
  38 H38           -0.1599     5.2985    -2.5362 H       
  39 H39            1.0862     5.6806    -1.3240 H       
@<TRIPOS>BOND
   1    1    2 am
   2    1   13 1
   3    1   24 1
   4    2    3 2
   5    2    4 am
   6    4    7 1
   7    4   25 1
   8    5    6 1
   9    5    9 1
  10    6    7 2
  11    7    8 1
  12    8    9 2
  13    8   26 1
  14    9   10 1
  15   10   11 1
  16   10   27 1
  17   10   28 1
  18   11   12 1
  19   12   29 1
  20   12   30 1
  21   12   31 1
  22   13   14 ar
  23   13   18 ar
  24   14   15 ar
  25   14   21 1
  26   15   16 ar
  27   15   32 1
  28   16   17 ar
  29   16   19 1
  30   17   18 ar
  31   17   23 1
  32   18   33 1
  33   19   20 1
  34   20   34 1
  35   20   35 1
  36   20   36 1
  37   21   22 1
  38   22   37 1
  39   22   38 1
  40   22   39 1

#	End of record

