#	Name: ASD06660007
#	Creating user name:	WinNT
#	Creation time:	15. 06. 2019 21:07

#	Modifying user name:	WinNT
#	Modification time:	15. 06. 2019 21:07

#	Program:	/corina/corina34_cracker 3.40 0067  02.08.2006

@<TRIPOS>MOLECULE
ASD06660007
  67   70    0    0    0
SMALL
NO_CHARGES


@<TRIPOS>ATOM
   1 C1             0.2836     1.4789    -0.1709 C.2     
   2 C2             0.2860    -0.0278    -0.2032 C.3     
   3 C3            -0.7238    -0.5171    -1.2433 C.3     
   4 O4             1.2958     2.0900    -0.4193 O.2     
   5 O5            -0.8444     2.1420     0.1286 O.3     
   6 C6             2.5629    -0.6543     0.3969 C.2     
   7 C7             3.9134    -1.1374     0.0380 C.ar    
   8 C8             4.1936    -2.5048     0.0455 C.ar    
   9 C9             5.4556    -2.9490    -0.2908 C.ar    
  10 C10            6.4426    -2.0424    -0.6345 C.ar    
  11 C11            6.1715    -0.6856    -0.6440 C.ar    
  12 C12            4.9120    -0.2286    -0.3153 C.ar    
  13 O13            2.2993    -0.3904     1.5537 O.2     
  14 N14            1.6241    -0.5065    -0.5588 N.am    
  15 C15            4.6166     1.2491    -0.3321 C.3     
  16 C16            7.8193    -2.5348    -0.9998 C.3     
  17 C17            3.1200    -3.4936     0.4207 C.3     
  18 C18           -0.8111    -2.0207    -1.1901 C.ar    
  19 C19           -1.7276    -2.6293    -0.3523 C.ar    
  20 C20           -1.8102    -4.0069    -0.3011 C.ar    
  21 C21           -0.9713    -4.7813    -1.0925 C.ar    
  22 C22           -0.0519    -4.1667    -1.9330 C.ar    
  23 C23            0.0216    -2.7885    -1.9834 C.ar    
  24 N24           -1.0519    -6.1748    -1.0428 N.3     
  25 C25           -2.4537    -6.6196    -0.9323 C.3     
  26 C26           -1.9822    -7.6693     0.0839 C.3     
  27 C27           -0.8458    -6.6675     0.3318 C.3     
  28 C28           -2.9242    -7.8555     1.2750 C.3     
  29 N29           -2.4411    -8.9564     2.1122 N.pl3   
  30 C30           -3.1384    -9.3142     3.2602 C.ar    
  31 C31           -4.2944    -8.6227     3.6085 C.ar    
  32 C32           -4.9783    -8.9893     4.7533 C.ar    
  33 C33           -4.4814   -10.0392     5.5146 C.ar    
  34 C34           -3.3286   -10.6813     5.1100 C.ar    
  35 N35           -2.6995   -10.3135     4.0097 N.ar    
  36 H36            0.0114    -0.4127     0.7789 H       
  37 H37           -1.7028    -0.0886    -1.0290 H       
  38 H38           -0.4010    -0.2069    -2.2371 H       
  39 H39           -0.7968     3.1078     0.1369 H       
  40 H40            5.6738    -4.0067    -0.2854 H       
  41 H41            6.9463     0.0168    -0.9133 H       
  42 H42            1.8344    -0.7171    -1.4820 H       
  43 H43            4.8316     1.6738     0.6485 H       
  44 H44            5.2392     1.7355    -1.0831 H       
  45 H45            3.5656     1.4068    -0.5739 H       
  46 H46            7.8668    -2.7175    -2.0734 H       
  47 H47            8.5588    -1.7822    -0.7263 H       
  48 H48            8.0280    -3.4608    -0.4640 H       
  49 H49            2.5758    -3.7959    -0.4741 H       
  50 H50            3.5774    -4.3694     0.8809 H       
  51 H51            2.4303    -3.0307     1.1264 H       
  52 H52           -2.3792    -2.0266     0.2630 H       
  53 H53           -2.5259    -4.4816     0.3537 H       
  54 H54            0.6018    -4.7659    -2.5496 H       
  55 H55            0.7330    -2.3100    -2.6402 H       
  56 H56           -3.1155    -5.8670    -0.5037 H       
  57 H57           -2.8460    -7.0518    -1.8528 H       
  58 H58           -1.6589    -8.6094    -0.3631 H       
  59 H59            0.1247    -7.1404     0.4827 H       
  60 H60           -1.0785    -5.9277     1.0978 H       
  61 H61           -2.9529    -6.9378     1.8625 H       
  62 H62           -3.9261    -8.0868     0.9133 H       
  63 H63           -1.6347    -9.4355     1.8654 H       
  64 H64           -4.6527    -7.8105     2.9933 H       
  65 H65           -5.8783    -8.4706     5.0488 H       
  66 H66           -4.9916   -10.3497     6.4144 H       
  67 H67           -2.9387   -11.4982     5.6991 H       
@<TRIPOS>BOND
   1    1    2 1
   2    1    4 2
   3    1    5 1
   4    2    3 1
   5    2   14 1
   6    2   36 1
   7    3   18 1
   8    3   37 1
   9    3   38 1
  10    5   39 1
  11    6    7 1
  12    6   13 2
  13    6   14 am
  14    7    8 ar
  15    7   12 ar
  16    8    9 ar
  17    8   17 1
  18    9   10 ar
  19    9   40 1
  20   10   11 ar
  21   10   16 1
  22   11   12 ar
  23   11   41 1
  24   12   15 1
  25   14   42 1
  26   15   43 1
  27   15   44 1
  28   15   45 1
  29   16   46 1
  30   16   47 1
  31   16   48 1
  32   17   49 1
  33   17   50 1
  34   17   51 1
  35   18   19 ar
  36   18   23 ar
  37   19   20 ar
  38   19   52 1
  39   20   21 ar
  40   20   53 1
  41   21   22 ar
  42   21   24 1
  43   22   23 ar
  44   22   54 1
  45   23   55 1
  46   24   25 1
  47   24   27 1
  48   25   26 1
  49   25   56 1
  50   25   57 1
  51   26   27 1
  52   26   28 1
  53   26   58 1
  54   27   59 1
  55   27   60 1
  56   28   29 1
  57   28   61 1
  58   28   62 1
  59   29   30 1
  60   29   63 1
  61   30   31 ar
  62   30   35 ar
  63   31   32 ar
  64   31   64 1
  65   32   33 ar
  66   32   65 1
  67   33   34 ar
  68   33   66 1
  69   34   35 ar
  70   34   67 1

#	End of record

