#	Name: ASD01911668
#	Creating user name:	WinNT
#	Creation time:	15. 06. 2019 19:58

#	Modifying user name:	WinNT
#	Modification time:	15. 06. 2019 19:58

#	Program:	/corina/corina34_cracker 3.40 0067  02.08.2006

@<TRIPOS>MOLECULE
ASD01911668
  32   34    0    0    0
SMALL
NO_CHARGES


@<TRIPOS>ATOM
   1 N1            -0.0162     1.3436     0.0094 N.am    
   2 C2             0.0021    -0.0041     0.0020 C.2     
   3 C3            -1.2566    -0.7538     0.0100 C.2     
   4 C4            -1.3813    -2.1170     0.0039 C.2     
   5 S5            -2.8763    -0.0590     0.0369 S.3     
   6 C6            -3.5692    -1.6782     0.0304 C.2     
   7 N7            -2.6048    -2.5646     0.0139 N.2     
   8 C8            -4.9692    -1.9790     0.0455 C.1     
   9 C9            -6.1169    -2.2256     0.0579 C.1     
  10 C10           -7.5169    -2.5264     0.0731 C.ar    
  11 C11           -7.9500    -3.8558     0.0660 C.ar    
  12 C12           -9.2998    -4.1374     0.0811 C.ar    
  13 C13          -10.2249    -3.1083     0.1029 C.ar    
  14 C14           -9.8039    -1.7899     0.1101 C.ar    
  15 C15           -8.4575    -1.4922     0.1010 C.ar    
  16 O16            1.0643    -0.5982    -0.0113 O.2     
  17 C17            0.9898     2.4163     0.0056 C.3     
  18 C18           -0.0365     3.3074     0.7187 C.3     
  19 C19           -1.0510     2.3885     0.0183 C.3     
  20 O20           -0.0221     3.1935     2.1430 O.3     
  21 H21           -0.5253    -2.7754    -0.0088 H       
  22 H22           -7.2293    -4.6600     0.0482 H       
  23 H23           -9.6360    -5.1638     0.0756 H       
  24 H24          -11.2807    -3.3351     0.1140 H       
  25 H25          -10.5318    -0.9921     0.1268 H       
  26 H26           -8.1305    -0.4630     0.1065 H       
  27 H27            1.8663     2.1916     0.6135 H       
  28 H28            1.2479     2.7657    -0.9941 H       
  29 H29           -0.0537     4.3389     0.3668 H       
  30 H30           -1.3338     2.7326    -0.9765 H       
  31 H31           -1.9116     2.1391     0.6391 H       
  32 H32           -0.6698     3.7561     2.5892 H       
@<TRIPOS>BOND
   1    1    2 am
   2    1   17 1
   3    1   19 1
   4    2    3 1
   5    2   16 2
   6    3    4 2
   7    3    5 1
   8    4    7 1
   9    4   21 1
  10    5    6 1
  11    6    7 2
  12    6    8 1
  13    8    9 3
  14    9   10 1
  15   10   11 ar
  16   10   15 ar
  17   11   12 ar
  18   11   22 1
  19   12   13 ar
  20   12   23 1
  21   13   14 ar
  22   13   24 1
  23   14   15 ar
  24   14   25 1
  25   15   26 1
  26   17   18 1
  27   17   27 1
  28   17   28 1
  29   18   19 1
  30   18   20 1
  31   18   29 1
  32   19   30 1
  33   19   31 1
  34   20   32 1

#	End of record

