#	Name: ASD02198672
#	Creating user name:	WinNT
#	Creation time:	15. 06. 2019 20:19

#	Modifying user name:	WinNT
#	Modification time:	15. 06. 2019 20:19

#	Program:	/corina/corina34_cracker 3.40 0067  02.08.2006

@<TRIPOS>MOLECULE
ASD02198672
  51   55    0    0    0
SMALL
NO_CHARGES


@<TRIPOS>ATOM
   1 F1             2.2527    -1.7127     2.4710 F       
   2 C2            -0.0433     1.5019    -0.1149 C.2     
   3 C3            -0.0731     0.1621     0.0976 C.2     
   4 N4             1.0711    -0.5395     0.2599 N.pl3   
   5 N5             2.2356    -0.0048     0.2263 N.2     
   6 C6             2.4071     1.2849     0.0281 C.2     
   7 C7             1.2215     2.1358    -0.1604 C.2     
   8 C8             0.9795    -1.9191     0.4760 C.ar    
   9 C9             1.5801    -2.4899     1.5941 C.ar    
  10 C10            1.4885    -3.8524     1.8066 C.ar    
  11 C11            0.7972    -4.6506     0.9042 C.ar    
  12 C12            0.1977    -4.0795    -0.2122 C.ar    
  13 C13            0.2840    -2.7185    -0.4225 C.ar    
  14 C14            3.7640     1.8672    -0.0041 C.2     
  15 N15            4.3062     2.6074    -1.0170 N.pl3   
  16 N16            5.6078     2.9594    -0.6387 N.2     
  17 C17            5.8513     2.4599     0.5468 C.2     
  18 C18            4.7195     1.7717     0.9838 C.2     
  19 C19            3.6734     2.9521    -2.2181 C.ar    
  20 C20            3.8073     4.2354    -2.7317 C.ar    
  21 C21            3.1821     4.5722    -3.9163 C.ar    
  22 C22            2.4235     3.6331    -4.5908 C.ar    
  23 C23            2.2879     2.3545    -4.0817 C.ar    
  24 C24            2.9156     2.0097    -2.9008 C.ar    
  25 O25            1.3244     3.3391    -0.3479 O.2     
  26 N26            0.7048    -6.0278     1.1184 N.3     
  27 C27            0.1164    -6.3181     2.4341 C.3     
  28 C28           -0.0664    -6.6770     0.0483 C.3     
  29 C29           -0.0920    -8.1886     0.2899 C.3     
  30 O30           -0.6380    -8.4499     1.5857 O.3     
  31 C31            0.0889    -7.8332     2.6518 C.3     
  32 H32           -0.9547     2.0655    -0.2495 H       
  33 H33           -1.0229    -0.3503     0.1379 H       
  34 H34            1.9545    -4.2964     2.6738 H       
  35 H35           -0.3397    -4.7008    -0.9134 H       
  36 H36           -0.1825    -2.2757    -1.2901 H       
  37 H37            6.7745     2.5663     1.0969 H       
  38 H38            4.6135     1.2519     1.9246 H       
  39 H39            4.3993     4.9693    -2.2052 H       
  40 H40            3.2855     5.5701    -4.3161 H       
  41 H41            1.9356     3.8989    -5.5169 H       
  42 H42            1.6942     1.6236    -4.6105 H       
  43 H43            2.8093     1.0110    -2.5037 H       
  44 H44            0.7176    -5.8492     3.2131 H       
  45 H45           -0.9001    -5.9263     2.4726 H       
  46 H46           -1.0857    -6.2910     0.0487 H       
  47 H47            0.4015    -6.4702    -0.9143 H       
  48 H48           -0.7102    -8.6681    -0.4690 H       
  49 H49            0.9227    -8.5830     0.2362 H       
  50 H50            1.1089    -8.2173     2.6668 H       
  51 H51           -0.3984    -8.0557     3.6010 H       
@<TRIPOS>BOND
   1    1    9 1
   2    2    3 2
   3    2    7 1
   4    2   32 1
   5    3    4 1
   6    3   33 1
   7    4    5 1
   8    4    8 1
   9    5    6 2
  10    6    7 1
  11    6   14 1
  12    7   25 2
  13    8    9 ar
  14    8   13 ar
  15    9   10 ar
  16   10   11 ar
  17   10   34 1
  18   11   12 ar
  19   11   26 1
  20   12   13 ar
  21   12   35 1
  22   13   36 1
  23   14   15 1
  24   14   18 2
  25   15   16 1
  26   15   19 1
  27   16   17 2
  28   17   18 1
  29   17   37 1
  30   18   38 1
  31   19   20 ar
  32   19   24 ar
  33   20   21 ar
  34   20   39 1
  35   21   22 ar
  36   21   40 1
  37   22   23 ar
  38   22   41 1
  39   23   24 ar
  40   23   42 1
  41   24   43 1
  42   26   28 1
  43   26   27 1
  44   27   31 1
  45   27   44 1
  46   27   45 1
  47   28   29 1
  48   28   46 1
  49   28   47 1
  50   29   30 1
  51   29   48 1
  52   29   49 1
  53   30   31 1
  54   31   50 1
  55   31   51 1

#	End of record

