#	Name: ASD01914766
#	Creating user name:	WinNT
#	Creation time:	15. 06. 2019 20:04

#	Modifying user name:	WinNT
#	Modification time:	15. 06. 2019 20:04

#	Program:	/corina/corina34_cracker 3.40 0067  02.08.2006

@<TRIPOS>MOLECULE
ASD01914766
  42   45    0    0    0
SMALL
NO_CHARGES


@<TRIPOS>ATOM
   1 N1            -0.1120     1.3286    -0.5045 N.am    
   2 C2             0.0001     0.0097    -0.1332 C.2     
   3 C3            -1.1758    -0.6682     0.4184 C.2     
   4 C4            -2.3203     0.0320     0.5387 C.2     
   5 N5            -2.3632     1.3503     0.1473 N.am    
   6 C6            -1.2821     1.9716    -0.3540 C.2     
   7 C7             1.1175     1.7124    -0.9817 C.2     
   8 C8             1.9290     0.6405    -0.8907 C.2     
   9 N9             1.2334    -0.3815    -0.3741 N.2     
  10 C10            3.3781     0.5981    -1.3020 C.3     
  11 O11           -1.3670     3.1382    -0.6864 O.2     
  12 C12           -3.5619     2.0639     0.2793 C.ar    
  13 O13            3.7672     1.8767    -1.8080 O.3     
  14 C14            5.0537     2.0095    -2.2255 C.ar    
  15 C15            5.4992     3.2234    -2.7282 C.ar    
  16 C16            5.9252     0.9331    -2.1443 C.ar    
  17 C17            7.2325     1.0709    -2.5689 C.ar    
  18 C18            7.6728     2.2803    -3.0740 C.ar    
  19 C19            6.8075     3.3560    -3.1515 C.ar    
  20 C20           -3.8325     2.7579     1.4512 C.ar    
  21 C21           -5.0142     3.4610     1.5791 C.ar    
  22 C22           -5.9291     3.4743     0.5396 C.ar    
  23 C23           -5.6612     2.7828    -0.6300 C.ar    
  24 C24           -4.4782     2.0828    -0.7638 C.ar    
  25 F25           -7.0848     4.1623     0.6668 F       
  26 C26           -3.5528    -0.6283     1.1010 C.3     
  27 H27           -1.1262    -1.7038     0.7209 H       
  28 H28            1.3834     2.6888    -1.3591 H       
  29 H29            3.9938     0.3465    -0.4384 H       
  30 H30            3.5139    -0.1561    -2.0772 H       
  31 H31            4.8237     4.0638    -2.7890 H       
  32 H32            5.5820    -0.0116    -1.7492 H       
  33 H33            7.9114     0.2333    -2.5059 H       
  34 H34            8.6954     2.3861    -3.4051 H       
  35 H35            7.1537     4.2996    -3.5467 H       
  36 H36           -3.1194     2.7475     2.2622 H       
  37 H37           -5.2252     4.0006     2.4906 H       
  38 H38           -6.3759     2.7944    -1.4395 H       
  39 H39           -4.2694     1.5440    -1.6762 H       
  40 H40           -3.3274    -1.6649     1.3516 H       
  41 H41           -3.8714    -0.0984     1.9986 H       
  42 H42           -4.3510    -0.5992     0.3593 H       
@<TRIPOS>BOND
   1    1    2 1
   2    1    7 1
   3    1    6 am
   4    2    3 1
   5    2    9 2
   6    3    4 2
   7    3   27 1
   8    4    5 1
   9    4   26 1
  10    5    6 am
  11    5   12 1
  12    6   11 2
  13    7    8 2
  14    7   28 1
  15    8    9 1
  16    8   10 1
  17   10   13 1
  18   10   29 1
  19   10   30 1
  20   12   20 ar
  21   12   24 ar
  22   13   14 1
  23   14   15 ar
  24   14   16 ar
  25   15   19 ar
  26   15   31 1
  27   16   17 ar
  28   16   32 1
  29   17   18 ar
  30   17   33 1
  31   18   19 ar
  32   18   34 1
  33   19   35 1
  34   20   21 ar
  35   20   36 1
  36   21   22 ar
  37   21   37 1
  38   22   23 ar
  39   22   25 1
  40   23   24 ar
  41   23   38 1
  42   24   39 1
  43   26   40 1
  44   26   41 1
  45   26   42 1

#	End of record

