#	Name: ASD03331671
#	Creating user name:	WinNT
#	Creation time:	15. 06. 2019 20:39

#	Modifying user name:	WinNT
#	Modification time:	15. 06. 2019 20:39

#	Program:	/corina/corina34_cracker 3.40 0067  02.08.2006

@<TRIPOS>MOLECULE
ASD03331671
  44   46    0    0    0
SMALL
NO_CHARGES


@<TRIPOS>ATOM
   1 C1             2.0505     0.2661    -0.4230 C.ar    
   2 C2             1.0374    -0.4392     0.1957 C.ar    
   3 C3             0.2399     0.1758     1.1570 C.ar    
   4 C4             0.4484     1.4923     1.5037 C.ar    
   5 C5             2.2713     1.6013    -0.0791 C.ar    
   6 C6             3.2273     2.6200    -0.5199 C.2     
   7 C7             1.4635     2.2199     0.8922 C.ar    
   8 N8             1.9073     3.5192     1.0214 N.pl3   
   9 C9             2.9583     3.7377     0.1733 C.2     
  10 S10            3.8288     5.2612     0.0133 S.o2    
  11 O11            3.1892     6.1824     0.8859 O.2     
  12 O12            5.2115     4.9439     0.0962 O.2     
  13 N13            3.5678     5.8158    -1.5251 N.am    
  14 C14            2.2158     6.1863    -1.9505 C.3     
  15 C15            2.3374     7.1566    -5.5970 C.ar    
  16 C16            2.2644     6.3974    -4.4442 C.ar    
  17 C17            2.2939     7.0141    -3.2074 C.ar    
  18 C18            2.3945     8.3903    -3.1235 C.ar    
  19 C19            2.4661     9.1496    -4.2764 C.ar    
  20 C20            2.4376     8.5328    -5.5131 C.ar    
  21 O21            0.8175    -1.7396    -0.1356 O.3     
  22 C22           -0.2464    -2.4108     0.5424 C.3     
  23 C23            2.5166     9.3605    -6.7700 C.3     
  24 C24            4.3083     2.4461    -1.5554 C.3     
  25 H25            2.6714    -0.2134    -1.1654 H       
  26 H26           -0.5499    -0.3846     1.6350 H       
  27 H27           -0.1766     1.9597     2.2502 H       
  28 H28            1.5309     4.1793     1.6242 H       
  29 H29            4.3100     5.8952    -2.1445 H       
  30 H30            1.6360     5.2840    -2.1452 H       
  31 H31            1.7331     6.7655    -1.1634 H       
  32 H32            2.3188     6.6744    -6.5632 H       
  33 H33            2.1857     5.3222    -4.5097 H       
  34 H34            2.4168     8.8722    -2.1572 H       
  35 H35            2.5441    10.2248    -4.2108 H       
  36 H36           -0.3136    -3.4385     0.1854 H       
  37 H37           -0.0511    -2.4107     1.6147 H       
  38 H38           -1.1861    -1.8951     0.3442 H       
  39 H39            1.5109     9.6356    -7.0877 H       
  40 H40            3.0956    10.2632    -6.5747 H       
  41 H41            3.0005     8.7815    -7.5565 H       
  42 H42            3.8926     2.6220    -2.5476 H       
  43 H43            5.1108     3.1590    -1.3661 H       
  44 H44            4.7032     1.4316    -1.5016 H       
@<TRIPOS>BOND
   1    1    2 ar
   2    1    5 ar
   3    1   25 1
   4    2    3 ar
   5    2   21 1
   6    3    4 ar
   7    3   26 1
   8    4    7 ar
   9    4   27 1
  10    5    7 ar
  11    5    6 1
  12    6    9 2
  13    6   24 1
  14    7    8 1
  15    8    9 1
  16    8   28 1
  17    9   10 1
  18   10   11 2
  19   10   12 2
  20   10   13 am
  21   13   14 1
  22   13   29 1
  23   14   17 1
  24   14   30 1
  25   14   31 1
  26   15   16 ar
  27   15   20 ar
  28   15   32 1
  29   16   17 ar
  30   16   33 1
  31   17   18 ar
  32   18   19 ar
  33   18   34 1
  34   19   20 ar
  35   19   35 1
  36   20   23 1
  37   21   22 1
  38   22   36 1
  39   22   37 1
  40   22   38 1
  41   23   39 1
  42   23   40 1
  43   23   41 1
  44   24   42 1
  45   24   43 1
  46   24   44 1

#	End of record

