#	Name: ASD04820002
#	Creating user name:	WinNT
#	Creation time:	15. 06. 2019 20:52

#	Modifying user name:	WinNT
#	Modification time:	15. 06. 2019 20:52

#	Program:	/corina/corina34_cracker 3.40 0067  02.08.2006

@<TRIPOS>MOLECULE
ASD04820002
  41   43    0    0    0
SMALL
NO_CHARGES


@<TRIPOS>ATOM
   1 C1             5.9937    -2.9915     2.5659 C.ar    
   2 C2             5.0525    -2.1312     3.0993 C.ar    
   3 C3             4.2703    -1.3574     2.2621 C.ar    
   4 N4             3.2620    -0.4364     2.8333 N.pl3   
   5 O5             3.0516    -0.4320     4.0330 O.2     
   6 O6             2.6428     0.3169     2.1036 O.2     
   7 C7             4.4301    -1.4434     0.8920 C.ar    
   8 C8             3.5778    -0.5995    -0.0205 C.3     
   9 C9             4.0030    -0.8182    -1.4496 C.2     
  10 N10            4.9597    -0.0955    -1.9633 N.2     
  11 N11            5.6798     0.7918    -1.1527 N.pl3   
  12 C12            6.7594     1.4869    -1.6747 C.2     
  13 N13            7.4957     2.3306    -1.0195 N.2     
  14 C14            8.4896     2.9029    -1.6821 C.2     
  15 C15            9.4038     3.8840    -1.0483 C.ar    
  16 C16            9.2340     4.2349     0.2899 C.ar    
  17 C17           10.0875     5.1478     0.8749 C.ar    
  18 C18           11.1109     5.7148     0.1352 C.ar    
  19 C19           11.2836     5.3701    -1.1942 C.ar    
  20 C20           10.4391     4.4539    -1.7872 C.ar    
  21 C21            8.6131     2.5324    -2.9703 C.2     
  22 S22            7.3502     1.3568    -3.3286 S.3     
  23 C23            3.3630    -1.8100    -2.2361 C.2     
  24 O24            2.4094    -2.4189    -1.7893 O.2     
  25 O25            3.8120    -2.0782    -3.4800 O.3     
  26 C26            5.3722    -2.3033     0.3585 C.ar    
  27 C27            6.1529    -3.0782     1.1953 C.ar    
  28 Br28          12.2767     6.9651     0.9435 Br      
  29 H29            6.6078    -3.5927     3.2200 H       
  30 H30            4.9279    -2.0637     4.1699 H       
  31 H31            2.5316    -0.8828     0.0947 H       
  32 H32            3.7000     0.4523     0.2381 H       
  33 H33            5.4228     0.9196    -0.2261 H       
  34 H34            8.4356     3.7934     0.8679 H       
  35 H35            9.9566     5.4207     1.9117 H       
  36 H36           12.0832     5.8159    -1.7671 H       
  37 H37           10.5775     4.1823    -2.8233 H       
  38 H38            9.3594     2.8913    -3.6636 H       
  39 H39            3.3129    -2.7682    -3.9381 H       
  40 H40            5.4973    -2.3702    -0.7121 H       
  41 H41            6.8885    -3.7502     0.7785 H       
@<TRIPOS>BOND
   1    1    2 ar
   2    1   27 ar
   3    1   29 1
   4    2    3 ar
   5    2   30 1
   6    3    4 1
   7    3    7 ar
   8    4    5 2
   9    4    6 2
  10    7    8 1
  11    7   26 ar
  12    8    9 1
  13    8   31 1
  14    8   32 1
  15    9   10 2
  16    9   23 1
  17   10   11 1
  18   11   12 1
  19   11   33 1
  20   12   13 2
  21   12   22 1
  22   13   14 1
  23   14   15 1
  24   14   21 2
  25   15   16 ar
  26   15   20 ar
  27   16   17 ar
  28   16   34 1
  29   17   18 ar
  30   17   35 1
  31   18   19 ar
  32   18   28 1
  33   19   20 ar
  34   19   36 1
  35   20   37 1
  36   21   22 1
  37   21   38 1
  38   23   24 2
  39   23   25 1
  40   25   39 1
  41   26   27 ar
  42   26   40 1
  43   27   41 1

#	End of record

