#	Name: ASD05303043
#	Creating user name:	WinNT
#	Creation time:	15. 06. 2019 20:58

#	Modifying user name:	WinNT
#	Modification time:	15. 06. 2019 20:58

#	Program:	/corina/corina34_cracker 3.40 0067  02.08.2006

@<TRIPOS>MOLECULE
ASD05303043
  41   44    0    0    0
SMALL
NO_CHARGES


@<TRIPOS>ATOM
   1 C1            -0.0389     1.3117     0.3162 C.ar    
   2 C2             0.0068    -0.0753     0.3066 C.ar    
   3 C3             1.2082    -0.7394     0.1887 C.ar    
   4 C4             2.3925    -0.0148     0.0777 C.ar    
   5 C5             2.3384     1.3899     0.0918 C.ar    
   6 C6             1.1112     2.0434     0.2102 C.ar    
   7 N7             3.6013    -0.6675    -0.0480 N.pl3   
   8 C8             4.8017    -0.0124     0.1330 C.ar    
   9 C9             4.8521     1.3924     0.1516 C.ar    
  10 C10            3.5978     2.1511    -0.0159 C.2     
  11 C11            5.9810    -0.7348     0.2994 C.ar    
  12 C12            7.1739    -0.0684     0.4756 C.ar    
  13 C13            7.2162     1.3187     0.4882 C.ar    
  14 C14            6.0709     2.0482     0.3288 C.ar    
  15 O15            3.6018     3.3493    -0.2324 O.2     
  16 C16            3.6103    -2.0939    -0.3819 C.3     
  17 C17            3.6442    -2.2590    -1.8795 C.ar    
  18 C18            4.8576    -2.3334    -2.5383 C.ar    
  19 C19            4.8913    -2.4847    -3.9110 C.ar    
  20 C20            3.7065    -2.5622    -4.6285 C.ar    
  21 C21            2.4904    -2.4873    -3.9651 C.ar    
  22 C22            2.4620    -2.3416    -2.5916 C.ar    
  23 O23            3.7371    -2.7106    -5.9790 O.3     
  24 C24            2.4788    -2.7831    -6.6524 C.3     
  25 H25           -0.9896     1.8165     0.4036 H       
  26 H26           -0.9096    -0.6404     0.3928 H       
  27 H27            1.2316    -1.8191     0.1828 H       
  28 H28            1.0699     3.1225     0.2180 H       
  29 H29            5.9602    -1.8145     0.2907 H       
  30 H30            8.0863    -0.6317     0.6049 H       
  31 H31            8.1601     1.8254     0.6253 H       
  32 H32            6.1095     3.1274     0.3393 H       
  33 H33            4.4912    -2.5639     0.0555 H       
  34 H34            2.7117    -2.5658     0.0154 H       
  35 H35            5.7797    -2.2727    -1.9793 H       
  36 H36            5.8393    -2.5424    -4.4252 H       
  37 H37            1.5667    -2.5474    -4.5214 H       
  38 H38            1.5155    -2.2833    -2.0747 H       
  39 H39            1.9142    -3.6365    -6.2767 H       
  40 H40            1.9164    -1.8672    -6.4711 H       
  41 H41            2.6459    -2.9010    -7.7230 H       
@<TRIPOS>BOND
   1    1    2 ar
   2    1    6 ar
   3    1   25 1
   4    2    3 ar
   5    2   26 1
   6    3    4 ar
   7    3   27 1
   8    4    5 ar
   9    4    7 1
  10    5    6 ar
  11    5   10 1
  12    6   28 1
  13    7    8 1
  14    7   16 1
  15    8    9 ar
  16    8   11 ar
  17    9   10 1
  18    9   14 ar
  19   10   15 2
  20   11   12 ar
  21   11   29 1
  22   12   13 ar
  23   12   30 1
  24   13   14 ar
  25   13   31 1
  26   14   32 1
  27   16   17 1
  28   16   33 1
  29   16   34 1
  30   17   18 ar
  31   17   22 ar
  32   18   19 ar
  33   18   35 1
  34   19   20 ar
  35   19   36 1
  36   20   21 ar
  37   20   23 1
  38   21   22 ar
  39   21   37 1
  40   22   38 1
  41   23   24 1
  42   24   39 1
  43   24   40 1
  44   24   41 1

#	End of record

