#	Name: ASD01890048
#	Creating user name:	WinNT
#	Creation time:	15. 06. 2019 19:50

#	Modifying user name:	WinNT
#	Modification time:	15. 06. 2019 19:50

#	Program:	/corina/corina34_cracker 3.40 0067  02.08.2006

@<TRIPOS>MOLECULE
ASD01890048
  39   41    0    0    0
SMALL
NO_CHARGES


@<TRIPOS>ATOM
   1 C1             0.0059     1.5345    -0.1752 C.2     
   2 C2             0.0106     0.0358    -0.0167 C.3     
   3 C3             1.4435    -0.4858    -0.1428 C.3     
   4 C4             2.2637     0.0133     1.0187 C.2     
   5 O5             1.0485     2.1321    -0.3004 O.2     
   6 O6            -1.1570     2.2049    -0.1828 O.3     
   7 O7             1.7241     0.2823     2.0710 O.2     
   8 C8             1.4316    -1.9927    -0.1386 C.ar    
   9 C9             1.9309    -2.6906    -1.2225 C.ar    
  10 C10            1.9203    -4.0727    -1.2193 C.ar    
  11 C11            1.4099    -4.7577    -0.1310 C.ar    
  12 C12            0.9104    -4.0588     0.9534 C.ar    
  13 C13            0.9267    -2.6767     0.9514 C.ar    
  14 Cl14           1.3958    -6.4937    -0.1265 Cl      
  15 C15            4.5412     0.5418     1.9433 C.3     
  16 N16            3.5970     0.1609     0.8881 N.am    
  17 C17            4.3811    -0.0293    -0.3364 C.3     
  18 C18            5.8258     0.2446    -0.0029 C.ar    
  19 C19            6.9654     0.2080    -0.7879 C.ar    
  20 C20            8.1974     0.5058    -0.2356 C.ar    
  21 C21            8.2909     0.8412     1.1035 C.ar    
  22 C22            7.1535     0.8781     1.8862 C.ar    
  23 C23            5.9197     0.5794     1.3333 C.ar    
  24 Cl24           9.6257     0.4583    -1.2212 Cl      
  25 H25           -0.3868    -0.2271     0.9635 H       
  26 H26           -0.6092    -0.4135    -0.7926 H       
  27 H27            1.8795    -0.1284    -1.0757 H       
  28 H28           -1.1095     3.1650    -0.2871 H       
  29 H29            2.3290    -2.1557    -2.0721 H       
  30 H30            2.3101    -4.6177    -2.0663 H       
  31 H31            0.5119    -4.5930     1.8032 H       
  32 H32            0.5408    -2.1310     1.7998 H       
  33 H33            4.2826     1.5265     2.3326 H       
  34 H34            4.5130    -0.1935     2.7474 H       
  35 H35            4.2715    -1.0547    -0.6897 H       
  36 H36            4.0410     0.6653    -1.1045 H       
  37 H37            6.8920    -0.0539    -1.8331 H       
  38 H38            9.2526     1.0738     1.5366 H       
  39 H39            7.2266     1.1399     2.9314 H       
@<TRIPOS>BOND
   1    1    2 1
   2    1    5 2
   3    1    6 1
   4    2    3 1
   5    2   25 1
   6    2   26 1
   7    3    4 1
   8    3    8 1
   9    3   27 1
  10    4    7 2
  11    4   16 am
  12    6   28 1
  13    8    9 ar
  14    8   13 ar
  15    9   10 ar
  16    9   29 1
  17   10   11 ar
  18   10   30 1
  19   11   12 ar
  20   11   14 1
  21   12   13 ar
  22   12   31 1
  23   13   32 1
  24   15   16 1
  25   15   23 1
  26   15   33 1
  27   15   34 1
  28   16   17 1
  29   17   18 1
  30   17   35 1
  31   17   36 1
  32   18   19 ar
  33   18   23 ar
  34   19   20 ar
  35   19   37 1
  36   20   21 ar
  37   20   24 1
  38   21   22 ar
  39   21   38 1
  40   22   23 ar
  41   22   39 1

#	End of record

