#	Name: ASD01150248
#	Creating user name:	WinNT
#	Creation time:	15. 06. 2019 19:03

#	Modifying user name:	WinNT
#	Modification time:	15. 06. 2019 19:03

#	Program:	/corina/corina34_cracker 3.40 0067  02.08.2006

@<TRIPOS>MOLECULE
ASD01150248
  64   68    0    0    0
SMALL
NO_CHARGES


@<TRIPOS>ATOM
   1 C1             0.2773     0.8863     0.1608 C.ar    
   2 C2             0.1643    -0.5010     0.3044 C.ar    
   3 C3            -1.0543    -1.1002     0.3726 C.ar    
   4 C4            -2.2246    -0.3240     0.2988 C.ar    
   5 C5            -2.1153     1.0805     0.1535 C.ar    
   6 C6            -0.8507     1.6772     0.0911 C.ar    
   7 N7            -3.4318    -0.8962     0.3637 N.ar    
   8 C8            -4.5356    -0.1912     0.2965 C.ar    
   9 C9            -4.5167     1.1912     0.1536 C.ar    
  10 C10           -3.3004     1.8568     0.0799 C.ar    
  11 N11            1.5416     1.4752     0.0934 N.3     
  12 C12           -3.2421     3.3284    -0.0726 C.ar    
  13 C13           -5.8089     1.9632     0.0799 C.3     
  14 C14           -5.8628    -0.9005     0.3761 C.3     
  15 C15           -2.7006     4.1164     0.9434 C.ar    
  16 C16           -2.6482     5.4867     0.7964 C.ar    
  17 C17           -3.1327     6.0812    -0.3581 C.ar    
  18 C18           -3.6716     5.3027    -1.3702 C.ar    
  19 C19           -3.7232     3.9312    -1.2352 C.ar    
  20 F20           -3.0799     7.4240    -0.4970 F       
  21 C21            2.6008     0.4612     0.1922 C.3     
  22 C22            3.9655     1.1359     0.0347 C.3     
  23 N23            4.1244     2.1625     1.0741 N.3     
  24 C24            3.0653     3.1764     0.9753 C.3     
  25 C25            1.7006     2.5017     1.1329 C.3     
  26 C26           -6.4364     1.7766    -1.3029 C.3     
  27 C27            5.4545     2.7820     1.0032 C.3     
  28 O28           -6.7088     1.4821     1.0803 O.3     
  29 C29           -7.6668     2.3432     1.5140 C.ar    
  30 C30           -8.4992     1.9845     2.5642 C.ar    
  31 C31           -9.4719     2.8612     3.0040 C.ar    
  32 C32           -9.6163     4.0966     2.3977 C.ar    
  33 C33           -8.7871     4.4562     1.3501 C.ar    
  34 C34           -7.8097     3.5843     0.9109 C.ar    
  35 Cl35         -10.8398     5.1964     2.9518 Cl      
  36 H36            1.0580    -1.1047     0.3615 H       
  37 H37           -1.1235    -2.1723     0.4832 H       
  38 H38           -0.7589     2.7476    -0.0197 H       
  39 H39           -5.6099     3.0215     0.2489 H       
  40 H40           -6.1428    -1.0312     1.4214 H       
  41 H41           -6.6229    -0.3072    -0.1322 H       
  42 H42           -5.7827    -1.8761    -0.1033 H       
  43 H43           -2.3235     3.6542     1.8436 H       
  44 H44           -2.2292     6.0976     1.5823 H       
  45 H45           -4.0482     5.7707    -2.2678 H       
  46 H46           -4.1430     3.3254    -2.0246 H       
  47 H47            2.5468    -0.0274     1.1651 H       
  48 H48            2.4687    -0.2806    -0.5954 H       
  49 H49            4.7538     0.3901     0.1366 H       
  50 H50            4.0297     1.6013    -0.9489 H       
  51 H51            3.1973     3.9182     1.7630 H       
  52 H52            3.1193     3.6650     0.0024 H       
  53 H53            0.9123     3.2475     1.0310 H       
  54 H54            1.6364     2.0363     2.1164 H       
  55 H55           -7.4156     2.2549    -1.3251 H       
  56 H56           -5.7936     2.2296    -2.0577 H       
  57 H57           -6.5470     0.7124    -1.5111 H       
  58 H58            5.5861     3.2494     0.0273 H       
  59 H59            5.5454     3.5378     1.7833 H       
  60 H60            6.2191     2.0184     1.1463 H       
  61 H61           -8.3870     1.0202     3.0375 H       
  62 H62          -10.1203     2.5821     3.8213 H       
  63 H63           -8.9013     5.4209     0.8781 H       
  64 H64           -7.1626     3.8653     0.0932 H       
@<TRIPOS>BOND
   1    1    2 ar
   2    1   11 1
   3    1    6 ar
   4    2    3 ar
   5    2   36 1
   6    3    4 ar
   7    3   37 1
   8    4    5 ar
   9    4    7 ar
  10    5    6 ar
  11    5   10 ar
  12    6   38 1
  13    7    8 ar
  14    8    9 ar
  15    8   14 1
  16    9   10 ar
  17    9   13 1
  18   10   12 1
  19   11   21 1
  20   11   25 1
  21   12   15 ar
  22   12   19 ar
  23   13   26 1
  24   13   28 1
  25   13   39 1
  26   14   40 1
  27   14   41 1
  28   14   42 1
  29   15   16 ar
  30   15   43 1
  31   16   17 ar
  32   16   44 1
  33   17   18 ar
  34   17   20 1
  35   18   19 ar
  36   18   45 1
  37   19   46 1
  38   21   22 1
  39   21   47 1
  40   21   48 1
  41   22   23 1
  42   22   49 1
  43   22   50 1
  44   23   24 1
  45   23   27 1
  46   24   25 1
  47   24   51 1
  48   24   52 1
  49   25   53 1
  50   25   54 1
  51   26   55 1
  52   26   56 1
  53   26   57 1
  54   27   58 1
  55   27   59 1
  56   27   60 1
  57   28   29 1
  58   29   30 ar
  59   29   34 ar
  60   30   31 ar
  61   30   61 1
  62   31   32 ar
  63   31   62 1
  64   32   33 ar
  65   32   35 1
  66   33   34 ar
  67   33   63 1
  68   34   64 1

#	End of record

