#	Name: ASD09740123
#	Creating user name:	WinNT
#	Creation time:	15. 06. 2019 21:22

#	Modifying user name:	WinNT
#	Modification time:	15. 06. 2019 21:22

#	Program:	/corina/corina34_cracker 3.40 0067  02.08.2006

@<TRIPOS>MOLECULE
ASD09740123
  39   42    0    0    0
SMALL
NO_CHARGES


@<TRIPOS>ATOM
   1 N1            -0.0144     1.2085     0.0087 N.2     
   2 O2             0.0021    -0.0041     0.0020 O.3     
   3 C3             1.2057     1.6798    -0.0004 C.2     
   4 N4             2.0455     0.6238    -0.0141 N.2     
   5 C5             1.2699    -0.4439    -0.0124 C.2     
   6 C6             1.7128    -1.8545    -0.0235 C.ar    
   7 C7             1.5950     3.1130     0.0031 C.ar    
   8 C8             0.6264     4.1194     0.0178 C.ar    
   9 C9             1.0316     5.4391     0.0211 C.ar    
  10 N10            2.3123     5.7538     0.0106 N.ar    
  11 C11            3.2578     4.8345    -0.0034 C.ar    
  12 C12            2.9398     3.4911    -0.0023 C.ar    
  13 C13            3.0750    -2.1601    -0.0374 C.ar    
  14 C14            2.5598    -4.4991    -0.0444 C.ar    
  15 C15            1.1964    -4.2067    -0.0244 C.ar    
  16 C16            0.7716    -2.8825    -0.0143 C.ar    
  17 C17            3.4889    -3.4772    -0.0477 C.ar    
  18 C18            0.2004    -5.3068    -0.0208 C.ar    
  19 C19           -1.1622    -5.0163    -0.0008 C.ar    
  20 C20            0.6243    -6.6339    -0.0432 C.ar    
  21 C21           -0.3064    -7.6531    -0.0403 C.ar    
  22 C22           -1.6578    -7.3590    -0.0151 C.ar    
  23 C23           -2.0842    -6.0433     0.0020 C.ar    
  24 C24            4.9606    -3.8012    -0.0631 C.3     
  25 F25            5.6996    -2.6133    -0.0643 F       
  26 F26            5.2850    -4.5511     1.0725 F       
  27 F27            5.2635    -4.5399    -1.2119 F       
  28 H28           -0.4241     3.8688     0.0261 H       
  29 H29            0.2900     6.2241     0.0321 H       
  30 H30            4.2947     5.1365    -0.0117 H       
  31 H31            3.7191     2.7435    -0.0138 H       
  32 H32            3.8060    -1.3652    -0.0404 H       
  33 H33            2.8901    -5.5274    -0.0518 H       
  34 H34           -0.2834    -2.6517     0.0009 H       
  35 H35           -1.4962    -3.9893     0.0129 H       
  36 H36            1.6791    -6.8646    -0.0633 H       
  37 H37            0.0210    -8.6821    -0.0581 H       
  38 H38           -2.3827    -8.1596    -0.0132 H       
  39 H39           -3.1405    -5.8192     0.0216 H       
@<TRIPOS>BOND
   1    1    2 1
   2    1    3 2
   3    2    5 1
   4    3    4 1
   5    3    7 1
   6    4    5 2
   7    5    6 1
   8    6   13 ar
   9    6   16 ar
  10    7    8 ar
  11    7   12 ar
  12    8    9 ar
  13    8   28 1
  14    9   10 ar
  15    9   29 1
  16   10   11 ar
  17   11   12 ar
  18   11   30 1
  19   12   31 1
  20   13   17 ar
  21   13   32 1
  22   14   15 ar
  23   14   17 ar
  24   14   33 1
  25   15   16 ar
  26   15   18 1
  27   16   34 1
  28   17   24 1
  29   18   19 ar
  30   18   20 ar
  31   19   23 ar
  32   19   35 1
  33   20   21 ar
  34   20   36 1
  35   21   22 ar
  36   21   37 1
  37   22   23 ar
  38   22   38 1
  39   23   39 1
  40   24   25 1
  41   24   26 1
  42   24   27 1

#	End of record

