#	Name: ASD01820169
#	Creating user name:	WinNT
#	Creation time:	15. 06. 2019 19:36

#	Modifying user name:	WinNT
#	Modification time:	15. 06. 2019 19:36

#	Program:	/corina/corina34_cracker 3.40 0067  02.08.2006

@<TRIPOS>MOLECULE
ASD01820169
  84   87    0    0    0
SMALL
NO_CHARGES


@<TRIPOS>ATOM
   1 C1            -0.0170     1.4058     0.0098 C.ar    
   2 C2             0.0021    -0.0041     0.0020 C.ar    
   3 C3            -1.4136    -0.4276     0.0141 C.2     
   4 N4            -2.1896     0.6711     0.0278 N.am    
   5 C5            -1.4436     1.7906     0.0314 C.2     
   6 C6            -3.6544     0.6512     0.0421 C.3     
   7 C7            -4.1501     0.6362     1.4895 C.3     
   8 C8            -5.6799     0.6154     1.5044 C.3     
   9 N9            -6.1559     0.6010     2.8941 N.4     
  10 C10           -7.6247     0.5810     2.9084 C.3     
  11 C11           -8.1205     0.5661     4.3558 C.3     
  12 C12           -9.6502     0.5452     4.3707 C.3     
  13 C13          -10.1460     0.5302     5.8181 C.3     
  14 C14          -11.6758     0.5094     5.8330 C.3     
  15 C15          -12.1715     0.4944     7.2804 C.3     
  16 N16          -13.6403     0.4744     7.2947 N.4     
  17 C17          -14.1163     0.4601     8.6844 C.3     
  18 C18          -15.6461     0.4392     8.6993 C.3     
  19 N19          -17.6066     0.4043    10.1610 N.am    
  20 O20           -1.8711     2.9273     0.0431 O.2     
  21 O21           -1.8101    -1.5755     0.0116 O.2     
  22 C22          -16.1418     0.4243    10.1467 C.3     
  23 C23          -18.3526    -0.7151    10.1621 C.2     
  24 C24          -19.7796    -0.3302    10.1783 C.ar    
  25 C25          -19.7987     1.0795    10.1863 C.ar    
  26 C26          -18.3826     1.5030    10.1806 C.2     
  27 C27          -20.9720    -1.0354    10.1865 C.ar    
  28 C28          -22.1765    -0.3489    10.2025 C.ar    
  29 C29          -22.1952     1.0328    10.2104 C.ar    
  30 C30          -21.0098     1.7519    10.2020 C.ar    
  31 O31          -17.9251    -1.8518    10.1512 O.2     
  32 O32          -17.9860     2.6509    10.1847 O.2     
  33 C33          -14.1530     1.6709     6.6139 C.3     
  34 C34          -14.1205    -0.7277     6.6002 C.3     
  35 C35           -5.6432    -0.5955     3.5749 C.3     
  36 C36           -5.6758     1.8031     3.5886 C.3     
  37 C37            1.1752     2.1118     0.0022 C.ar    
  38 C38            2.3807     1.4260    -0.0130 C.ar    
  39 C39            2.3994     0.0410    -0.0206 C.ar    
  40 C40            1.2130    -0.6774    -0.0139 C.ar    
  41 Cl41           3.8753     2.3089    -0.0231 Cl      
  42 Cl42           3.9175    -0.8009    -0.0402 Cl      
  43 H43           -4.0348     1.5390    -0.4631 H       
  44 H44           -4.0107    -0.2408    -0.4732 H       
  45 H45           -3.7697    -0.2516     1.9947 H       
  46 H46           -3.7939     1.5282     2.0048 H       
  47 H47           -6.0603     1.5032     0.9992 H       
  48 H48           -6.0362    -0.2766     0.9891 H       
  49 H49           -8.0051     1.4688     2.4032 H       
  50 H50           -7.9810    -0.3109     2.3931 H       
  51 H51           -7.7401    -0.3217     4.8610 H       
  52 H52           -7.7642     1.4580     4.8711 H       
  53 H53          -10.0306     1.4330     3.8655 H       
  54 H54          -10.0065    -0.3467     3.8554 H       
  55 H55           -9.7656    -0.3576     6.3233 H       
  56 H56           -9.7897     1.4222     6.3334 H       
  57 H57          -12.0562     1.3972     5.3279 H       
  58 H58          -12.0320    -0.3825     5.3177 H       
  59 H59          -11.7911    -0.3934     7.7856 H       
  60 H60          -11.8153     1.3864     7.7957 H       
  61 H61          -13.7359    -0.4277     9.1896 H       
  62 H62          -13.7600     1.3520     9.1997 H       
  63 H63          -16.0265     1.3270     8.1942 H       
  64 H64          -16.0024    -0.4527     8.1840 H       
  65 H65          -15.7614    -0.4635    10.6519 H       
  66 H66          -15.7856     1.3162    10.6620 H       
  67 H67          -20.9633    -2.1154    10.1800 H       
  68 H68          -23.1066    -0.8978    10.2085 H       
  69 H69          -23.1398     1.5563    10.2229 H       
  70 H70          -21.0304     2.8317    10.2082 H       
  71 H71          -13.7998     1.6816     5.5828 H       
  72 H72          -15.2428     1.6561     6.6245 H       
  73 H73          -13.7967     2.5629     7.1292 H       
  74 H74          -13.7401    -1.6155     7.1054 H       
  75 H75          -15.2103    -0.7425     6.6109 H       
  76 H76          -13.7673    -0.7170     5.5691 H       
  77 H77           -4.5534    -0.5806     3.5643 H       
  78 H78           -5.9964    -0.6061     4.6061 H       
  79 H79           -5.9995    -1.4874     3.0596 H       
  80 H80           -6.0562     2.6909     3.0834 H       
  81 H81           -6.0289     1.7925     4.6197 H       
  82 H82           -4.5859     1.8180     3.5780 H       
  83 H83            1.1659     3.1918     0.0077 H       
  84 H84            1.2330    -1.7572    -0.0197 H       
@<TRIPOS>BOND
   1    1    2 ar
   2    1   37 ar
   3    1    5 1
   4    2    3 1
   5    2   40 ar
   6    3    4 am
   7    3   21 2
   8    4    5 am
   9    4    6 1
  10    5   20 2
  11    6    7 1
  12    6   43 1
  13    6   44 1
  14    7    8 1
  15    7   45 1
  16    7   46 1
  17    8    9 1
  18    8   47 1
  19    8   48 1
  20    9   10 1
  21    9   35 1
  22    9   36 1
  23   10   11 1
  24   10   49 1
  25   10   50 1
  26   11   12 1
  27   11   51 1
  28   11   52 1
  29   12   13 1
  30   12   53 1
  31   12   54 1
  32   13   14 1
  33   13   55 1
  34   13   56 1
  35   14   15 1
  36   14   57 1
  37   14   58 1
  38   15   16 1
  39   15   59 1
  40   15   60 1
  41   16   17 1
  42   16   33 1
  43   16   34 1
  44   17   18 1
  45   17   61 1
  46   17   62 1
  47   18   22 1
  48   18   63 1
  49   18   64 1
  50   19   23 am
  51   19   22 1
  52   19   26 am
  53   22   65 1
  54   22   66 1
  55   23   24 1
  56   23   31 2
  57   24   25 ar
  58   24   27 ar
  59   25   26 1
  60   25   30 ar
  61   26   32 2
  62   27   28 ar
  63   27   67 1
  64   28   29 ar
  65   28   68 1
  66   29   30 ar
  67   29   69 1
  68   30   70 1
  69   33   71 1
  70   33   72 1
  71   33   73 1
  72   34   74 1
  73   34   75 1
  74   34   76 1
  75   35   77 1
  76   35   78 1
  77   35   79 1
  78   36   80 1
  79   36   81 1
  80   36   82 1
  81   37   38 ar
  82   37   83 1
  83   38   39 ar
  84   38   41 1
  85   39   40 ar
  86   39   42 1
  87   40   84 1

#	End of record

