#	Name: ASD08570001
#	Creating user name:	WinNT
#	Creation time:	15. 06. 2019 21:19

#	Modifying user name:	WinNT
#	Modification time:	15. 06. 2019 21:19

#	Program:	/corina/corina34_cracker 3.40 0067  02.08.2006

@<TRIPOS>MOLECULE
ASD08570001
  23   24    0    0    0
SMALL
NO_CHARGES


@<TRIPOS>ATOM
   1 C1            -0.0169     1.3921     0.0097 C.ar    
   2 C2             0.0021    -0.0041     0.0020 C.ar    
   3 C3             1.1971    -0.6661    -0.0130 C.ar    
   4 C4             2.3934     0.0383    -0.0206 C.ar    
   5 C5             2.3978     1.4158    -0.0133 C.ar    
   6 C6             1.1925     2.1105     0.0020 C.ar    
   7 N7             0.8699     3.4490     0.0118 N.pl3   
   8 C8            -0.4900     3.5997     0.0253 C.2     
   9 C9            -1.0838     2.3958     0.0194 C.2     
  10 C10           -2.5668     2.1277     0.0235 C.3     
  11 C11           -3.0408     1.9051     1.4610 C.3     
  12 O12           -4.4470     1.6508     1.4649 O.3     
  13 H13           -0.9246    -0.5587     0.0083 H       
  14 H14            1.2113    -1.7460    -0.0185 H       
  15 H15            3.3301    -0.4992    -0.0321 H       
  16 H16            3.3337     1.9546    -0.0190 H       
  17 H17            1.5112     4.1768     0.0101 H       
  18 H18           -1.0088     4.5468     0.0350 H       
  19 H19           -3.0916     2.9820    -0.4040 H       
  20 H20           -2.7768     1.2380    -0.5702 H       
  21 H21           -2.5160     1.0508     1.8885 H       
  22 H22           -2.8308     2.7948     2.0547 H       
  23 H23           -4.8171     1.5001     2.3455 H       
@<TRIPOS>BOND
   1    1    2 ar
   2    1    6 ar
   3    1    9 1
   4    2    3 ar
   5    2   13 1
   6    3    4 ar
   7    3   14 1
   8    4    5 ar
   9    4   15 1
  10    5    6 ar
  11    5   16 1
  12    6    7 1
  13    7    8 1
  14    7   17 1
  15    8    9 2
  16    8   18 1
  17    9   10 1
  18   10   11 1
  19   10   19 1
  20   10   20 1
  21   11   12 1
  22   11   21 1
  23   11   22 1
  24   12   23 1

#	End of record

