#	Name: ASD01200204
#	Creating user name:	WinNT
#	Creation time:	15. 06. 2019 19:08

#	Modifying user name:	WinNT
#	Modification time:	15. 06. 2019 19:08

#	Program:	/corina/corina34_cracker 3.40 0067  02.08.2006

@<TRIPOS>MOLECULE
ASD01200204
  45   46    0    0    0
SMALL
NO_CHARGES


@<TRIPOS>ATOM
   1 C1            -0.0167     1.3788     0.0096 C.ar    
   2 C2             0.0021    -0.0041     0.0020 C.ar    
   3 C3            -1.1857    -0.7115     0.0095 C.ar    
   4 C4            -2.3923    -0.0376     0.0246 C.ar    
   5 C5            -2.4129     1.3447     0.0318 C.ar    
   6 C6            -1.2256     2.0540     0.0306 C.ar    
   7 C7            -1.1647    -2.2184     0.0007 C.3     
   8 C8            -1.8667    -2.7455     1.2538 C.3     
   9 C9            -1.8800    -2.7235    -1.2258 C.2     
  10 N10           -1.4360    -2.3846    -2.4523 N.am    
  11 O11           -2.8548    -3.4348    -1.1091 O.2     
  12 Cl12          -1.2509     3.7898     0.0401 Cl      
  13 Cl13           1.4745     2.2677     0.0002 Cl      
  14 C14           -1.0701    -2.3368     2.4946 C.3     
  15 C15           -2.0757    -2.8364    -3.5492 C.2     
  16 N16           -1.6317    -2.4974    -4.7758 N.am    
  17 O17           -3.0529    -3.5494    -3.4323 O.2     
  18 C18           -2.3270    -2.9885    -5.9680 C.3     
  19 C19           -1.8348    -2.7550     3.7521 C.3     
  20 C20           -1.0383    -2.3463     4.9929 C.3     
  21 C21            0.3268    -3.0370     4.9728 C.3     
  22 C22            1.0915    -2.6188     3.7153 C.3     
  23 C23            0.2950    -3.0275     2.4746 C.3     
  24 H24            0.9446    -0.5313    -0.0101 H       
  25 H25           -3.3196    -0.5912     0.0305 H       
  26 H26           -3.3562     1.8707     0.0428 H       
  27 H27           -0.1322    -2.5673    -0.0113 H       
  28 H28           -2.8706    -2.3251     1.3119 H       
  29 H29           -1.9302    -3.8325     1.2046 H       
  30 H30           -0.6561    -1.8155    -2.5456 H       
  31 H31           -0.9304    -1.2558     2.4969 H       
  32 H32           -0.8518    -1.9283    -4.8691 H       
  33 H33           -3.3596    -2.6395    -5.9560 H       
  34 H34           -1.8269    -2.6130    -6.8608 H       
  35 H35           -2.3119    -4.0784    -5.9744 H       
  36 H36           -2.8073    -2.2630     3.7664 H       
  37 H37           -1.9745    -3.8360     3.7498 H       
  38 H38           -0.8986    -1.2653     4.9952 H       
  39 H39           -1.5830    -2.6442     5.8887 H       
  40 H40            0.8943    -2.7458     5.8568 H       
  41 H41            0.1871    -4.1180     4.9705 H       
  42 H42            1.2312    -1.5378     3.7176 H       
  43 H43            2.0641    -3.1108     3.7010 H       
  44 H44            0.1553    -4.1085     2.4722 H       
  45 H45            0.8398    -2.7296     1.5787 H       
@<TRIPOS>BOND
   1    1    2 ar
   2    1   13 1
   3    1    6 ar
   4    2    3 ar
   5    2   24 1
   6    3    4 ar
   7    3    7 1
   8    4    5 ar
   9    4   25 1
  10    5    6 ar
  11    5   26 1
  12    6   12 1
  13    7    8 1
  14    7    9 1
  15    7   27 1
  16    8   14 1
  17    8   28 1
  18    8   29 1
  19    9   10 am
  20    9   11 2
  21   10   15 am
  22   10   30 1
  23   14   19 1
  24   14   23 1
  25   14   31 1
  26   15   16 am
  27   15   17 2
  28   16   18 1
  29   16   32 1
  30   18   33 1
  31   18   34 1
  32   18   35 1
  33   19   20 1
  34   19   36 1
  35   19   37 1
  36   20   21 1
  37   20   38 1
  38   20   39 1
  39   21   22 1
  40   21   40 1
  41   21   41 1
  42   22   23 1
  43   22   42 1
  44   22   43 1
  45   23   44 1
  46   23   45 1

#	End of record

