#	Name: ASD01884707
#	Creating user name:	WinNT
#	Creation time:	15. 06. 2019 19:48

#	Modifying user name:	WinNT
#	Modification time:	15. 06. 2019 19:48

#	Program:	/corina/corina34_cracker 3.40 0067  02.08.2006

@<TRIPOS>MOLECULE
ASD01884707
  42   44    0    0    0
SMALL
NO_CHARGES


@<TRIPOS>ATOM
   1 C1            -0.0168     1.3859     0.0097 C.2     
   2 C2             0.0021    -0.0041     0.0020 C.2     
   3 C3            -1.2213    -0.6985     0.0105 C.2     
   4 C4            -2.4071     0.0054     0.0260 C.2     
   5 N5            -2.4138     1.3536     0.0333 N.am    
   6 C6            -1.2671     2.0578     0.0312 C.2     
   7 O7            -1.3022     3.2762     0.0385 O.2     
   8 C8            -3.6940     2.0656     0.0499 C.3     
   9 C9             1.2072     2.1291     0.0020 C.1     
  10 N10            2.1782     2.7187    -0.0041 N.1     
  11 C11           -4.1253     2.3058     1.4981 C.3     
  12 C12           -5.4624     3.0493     1.5153 C.3     
  13 C13           -6.5496     2.1579     0.9117 C.3     
  14 C14           -5.8327     3.3994     2.9580 C.3     
  15 C15           -1.2358    -2.1808     0.0022 C.ar    
  16 C16           -0.9166    -2.8997     1.1675 C.ar    
  17 C17           -0.9332    -4.3050     1.1494 C.ar    
  18 C18           -1.2667    -4.9713    -0.0257 C.ar    
  19 C19           -1.5784    -4.2569    -1.1630 C.ar    
  20 C20           -1.5702    -2.8716    -1.1552 C.ar    
  21 C21           -0.5346    -2.5152     2.5262 C.2     
  22 C22           -0.3507    -3.6514     3.2188 C.2     
  23 N23           -0.5846    -4.7313     2.4119 N.pl3   
  24 H24            0.9390    -0.5411    -0.0105 H       
  25 H25           -3.3443    -0.5313     0.0321 H       
  26 H26           -3.5841     3.0228    -0.4599 H       
  27 H27           -4.4492     1.4672    -0.4597 H       
  28 H28           -4.2353     1.3486     2.0079 H       
  29 H29           -3.3702     2.9042     2.0076 H       
  30 H30           -5.3766     3.9648     0.9299 H       
  31 H31           -7.5021     2.6877     0.9240 H       
  32 H32           -6.2858     1.9086    -0.1161 H       
  33 H33           -6.6353     1.2425     1.4971 H       
  34 H34           -5.0582     4.0344     3.3880 H       
  35 H35           -6.7852     3.9291     2.9703 H       
  36 H36           -5.9184     2.4839     3.5434 H       
  37 H37           -1.2811    -6.0510    -0.0471 H       
  38 H38           -1.8357    -4.7836    -2.0700 H       
  39 H39           -1.8172    -2.3271    -2.0546 H       
  40 H40           -0.4214    -1.5088     2.9012 H       
  41 H41           -0.0610    -3.7045     4.2579 H       
  42 H42           -0.5152    -5.6587     2.6877 H       
@<TRIPOS>BOND
   1    1    2 2
   2    1    9 1
   3    1    6 1
   4    2    3 1
   5    2   24 1
   6    3    4 2
   7    3   15 1
   8    4    5 1
   9    4   25 1
  10    5    8 1
  11    5    6 am
  12    6    7 2
  13    8   11 1
  14    8   26 1
  15    8   27 1
  16    9   10 3
  17   11   12 1
  18   11   28 1
  19   11   29 1
  20   12   13 1
  21   12   14 1
  22   12   30 1
  23   13   31 1
  24   13   32 1
  25   13   33 1
  26   14   34 1
  27   14   35 1
  28   14   36 1
  29   15   16 ar
  30   15   20 ar
  31   16   17 ar
  32   16   21 1
  33   17   18 ar
  34   17   23 1
  35   18   19 ar
  36   18   37 1
  37   19   20 ar
  38   19   38 1
  39   20   39 1
  40   21   22 2
  41   21   40 1
  42   22   23 1
  43   22   41 1
  44   23   42 1

#	End of record

