#	Name: ASD04880249
#	Creating user name:	WinNT
#	Creation time:	15. 06. 2019 20:53

#	Modifying user name:	WinNT
#	Modification time:	15. 06. 2019 20:53

#	Program:	/corina/corina34_cracker 3.40 0067  02.08.2006

@<TRIPOS>MOLECULE
ASD04880249
  52   55    0    0    0
SMALL
NO_CHARGES


@<TRIPOS>ATOM
   1 C1            -0.0119     1.4643     0.0390 C.3     
   2 N2             0.0039    -0.0072     0.0417 N.am    
   3 N3             1.3264    -0.4435     0.0849 N.2     
   4 C4             2.1943     0.5087     0.1112 C.2     
   5 C5             1.4819     1.8421     0.0863 C.3     
   6 C6            -1.0835    -0.8028     0.0085 C.2     
   7 C7            -0.9241    -2.2673    -0.1125 C.ar    
   8 O8            -2.1955    -0.3159     0.0780 O.2     
   9 C9            -2.0375    -3.1043    -0.0013 C.ar    
  10 C10           -1.8906    -4.4723    -0.1141 C.ar    
  11 C11           -0.6443    -5.0234    -0.3378 C.ar    
  12 C12            0.4775    -4.1983    -0.4515 C.ar    
  13 C13            0.3355    -2.8158    -0.3434 C.ar    
  14 C14            3.6563     0.3261     0.1584 C.ar    
  15 C15            4.5004     1.4388     0.1843 C.ar    
  16 C16            4.2012    -0.9608     0.1831 C.ar    
  17 C17            5.5724    -1.1262     0.2273 C.ar    
  18 C18            6.4086    -0.0115     0.2471 C.ar    
  19 C19            5.8681     1.2657     0.2284 C.ar    
  20 O20            7.7572    -0.1764     0.2910 O.3     
  21 C21            8.5554     1.0087     0.3092 C.3     
  22 O22            6.1059    -2.3769     0.2519 O.3     
  23 C23            5.1899    -3.4735     0.2300 C.3     
  24 C24            1.8683     2.6250    -1.1420 C.ar    
  25 C25            2.4458     3.8742    -1.0122 C.ar    
  26 C26            1.6504     2.0915    -2.3986 C.ar    
  27 C27            2.0049     2.8096    -3.5253 C.ar    
  28 C28            2.5768     4.0614    -3.3955 C.ar    
  29 C29            2.8002     4.5924    -2.1389 C.ar    
  30 C30            1.7693    -4.7712    -0.6829 C.1     
  31 N31            2.7941    -5.2257    -0.8665 N.1     
  32 H32           -0.4742     1.8412    -0.8734 H       
  33 H33           -0.5316     1.8440     0.9186 H       
  34 H34            1.7039     2.4111     0.9891 H       
  35 H35           -3.0151    -2.6800     0.1736 H       
  36 H36           -2.7544    -5.1146    -0.0266 H       
  37 H37           -0.5364    -6.0944    -0.4246 H       
  38 H38            1.1993    -2.1733    -0.4305 H       
  39 H39            4.0822     2.4344     0.1694 H       
  40 H40            3.5521    -1.8238     0.1681 H       
  41 H41            6.5199     2.1267     0.2435 H       
  42 H42            8.3608     1.5917    -0.5910 H       
  43 H43            8.3042     1.6026     1.1880 H       
  44 H44            9.6101     0.7359     0.3444 H       
  45 H45            5.7452    -4.4112     0.2533 H       
  46 H46            4.5350    -3.4173     1.0995 H       
  47 H47            4.5910    -3.4284    -0.6796 H       
  48 H48            2.6197     4.2893    -0.0304 H       
  49 H49            1.2036     1.1135    -2.4999 H       
  50 H50            1.8353     2.3925    -4.5070 H       
  51 H51            2.8540     4.6223    -4.2758 H       
  52 H52            3.2470     5.5703    -2.0375 H       
@<TRIPOS>BOND
   1    1    2 1
   2    1    5 1
   3    1   32 1
   4    1   33 1
   5    2    3 1
   6    2    6 am
   7    3    4 2
   8    4    5 1
   9    4   14 1
  10    5   24 1
  11    5   34 1
  12    6    7 1
  13    6    8 2
  14    7    9 ar
  15    7   13 ar
  16    9   10 ar
  17    9   35 1
  18   10   11 ar
  19   10   36 1
  20   11   12 ar
  21   11   37 1
  22   12   13 ar
  23   12   30 1
  24   13   38 1
  25   14   15 ar
  26   14   16 ar
  27   15   19 ar
  28   15   39 1
  29   16   17 ar
  30   16   40 1
  31   17   18 ar
  32   17   22 1
  33   18   19 ar
  34   18   20 1
  35   19   41 1
  36   20   21 1
  37   21   42 1
  38   21   43 1
  39   21   44 1
  40   22   23 1
  41   23   45 1
  42   23   46 1
  43   23   47 1
  44   24   25 ar
  45   24   26 ar
  46   25   29 ar
  47   25   48 1
  48   26   27 ar
  49   26   49 1
  50   27   28 ar
  51   27   50 1
  52   28   29 ar
  53   28   51 1
  54   29   52 1
  55   30   31 3

#	End of record

