#	Name: ASD03081164
#	Creating user name:	WinNT
#	Creation time:	15. 06. 2019 20:27

#	Modifying user name:	WinNT
#	Modification time:	15. 06. 2019 20:27

#	Program:	/corina/corina34_cracker 3.40 0067  02.08.2006

@<TRIPOS>MOLECULE
ASD03081164
  30   33    0    0    0
SMALL
NO_CHARGES


@<TRIPOS>ATOM
   1 O1            -0.0162     1.3401     0.0094 O.3     
   2 C2             0.0021    -0.0041     0.0020 C.2     
   3 N3             1.2379    -0.4376    -0.0121 N.2     
   4 C4             2.0763     0.6318    -0.0144 C.ar    
   5 C5             1.2641     1.7789    -0.0005 C.ar    
   6 C6             1.8435     3.0324     0.0001 C.ar    
   7 C7             3.2343     3.1500    -0.0133 C.ar    
   8 C8             4.0366     2.0029    -0.0271 C.ar    
   9 C9             3.4679     0.7632    -0.0276 C.ar    
  10 N10           -1.1142    -0.8069     0.0091 N.pl3   
  11 O11            3.2235     5.6684    -0.0009 O.3     
  12 N12            4.0313     6.5729    -0.0054 N.2     
  13 C13            5.2494     6.0953    -0.0206 C.2     
  14 N14            5.1548     4.7495    -0.0259 N.2     
  15 C15            3.8604     4.4866    -0.0133 C.2     
  16 C16            7.7435     6.2521    -0.0474 C.ar    
  17 C17            6.5043     6.8883    -0.0307 C.ar    
  18 C18            6.4616     8.2847    -0.0242 C.ar    
  19 C19            7.6598     8.9785    -0.0346 C.ar    
  20 C20            8.8492     8.2736    -0.0510 C.ar    
  21 N21            8.8578     6.9544    -0.0573 N.ar    
  22 H22            1.2239     3.9169     0.0104 H       
  23 H23            5.1122     2.1000    -0.0377 H       
  24 H24            4.0930    -0.1174    -0.0383 H       
  25 H25           -1.9984    -0.4082     0.0202 H       
  26 H26           -1.0175    -1.7721     0.0029 H       
  27 H27            7.7911     5.1731    -0.0481 H       
  28 H28            5.5179     8.8098    -0.0117 H       
  29 H29            7.6654    10.0584    -0.0303 H       
  30 H30            9.7858     8.8113    -0.0592 H       
@<TRIPOS>BOND
   1    1    2 1
   2    1    5 1
   3    2    3 2
   4    2   10 1
   5    3    4 1
   6    4    5 ar
   7    4    9 ar
   8    5    6 ar
   9    6    7 ar
  10    6   22 1
  11    7    8 ar
  12    7   15 1
  13    8    9 ar
  14    8   23 1
  15    9   24 1
  16   10   25 1
  17   10   26 1
  18   11   12 1
  19   11   15 1
  20   12   13 2
  21   13   14 1
  22   13   17 1
  23   14   15 2
  24   16   17 ar
  25   16   21 ar
  26   16   27 1
  27   17   18 ar
  28   18   19 ar
  29   18   28 1
  30   19   20 ar
  31   19   29 1
  32   20   21 ar
  33   20   30 1

#	End of record

