#	Name: ASD00110042
#	Creating user name:	WinNT
#	Creation time:	15. 06. 2019 18:30

#	Modifying user name:	WinNT
#	Modification time:	15. 06. 2019 18:30

#	Program:	/corina/corina34_cracker 3.40 0067  02.08.2006

@<TRIPOS>MOLECULE
ASD00110042
  44   46    0    0    0
SMALL
NO_CHARGES


@<TRIPOS>ATOM
   1 N1            -0.3310     1.1504     0.2234 N.3     
   2 C2            -1.5048    -0.9298    -0.3138 C.3     
   3 C3             0.8976     1.7929     0.3928 C.ar    
   4 N4            -2.3674    -0.7346     0.8598 N.3     
   5 C5            -2.5552     0.6958     1.1398 C.3     
   6 C6            -1.1936     1.3456     1.3970 C.3     
   7 C7            -0.1432    -0.2799    -0.0566 C.3     
   8 C8             1.0781     3.0861    -0.0812 C.ar    
   9 C9             2.2940     3.7185     0.0883 C.ar    
  10 C10            3.3314     3.0658     0.7288 C.ar    
  11 C11            3.1550     1.7784     1.2019 C.ar    
  12 C12            1.9399     1.1422     1.0407 C.ar    
  13 C13            0.7433    -0.4461    -1.2924 C.3     
  14 N14            0.0361     0.0642    -2.4746 N.3     
  15 C15           -0.8706     2.0228    -3.6330 C.3     
  16 C16           -0.0052     1.5320    -2.4702 C.3     
  17 C17            0.6417    -0.4463    -3.7111 C.3     
  18 C18           -0.2044    -0.0146    -4.9110 C.3     
  19 C19           -0.2813     1.5141    -4.9516 C.3     
  20 H20           -1.3706    -1.9965    -0.4931 H       
  21 H21           -1.9684    -0.4695    -1.1864 H       
  22 H22           -3.2550    -1.1987     0.7375 H       
  23 H23           -3.0307     1.1745     0.2837 H       
  24 H24           -3.1868     0.8142     2.0202 H       
  25 H25           -0.7301     0.8854     2.2696 H       
  26 H26           -1.3278     2.4124     1.5763 H       
  27 H27            0.3323    -0.7586     0.7995 H       
  28 H28            0.2686     3.5962    -0.5821 H       
  29 H29            2.4351     4.7240    -0.2799 H       
  30 H30            4.2815     3.5624     0.8595 H       
  31 H31            3.9672     1.2714     1.7016 H       
  32 H32            1.8014     0.1384     1.4144 H       
  33 H33            1.6689     0.1126    -1.1534 H       
  34 H34            0.9742    -1.5018    -1.4347 H       
  35 H35           -1.8855     1.6423    -3.5172 H       
  36 H36           -0.8884     3.1126    -3.6388 H       
  37 H37           -0.4302     1.8806    -1.5289 H       
  38 H38            1.0059     1.9242    -2.5793 H       
  39 H39            1.6498    -0.0449    -3.8144 H       
  40 H40            0.6867    -1.5346    -3.6711 H       
  41 H41            0.2539    -0.3804    -5.8299 H       
  42 H42           -1.2088    -0.4272    -4.8153 H       
  43 H43           -0.9187     1.8249    -5.7794 H       
  44 H44            0.7189     1.9257    -5.0863 H       
@<TRIPOS>BOND
   1    1    7 1
   2    1    3 1
   3    1    6 1
   4    2    4 1
   5    2    7 1
   6    2   20 1
   7    2   21 1
   8    3   12 ar
   9    3    8 ar
  10    4    5 1
  11    4   22 1
  12    5    6 1
  13    5   23 1
  14    5   24 1
  15    6   25 1
  16    6   26 1
  17    7   13 1
  18    7   27 1
  19    8    9 ar
  20    8   28 1
  21    9   10 ar
  22    9   29 1
  23   10   11 ar
  24   10   30 1
  25   11   12 ar
  26   11   31 1
  27   12   32 1
  28   13   14 1
  29   13   33 1
  30   13   34 1
  31   14   17 1
  32   14   16 1
  33   15   16 1
  34   15   19 1
  35   15   35 1
  36   15   36 1
  37   16   37 1
  38   16   38 1
  39   17   18 1
  40   17   39 1
  41   17   40 1
  42   18   19 1
  43   18   41 1
  44   18   42 1
  45   19   43 1
  46   19   44 1

#	End of record

