#	Name: ASD01810657
#	Creating user name:	WinNT
#	Creation time:	15. 06. 2019 19:25

#	Modifying user name:	WinNT
#	Modification time:	15. 06. 2019 19:25

#	Program:	/corina/corina34_cracker 3.40 0067  02.08.2006

@<TRIPOS>MOLECULE
ASD01810657
  28   28    0    0    0
SMALL
NO_CHARGES


@<TRIPOS>ATOM
   1 C1             0.1672     1.4550     0.5764 C.2     
   2 C2            -0.0827     0.0731     0.1413 C.2     
   3 C3             1.0429    -0.7925    -0.2398 C.2     
   4 O4             1.2908     1.9156     0.5220 O.2     
   5 O5            -0.8508     2.2132     1.0305 O.3     
   6 O6             2.1682    -0.3343    -0.3037 O.2     
   7 N7            -1.3157    -0.3897     0.0928 N.2     
   8 N8            -2.3115     0.4056     0.2930 N.pl3   
   9 C9             0.8076    -2.2184    -0.5450 C.ar    
  10 C10            1.8839    -3.0597    -0.8461 C.ar    
  11 C11            1.6541    -4.3942    -1.1303 C.ar    
  12 C12            0.3641    -4.8943    -1.1170 C.ar    
  13 C13           -0.7040    -4.0654    -0.8200 C.ar    
  14 C14           -0.4901    -2.7348    -0.5286 C.ar    
  15 F15            3.1433    -2.5707    -0.8599 F       
  16 Cl16           2.9863    -5.4425    -1.5047 Cl      
  17 C17           -0.5306     3.5680     1.4431 C.3     
  18 C18           -1.8028     4.2686     1.9245 C.3     
  19 H19           -3.1992     0.0436     0.4406 H       
  20 H20           -2.1725     1.3655     0.2960 H       
  21 H21            0.1896    -5.9366    -1.3398 H       
  22 H22           -1.7080    -4.4634    -0.8120 H       
  23 H23           -1.3251    -2.0918    -0.2929 H       
  24 H24            0.1970     3.5385     2.2541 H       
  25 H25           -0.1117     4.1155     0.5988 H       
  26 H26           -2.5304     4.2982     1.1135 H       
  27 H27           -2.2217     3.7211     2.7688 H       
  28 H28           -1.5624     5.2857     2.2342 H       
@<TRIPOS>BOND
   1    1    2 1
   2    1    4 2
   3    1    5 1
   4    2    3 1
   5    2    7 2
   6    3    6 2
   7    3    9 1
   8    5   17 1
   9    7    8 1
  10    8   19 1
  11    8   20 1
  12    9   10 ar
  13    9   14 ar
  14   10   11 ar
  15   10   15 1
  16   11   12 ar
  17   11   16 1
  18   12   13 ar
  19   12   21 1
  20   13   14 ar
  21   13   22 1
  22   14   23 1
  23   17   18 1
  24   17   24 1
  25   17   25 1
  26   18   26 1
  27   18   27 1
  28   18   28 1

#	End of record

