#	Name: ASD03241005
#	Creating user name:	WinNT
#	Creation time:	15. 06. 2019 20:35

#	Modifying user name:	WinNT
#	Modification time:	15. 06. 2019 20:35

#	Program:	/corina/corina34_cracker 3.40 0067  02.08.2006

@<TRIPOS>MOLECULE
ASD03241005
  58   63    0    0    0
SMALL
NO_CHARGES


@<TRIPOS>ATOM
   1 C1             0.1762     0.6278    -2.2490 C.3     
   2 C2             1.5230     0.8292    -1.5346 C.3     
   3 C3             1.0286    -0.1814    -0.4862 C.3     
   4 C4             0.1208    -0.7583    -1.5852 C.3     
   5 O5            -0.8480     1.5182    -1.8014 O.3     
   6 C6             0.2932     0.5730    -3.7736 C.3     
   7 C7             2.0953    -1.1385    -0.0202 C.ar    
   8 C8             2.0472    -1.6516     1.2637 C.ar    
   9 C9             3.0210    -2.5279     1.6965 C.ar    
  10 C10            4.0556    -2.8968     0.8361 C.ar    
  11 C11            4.0982    -2.3761    -0.4577 C.ar    
  12 C12            3.1155    -1.5047    -0.8801 C.ar    
  13 N13            6.8512    -6.7206     0.1263 N.pl3   
  14 C14            7.8233    -7.5725     0.5807 C.2     
  15 N15            8.3897    -7.4226     1.7910 N.2     
  16 C16            8.0481    -6.4583     2.6046 C.2     
  17 C17            7.0156    -5.5074     2.1900 C.ar    
  18 N18            6.6323    -4.5092     2.9823 N.ar    
  19 C19            5.6918    -3.6689     2.5691 C.ar    
  20 C20            5.1039    -3.8361     1.2941 C.ar    
  21 N21            5.4886    -4.8325     0.5071 N.ar    
  22 C22            6.4263    -5.6723     0.9183 C.ar    
  23 C23            8.0383    -8.5111    -0.4167 C.2     
  24 C24            7.1771    -8.2072    -1.4788 C.2     
  25 N25            6.4664    -7.1431    -1.1521 N.2     
  26 C26            5.2604    -2.5599     3.4397 C.2     
  27 C27            5.0002    -2.6613     4.7606 C.2     
  28 C28            4.6121    -1.4845     5.3630 C.2     
  29 C29            4.5525    -0.4242     4.5500 C.2     
  30 S30            5.0124    -0.8979     2.9201 S.3     
  31 C31            7.0766    -8.9557    -2.7501 C.2     
  32 C32            7.8446   -10.0157    -2.9575 C.2     
  33 C33            6.1008    -8.5132    -3.8098 C.3     
  34 N34            0.2899     0.4358     0.6234 N.3     
  35 H35            2.3793     0.4776    -2.1101 H       
  36 H36            1.6616     1.8356    -1.1397 H       
  37 H37           -0.8727    -1.0334    -1.2311 H       
  38 H38            0.5937    -1.5438    -2.1745 H       
  39 H39           -1.6975     1.3963    -2.2471 H       
  40 H40            0.9399    -0.2568    -4.0587 H       
  41 H41           -0.6957     0.4292    -4.2089 H       
  42 H42            0.7187     1.5075    -4.1391 H       
  43 H43            1.2458    -1.3653     1.9288 H       
  44 H44            2.9828    -2.9272     2.6992 H       
  45 H45            4.8967    -2.6575    -1.1283 H       
  46 H46            3.1449    -1.1044    -1.8828 H       
  47 H47            8.5215    -6.3646     3.5708 H       
  48 H48            8.7429    -9.3289    -0.3813 H       
  49 H49            5.0888    -3.5915     5.3022 H       
  50 H50            4.3732    -1.4229     6.4144 H       
  51 H51            4.2681     0.5736     4.8501 H       
  52 H52            7.7711   -10.5624    -3.8860 H       
  53 H53            8.5439   -10.3329    -2.1980 H       
  54 H54            6.3391    -7.4961    -4.1212 H       
  55 H55            6.1690    -9.1813    -4.6683 H       
  56 H56            5.0886    -8.5419    -3.4065 H       
  57 H57           -0.0154    -0.2608     1.2864 H       
  58 H58            0.8445     1.1470     1.0758 H       
@<TRIPOS>BOND
   1    1    2 1
   2    1    4 1
   3    1    5 1
   4    1    6 1
   5    2    3 1
   6    2   35 1
   7    2   36 1
   8    3    4 1
   9    3    7 1
  10    3   34 1
  11    4   37 1
  12    4   38 1
  13    5   39 1
  14    6   40 1
  15    6   41 1
  16    6   42 1
  17    7    8 ar
  18    7   12 ar
  19    8    9 ar
  20    8   43 1
  21    9   10 ar
  22    9   44 1
  23   10   11 ar
  24   10   20 1
  25   11   12 ar
  26   11   45 1
  27   12   46 1
  28   13   14 1
  29   13   22 1
  30   13   25 1
  31   14   15 1
  32   14   23 2
  33   15   16 2
  34   16   17 1
  35   16   47 1
  36   17   18 ar
  37   17   22 ar
  38   18   19 ar
  39   19   20 ar
  40   19   26 1
  41   20   21 ar
  42   21   22 ar
  43   23   24 1
  44   23   48 1
  45   24   25 2
  46   24   31 1
  47   26   27 2
  48   26   30 1
  49   27   28 1
  50   27   49 1
  51   28   29 2
  52   28   50 1
  53   29   30 1
  54   29   51 1
  55   31   32 2
  56   31   33 1
  57   32   52 1
  58   32   53 1
  59   33   54 1
  60   33   55 1
  61   33   56 1
  62   34   57 1
  63   34   58 1

#	End of record

