#	Name: ASD06170195
#	Creating user name:	WinNT
#	Creation time:	15. 06. 2019 21:05

#	Modifying user name:	WinNT
#	Modification time:	15. 06. 2019 21:05

#	Program:	/corina/corina34_cracker 3.40 0067  02.08.2006

@<TRIPOS>MOLECULE
ASD06170195
  71   76    0    0    0
SMALL
NO_CHARGES


@<TRIPOS>ATOM
   1 C1             0.1864     1.0595    -0.0651 C.2     
   2 C2            -0.0052    -0.1305     0.6850 C.2     
   3 C3             1.0631    -0.6527     1.4055 C.2     
   4 C4             2.2987     0.0177     1.3659 C.2     
   5 C5             2.4276     1.1713     0.6194 C.2     
   6 N6             1.3864     1.6679    -0.0743 N.am    
   7 C7            -1.3146    -0.8008     0.7001 C.2     
   8 O8            -1.4406    -1.8773     1.2526 O.2     
   9 N9            -2.3747    -0.2223     0.1018 N.am    
  10 C10            3.4575    -0.5121     2.1230 C.ar    
  11 N11            3.3134    -1.6220     2.8349 N.ar    
  12 C12            4.3271    -2.1207     3.5213 C.ar    
  13 C13            5.5509    -1.4692     3.4906 C.ar    
  14 C14            5.6672    -0.3112     2.7364 C.ar    
  15 N15            4.6160     0.1318     2.0684 N.ar    
  16 C16            1.5636     2.8948    -0.8551 C.3     
  17 C17            1.2407     4.0890     0.0055 C.ar    
  18 C18            2.2363     4.6940     0.7497 C.ar    
  19 C19            1.9401     5.7894     1.5392 C.ar    
  20 C20            0.6486     6.2801     1.5842 C.ar    
  21 C21           -0.3468     5.6756     0.8393 C.ar    
  22 C22           -0.0497     4.5829     0.0464 C.ar    
  23 O23           -0.7374     1.5285    -0.7066 O.2     
  24 C24           -3.5899    -0.9118     0.0112 C.ar    
  25 C25           -4.7900    -0.2155     0.0742 C.ar    
  26 C26           -5.9891    -0.8972    -0.0154 C.ar    
  27 C27           -5.9928    -2.2786    -0.1683 C.ar    
  28 C28           -4.7941    -2.9726    -0.2305 C.ar    
  29 C29           -3.5953    -2.2912    -0.1473 C.ar    
  30 F30           -7.1571    -0.2210     0.0462 F       
  31 O31           -7.1723    -2.9496    -0.2564 O.3     
  32 N32           -9.0221    -3.0958    -3.9398 N.ar    
  33 C33           -7.8486    -2.5222    -3.8129 C.ar    
  34 C34           -7.1950    -2.4543    -2.5890 C.ar    
  35 C35           -7.7866    -3.0014    -1.4640 C.ar    
  36 C36           -9.0503    -3.6161    -1.6125 C.ar    
  37 C37           -9.7124    -4.1922    -0.5181 C.ar    
  38 C38          -10.9325    -4.7771    -0.6982 C.ar    
  39 C39          -11.5304    -4.8078    -1.9661 C.ar    
  40 C40          -10.9077    -4.2551    -3.0479 C.ar    
  41 C41           -9.6515    -3.6455    -2.8944 C.ar    
  42 O42          -12.7457    -5.3959    -2.1201 O.3     
  43 C43          -13.3043    -5.3962    -3.4355 C.3     
  44 O44          -11.5742    -5.3359     0.3624 O.3     
  45 C45          -10.9129    -5.2727     1.6276 C.3     
  46 H46            0.9462    -1.5564     1.9853 H       
  47 H47            3.3780     1.6835     0.5918 H       
  48 H48           -2.2958     0.6718    -0.2660 H       
  49 H49            4.2035    -3.0246     4.0994 H       
  50 H50            6.3952    -1.8550     4.0426 H       
  51 H51            6.6066     0.2197     2.6916 H       
  52 H52            2.5963     2.9619    -1.1971 H       
  53 H53            0.8960     2.8767    -1.7166 H       
  54 H54            3.2453     4.3107     0.7145 H       
  55 H55            2.7178     6.2617     2.1211 H       
  56 H56            0.4171     7.1354     2.2015 H       
  57 H57           -1.3559     6.0587     0.8747 H       
  58 H58           -0.8266     4.1129    -0.5384 H       
  59 H59           -4.7863     0.8579     0.1933 H       
  60 H60           -4.7976    -4.0461    -0.3490 H       
  61 H61           -2.6621    -2.8321    -0.2007 H       
  62 H62           -7.3775    -2.0918    -4.6842 H       
  63 H63           -6.2295    -1.9759    -2.5157 H       
  64 H64           -9.2589    -4.1733     0.4619 H       
  65 H65          -11.3796    -4.2862    -4.0189 H       
  66 H66          -13.4307    -4.3687    -3.7767 H       
  67 H67          -12.6350    -5.9247    -4.1143 H       
  68 H68          -14.2731    -5.8953    -3.4187 H       
  69 H69          -10.7493    -4.2302     1.9004 H       
  70 H70          -11.5314    -5.7539     2.3853 H       
  71 H71           -9.9535    -5.7860     1.5621 H       
@<TRIPOS>BOND
   1    1    2 1
   2    1    6 am
   3    1   23 2
   4    2    3 2
   5    2    7 1
   6    3    4 1
   7    3   46 1
   8    4    5 2
   9    4   10 1
  10    5    6 1
  11    5   47 1
  12    6   16 1
  13    7    8 2
  14    7    9 am
  15    9   24 1
  16    9   48 1
  17   10   11 ar
  18   10   15 ar
  19   11   12 ar
  20   12   13 ar
  21   12   49 1
  22   13   14 ar
  23   13   50 1
  24   14   15 ar
  25   14   51 1
  26   16   17 1
  27   16   52 1
  28   16   53 1
  29   17   18 ar
  30   17   22 ar
  31   18   19 ar
  32   18   54 1
  33   19   20 ar
  34   19   55 1
  35   20   21 ar
  36   20   56 1
  37   21   22 ar
  38   21   57 1
  39   22   58 1
  40   24   25 ar
  41   24   29 ar
  42   25   26 ar
  43   25   59 1
  44   26   27 ar
  45   26   30 1
  46   27   28 ar
  47   27   31 1
  48   28   29 ar
  49   28   60 1
  50   29   61 1
  51   31   35 1
  52   32   33 ar
  53   32   41 ar
  54   33   34 ar
  55   33   62 1
  56   34   35 ar
  57   34   63 1
  58   35   36 ar
  59   36   37 ar
  60   36   41 ar
  61   37   38 ar
  62   37   64 1
  63   38   39 ar
  64   38   44 1
  65   39   40 ar
  66   39   42 1
  67   40   41 ar
  68   40   65 1
  69   42   43 1
  70   43   66 1
  71   43   67 1
  72   43   68 1
  73   44   45 1
  74   45   69 1
  75   45   70 1
  76   45   71 1

#	End of record

