#	Name: ASD00311477
#	Creating user name:	WinNT
#	Creation time:	15. 06. 2019 18:34

#	Modifying user name:	WinNT
#	Modification time:	15. 06. 2019 18:34

#	Program:	/corina/corina34_cracker 3.40 0067  02.08.2006

@<TRIPOS>MOLECULE
ASD00311477
  45   49    0    0    0
SMALL
NO_CHARGES


@<TRIPOS>ATOM
   1 C1            -0.0167     1.3777     0.0096 C.2     
   2 C2             0.0021    -0.0041     0.0020 C.2     
   3 C3             1.2588    -0.6767    -0.0131 C.2     
   4 C4             2.4315     0.0672    -0.0199 C.2     
   5 C5             2.3574     1.4751    -0.0117 C.2     
   6 N6             1.1648     2.0903     0.0022 N.am    
   7 C7            -1.3432    -0.5752     0.0118 C.2     
   8 C8            -2.3228     0.3262     0.0260 C.2     
   9 S9            -1.6793     1.9562     0.0358 S.3     
  10 O10            3.3823     2.1373    -0.0175 O.2     
  11 C11            4.1351    -1.3829    -1.1313 C.ar    
  12 C12            3.7477    -0.6121    -0.0352 C.ar    
  13 C13            4.6228    -0.4910     1.0490 C.ar    
  14 C14            5.8410    -1.1451     0.9853 C.ar    
  15 C15            6.1511    -1.8904    -0.1376 C.ar    
  16 N16            5.3054    -1.9867    -1.1455 N.ar    
  17 O17            1.3087    -2.0292    -0.0204 O.3     
  18 C18           -2.0687    -4.7663    -0.0057 C.ar    
  19 C19           -2.7057    -3.9524     0.9308 C.ar    
  20 C20           -2.4709    -2.5954     0.9369 C.ar    
  21 C21           -1.5956    -2.0347     0.0059 C.ar    
  22 C22           -0.9585    -2.8494    -0.9310 C.ar    
  23 C23           -1.1937    -4.2063    -0.9365 C.ar    
  24 C24           -2.3174    -6.2281    -0.0084 C.ar    
  25 C25           -2.6564    -6.8794    -1.1960 C.ar    
  26 C26           -2.8869    -8.2422    -1.1909 C.ar    
  27 C27           -2.7825    -8.9590    -0.0126 C.ar    
  28 C28           -2.4474    -8.3179     1.1664 C.ar    
  29 C29           -2.2082    -6.9585     1.1733 C.ar    
  30 F30           -2.7593    -6.1793    -2.3468 F       
  31 H31            1.1326     3.0597     0.0073 H       
  32 H32           -3.3754     0.0846     0.0344 H       
  33 H33            3.4677    -1.4890    -1.9737 H       
  34 H34            4.3551     0.0982     1.9136 H       
  35 H35            6.5421    -1.0738     1.8037 H       
  36 H36            7.1010    -2.4016    -0.1903 H       
  37 H37            2.2060    -2.3896    -0.0307 H       
  38 H38           -3.3832    -4.3864     1.6513 H       
  39 H39           -2.9648    -1.9651     1.6617 H       
  40 H40           -0.2807    -2.4159    -1.6515 H       
  41 H41           -0.7004    -4.8369    -1.6613 H       
  42 H42           -3.1492    -8.7481    -2.1083 H       
  43 H43           -2.9638   -10.0237    -0.0130 H       
  44 H44           -2.3679    -8.8834     2.0831 H       
  45 H45           -1.9416    -6.4609     2.0940 H       
@<TRIPOS>BOND
   1    1    2 2
   2    1    6 1
   3    1    9 1
   4    2    3 1
   5    2    7 1
   6    3    4 2
   7    3   17 1
   8    4    5 1
   9    4   12 1
  10    5    6 am
  11    5   10 2
  12    6   31 1
  13    7    8 2
  14    7   21 1
  15    8    9 1
  16    8   32 1
  17   11   12 ar
  18   11   16 ar
  19   11   33 1
  20   12   13 ar
  21   13   14 ar
  22   13   34 1
  23   14   15 ar
  24   14   35 1
  25   15   16 ar
  26   15   36 1
  27   17   37 1
  28   18   19 ar
  29   18   23 ar
  30   18   24 1
  31   19   20 ar
  32   19   38 1
  33   20   21 ar
  34   20   39 1
  35   21   22 ar
  36   22   23 ar
  37   22   40 1
  38   23   41 1
  39   24   25 ar
  40   24   29 ar
  41   25   26 ar
  42   25   30 1
  43   26   27 ar
  44   26   42 1
  45   27   28 ar
  46   27   43 1
  47   28   29 ar
  48   28   44 1
  49   29   45 1

#	End of record

