#	Name: ASD01150384
#	Creating user name:	WinNT
#	Creation time:	15. 06. 2019 19:04

#	Modifying user name:	WinNT
#	Modification time:	15. 06. 2019 19:04

#	Program:	/corina/corina34_cracker 3.40 0067  02.08.2006

@<TRIPOS>MOLECULE
ASD01150384
  38   40    0    0    0
SMALL
NO_CHARGES


@<TRIPOS>ATOM
   1 C1            -0.0167     1.3773     0.0096 C.ar    
   2 C2             0.0021    -0.0041     0.0020 C.ar    
   3 C3             1.2070    -0.6829    -0.0131 C.ar    
   4 C4             2.3990     0.0167    -0.0208 C.ar    
   5 C5             2.3895     1.4025    -0.0132 C.ar    
   6 C6             1.1759     2.0871     0.0020 C.ar    
   7 N7             1.1597     3.4876     0.0093 N.am    
   8 C8             0.4905     4.1385     0.9773 C.2     
   9 N9             0.4559     5.4839     1.0119 N.am    
  10 C10            1.0988     6.2006     0.0669 C.2     
  11 C11            1.8297     5.4964    -0.9896 C.2     
  12 N12            1.8451     4.1915    -0.9880 N.2     
  13 O13            1.0716     7.4173     0.0916 O.2     
  14 C14           -0.2808     6.1700     2.0762 C.3     
  15 O15           -0.0925     3.5023     1.8340 O.2     
  16 C16            0.6377     6.4147     3.2457 C.ar    
  17 C17            1.3706     7.5848     3.3156 C.ar    
  18 C18            2.2131     7.8098     4.3879 C.ar    
  19 C19            2.3229     6.8637     5.3914 C.ar    
  20 C20            1.5891     5.6929     5.3209 C.ar    
  21 C21            0.7427     5.4716     4.2509 C.ar    
  22 Cl22           3.3813     7.1453     6.7383 Cl      
  23 O23            3.5609     2.0921    -0.0203 O.3     
  24 C24            4.7658     1.3239    -0.0354 C.3     
  25 H25           -0.9591     1.9047     0.0169 H       
  26 H26           -0.9266    -0.5553     0.0083 H       
  27 H27            1.2166    -1.7629    -0.0187 H       
  28 H28            3.3380    -0.5167    -0.0322 H       
  29 H29            2.3515     6.0493    -1.7566 H       
  30 H30           -0.6552     7.1231     1.7027 H       
  31 H31           -1.1188     5.5505     2.3957 H       
  32 H32            1.2850     8.3231     2.5320 H       
  33 H33            2.7859     8.7237     4.4423 H       
  34 H34            1.6744     4.9540     6.1039 H       
  35 H35            0.1698     4.5577     4.1957 H       
  36 H36            5.6246     1.9952    -0.0397 H       
  37 H37            4.8041     0.6906     0.8509 H       
  38 H38            4.7878     0.7001    -0.9290 H       
@<TRIPOS>BOND
   1    1    2 ar
   2    1    6 ar
   3    1   25 1
   4    2    3 ar
   5    2   26 1
   6    3    4 ar
   7    3   27 1
   8    4    5 ar
   9    4   28 1
  10    5    6 ar
  11    5   23 1
  12    6    7 1
  13    7    8 am
  14    7   12 1
  15    8    9 am
  16    8   15 2
  17    9   10 am
  18    9   14 1
  19   10   11 1
  20   10   13 2
  21   11   12 2
  22   11   29 1
  23   14   16 1
  24   14   30 1
  25   14   31 1
  26   16   17 ar
  27   16   21 ar
  28   17   18 ar
  29   17   32 1
  30   18   19 ar
  31   18   33 1
  32   19   20 ar
  33   19   22 1
  34   20   21 ar
  35   20   34 1
  36   21   35 1
  37   23   24 1
  38   24   36 1
  39   24   37 1
  40   24   38 1

#	End of record

