#	Name: ASD01913921
#	Creating user name:	WinNT
#	Creation time:	15. 06. 2019 20:02

#	Modifying user name:	WinNT
#	Modification time:	15. 06. 2019 20:02

#	Program:	/corina/corina34_cracker 3.40 0067  02.08.2006

@<TRIPOS>MOLECULE
ASD01913921
  40   43    0    0    0
SMALL
NO_CHARGES


@<TRIPOS>ATOM
   1 C1            -0.0173     1.4278     0.0099 C.ar    
   2 C2             0.0021    -0.0041     0.0020 C.1     
   3 C3             0.0180    -1.1779    -0.0044 C.1     
   4 C4             0.0374    -2.6098    -0.0123 C.ar    
   5 C5            -1.1553    -3.3455    -0.0049 C.ar    
   6 C6             0.0738    -5.2915    -0.0270 C.ar    
   7 N7             1.2237    -4.6329    -0.0401 N.ar    
   8 C8             1.2496    -3.3127    -0.0335 C.ar    
   9 N9            -1.0936    -4.6645    -0.0125 N.ar    
  10 C10            1.1547     3.5252     0.0099 C.ar    
  11 C11           -1.2349     2.1133     0.0310 C.ar    
  12 C12           -0.0549     4.1972     0.0250 C.ar    
  13 N13            0.0926    -6.6781    -0.0350 N.pl3   
  14 C14            1.1812     2.1463     0.0023 C.ar    
  15 C15           -1.2457     3.4924     0.0385 C.ar    
  16 C16            1.2202    -7.4598    -0.0554 C.2     
  17 N17            0.9344    -8.7997    -0.0589 N.pl3   
  18 C18           -0.5187    -8.9708    -0.0392 C.3     
  19 C19           -1.0930    -7.5488    -0.0167 C.3     
  20 C20           -1.2067   -10.0970    -0.8013 C.3     
  21 C21           -1.1849   -10.1055     0.7297 C.3     
  22 C22            1.9210    -9.8825    -0.0794 C.3     
  23 N23            2.4313    -6.9799    -0.0706 N.2     
  24 H24           -2.1103    -2.8413     0.0073 H       
  25 H25            2.1905    -2.7827    -0.0446 H       
  26 H26            2.0801     4.0818    -0.0009 H       
  27 H27           -2.1650     1.5646     0.0412 H       
  28 H28           -0.0696     5.2771     0.0313 H       
  29 H29            2.1259     1.6231    -0.0091 H       
  30 H30           -2.1860     4.0237     0.0499 H       
  31 H31           -1.6773    -7.3880     0.8893 H       
  32 H32           -1.7036    -7.3703    -0.9018 H       
  33 H33           -2.1538    -9.8690    -1.2902 H       
  34 H34           -0.5717   -10.8167    -1.3180 H       
  35 H35           -0.5356   -10.8308     1.2201 H       
  36 H36           -2.1177    -9.8831     1.2478 H       
  37 H37            2.9252    -9.4589    -0.0912 H       
  38 H38            1.7985   -10.5025     0.8087 H       
  39 H39            1.7732   -10.4918    -0.9710 H       
  40 H40            2.5728    -6.0202    -0.0674 H       
@<TRIPOS>BOND
   1    1    2 1
   2    1   14 ar
   3    1   11 ar
   4    2    3 3
   5    3    4 1
   6    4    5 ar
   7    4    8 ar
   8    5    9 ar
   9    5   24 1
  10    6    7 ar
  11    6   13 1
  12    6    9 ar
  13    7    8 ar
  14    8   25 1
  15   10   12 ar
  16   10   14 ar
  17   10   26 1
  18   11   15 ar
  19   11   27 1
  20   12   15 ar
  21   12   28 1
  22   13   16 1
  23   13   19 1
  24   14   29 1
  25   15   30 1
  26   16   17 1
  27   16   23 2
  28   17   18 1
  29   17   22 1
  30   18   19 1
  31   18   20 1
  32   18   21 1
  33   19   31 1
  34   19   32 1
  35   20   21 1
  36   20   33 1
  37   20   34 1
  38   21   35 1
  39   21   36 1
  40   22   37 1
  41   22   38 1
  42   22   39 1
  43   23   40 1

#	End of record

