#	Name: ASD03331558
#	Creating user name:	WinNT
#	Creation time:	15. 06. 2019 20:39

#	Modifying user name:	WinNT
#	Modification time:	15. 06. 2019 20:39

#	Program:	/corina/corina34_cracker 3.40 0067  02.08.2006

@<TRIPOS>MOLECULE
ASD03331558
  60   63    0    0    0
SMALL
NO_CHARGES


@<TRIPOS>ATOM
   1 C1             0.1862     0.8376    -0.4400 C.ar    
   2 C2             0.3410    -0.5488    -0.4544 C.ar    
   3 C3             1.3725     1.7157    -0.3412 C.2     
   4 N4             1.4161     3.0354    -0.6849 N.pl3   
   5 C5             2.6897     3.4671    -0.4687 C.2     
   6 C6             3.3929     2.4151     0.0288 C.2     
   7 N7             2.5562     1.3560     0.0967 N.2     
   8 C8             0.3068     3.8578    -1.1742 C.3     
   9 C9             0.8611     4.9974    -2.0327 C.3     
  10 O10            1.1802     6.1183    -1.2063 O.3     
  11 C11            2.1771     5.8697    -0.2190 C.3     
  12 C12            3.1904     4.8567    -0.7621 C.3     
  13 C13            4.8113     2.4289     0.4281 C.2     
  14 O14            5.4624     3.4509     0.3241 O.2     
  15 N15            5.3871     1.3090     0.9086 N.am    
  16 C16            6.7972     1.3228     1.3055 C.3     
  17 C17            7.3587    -0.0726     1.2129 C.2     
  18 N18            8.6710    -0.2560     0.9664 N.am    
  19 O19            6.6298    -1.0307     1.3603 O.2     
  20 C20            6.9168     1.8261     2.7454 C.3     
  21 C21            6.0408     0.9678     3.6601 C.3     
  22 C22            9.1975    -1.6090     0.7702 C.3     
  23 C23           -0.7703    -1.3640    -0.5472 C.ar    
  24 C24           -2.0380    -0.8050    -0.6264 C.ar    
  25 C25           -2.1950     0.5714    -0.6123 C.ar    
  26 C26           -1.0909     1.3935    -0.5248 C.ar    
  27 C27            8.3748     1.7311     3.1994 C.3     
  28 C28            6.4545     3.2829     2.8164 C.3     
  29 F29           -0.6228    -2.7069    -0.5613 F       
  30 F30           -3.1224    -1.6056    -0.7180 F       
  31 C31           10.4792    -1.7560    -0.0523 C.3     
  32 C32           10.5150    -1.9617     1.4634 C.3     
  33 H33            1.3277    -0.9838    -0.3934 H       
  34 H34           -0.3643     3.2434    -1.7744 H       
  35 H35           -0.2394     4.2730    -0.3272 H       
  36 H36            1.7607     4.6589    -2.5468 H       
  37 H37            0.1138     5.2920    -2.7696 H       
  38 H38            2.6886     6.8012     0.0235 H       
  39 H39            1.7073     5.4683     0.6789 H       
  40 H40            4.1545     5.0079    -0.2766 H       
  41 H41            3.2965     4.9872    -1.8390 H       
  42 H42            4.8678     0.4939     0.9915 H       
  43 H43            7.3550     1.9836     0.6420 H       
  44 H44            9.2669     0.5079     0.9188 H       
  45 H45            6.3702    -0.0700     3.6095 H       
  46 H46            6.1260     1.3265     4.6859 H       
  47 H47            5.0021     1.0355     3.3367 H       
  48 H48            8.4490    -2.3963     0.6807 H       
  49 H49           -3.1836     1.0016    -0.6742 H       
  50 H50           -1.2153     2.4663    -0.5140 H       
  51 H51            8.9907     2.3861     2.5831 H       
  52 H52            8.4510     2.0366     4.2429 H       
  53 H53            8.7214     0.7029     3.0956 H       
  54 H54            5.4158     3.3506     2.4930 H       
  55 H55            6.5397     3.6415     3.8422 H       
  56 H56            7.0786     3.8943     2.1647 H       
  57 H57           10.5741    -2.6402    -0.6826 H       
  58 H58           10.9307    -0.8460    -0.4475 H       
  59 H59           10.9901    -1.1871     2.0654 H       
  60 H60           10.6335    -2.9813     1.8302 H       
@<TRIPOS>BOND
   1    1    2 ar
   2    1    3 1
   3    1   26 ar
   4    2   23 ar
   5    2   33 1
   6    3    4 1
   7    3    7 2
   8    4    5 1
   9    4    8 1
  10    5    6 2
  11    5   12 1
  12    6    7 1
  13    6   13 1
  14    8    9 1
  15    8   34 1
  16    8   35 1
  17    9   10 1
  18    9   36 1
  19    9   37 1
  20   10   11 1
  21   11   12 1
  22   11   38 1
  23   11   39 1
  24   12   40 1
  25   12   41 1
  26   13   14 2
  27   13   15 am
  28   15   16 1
  29   15   42 1
  30   16   20 1
  31   16   17 1
  32   16   43 1
  33   17   18 am
  34   17   19 2
  35   18   22 1
  36   18   44 1
  37   20   21 1
  38   20   27 1
  39   20   28 1
  40   21   45 1
  41   21   46 1
  42   21   47 1
  43   22   31 1
  44   22   32 1
  45   22   48 1
  46   23   24 ar
  47   23   29 1
  48   24   25 ar
  49   24   30 1
  50   25   26 ar
  51   25   49 1
  52   26   50 1
  53   27   51 1
  54   27   52 1
  55   27   53 1
  56   28   54 1
  57   28   55 1
  58   28   56 1
  59   31   32 1
  60   31   57 1
  61   31   58 1
  62   32   59 1
  63   32   60 1

#	End of record

