#	Name: ASD01815777
#	Creating user name:	WinNT
#	Creation time:	15. 06. 2019 19:34

#	Modifying user name:	WinNT
#	Modification time:	15. 06. 2019 19:34

#	Program:	/corina/corina34_cracker 3.40 0067  02.08.2006

@<TRIPOS>MOLECULE
ASD01815777
  62   67    0    0    0
SMALL
NO_CHARGES


@<TRIPOS>ATOM
   1 C1            -0.0296     1.2047     0.2158 C.ar    
   2 C2             0.0062    -0.1845     0.1515 C.ar    
   3 C3             1.1922    -0.8540     0.0958 C.ar    
   4 C4             2.3981    -0.1363     0.1033 C.ar    
   5 C5             2.3578     1.2778     0.1689 C.ar    
   6 C6             1.1238     1.9336     0.2248 C.ar    
   7 C7             3.6406    -0.8017     0.0462 C.ar    
   8 C8             4.8059    -0.1115     0.0528 C.ar    
   9 C9             4.8216     1.2906     0.1166 C.ar    
  10 C10            3.6176     2.0157     0.1760 C.ar    
  11 C11            6.0789     2.0493     0.1233 C.2     
  12 N12            5.9928     3.3984     0.1860 N.am    
  13 C13            4.7829     4.0092     0.2404 C.2     
  14 N14            3.6568     3.3574     0.2352 N.2     
  15 C15            7.2155     4.2053     0.1956 C.3     
  16 C16            7.2187     5.1453    -1.0138 C.3     
  17 C17            7.2679     5.0411     1.4782 C.3     
  18 C18            8.5077     5.9384     1.4430 C.3     
  19 O19            8.4631     6.7649     0.2781 O.3     
  20 C20            8.4604     6.0387    -0.9527 C.3     
  21 O21            7.3385     4.1732     2.6112 O.3     
  22 O22            7.1576     1.4862     0.0747 O.2     
  23 C23            3.6720    -2.3068    -0.0228 C.3     
  24 C24            3.5280    -2.7471    -1.4569 C.ar    
  25 C25            4.6456    -2.9237    -2.2602 C.ar    
  26 C26            4.4806    -3.3283    -3.5721 C.ar    
  27 N27            3.2792    -3.5473    -4.0664 N.ar    
  28 C28            2.1855    -3.3899    -3.3318 C.ar    
  29 C29            2.2784    -2.9898    -2.0006 C.ar    
  30 C30            0.8535    -3.6477    -3.9311 C.ar    
  31 C31            0.5214    -3.1119    -5.1729 C.ar    
  32 N32           -0.6614    -3.3394    -5.7075 N.ar    
  33 C33           -1.5715    -4.0764    -5.0969 C.ar    
  34 C34           -1.3157    -4.6447    -3.8581 C.ar    
  35 C35           -0.0862    -4.4373    -3.2604 C.ar    
  36 C36            1.5239    -2.2636    -5.9120 C.3     
  37 F37           -2.7695    -4.2793    -5.6876 F       
  38 H38           -0.9819     1.7126     0.2546 H       
  39 H39           -0.9195    -0.7408     0.1459 H       
  40 H40            1.2038    -1.9328     0.0466 H       
  41 H41            1.0840     3.0117     0.2747 H       
  42 H42            5.7409    -0.6502     0.0084 H       
  43 H43            4.7528     5.0877     0.2904 H       
  44 H44            8.0853     3.5498     0.1502 H       
  45 H45            7.2374     4.5579    -1.9317 H       
  46 H46            6.3225     5.7656    -0.9954 H       
  47 H47            6.3727     5.6592     1.5469 H       
  48 H48            8.5273     6.5665     2.3337 H       
  49 H49            9.4041     5.3189     1.4151 H       
  50 H50            9.3562     5.4205    -1.0119 H       
  51 H51            8.4459     6.7389    -1.7879 H       
  52 H52            7.3745     4.6359     3.4595 H       
  53 H53            4.6199    -2.6691     0.3751 H       
  54 H54            2.8508    -2.7148     0.5666 H       
  55 H55            5.6348    -2.7465    -1.8646 H       
  56 H56            5.3483    -3.4664    -4.2001 H       
  57 H57            1.3874    -2.8625    -1.4036 H       
  58 H58           -2.0670    -5.2454    -3.3673 H       
  59 H59            0.1400    -4.8679    -2.2961 H       
  60 H60            2.1981    -2.9072    -6.4771 H       
  61 H61            1.0005    -1.5958    -6.5962 H       
  62 H62            2.0982    -1.6741    -5.1973 H       
@<TRIPOS>BOND
   1    1    2 ar
   2    1    6 ar
   3    1   38 1
   4    2    3 ar
   5    2   39 1
   6    3    4 ar
   7    3   40 1
   8    4    5 ar
   9    4    7 ar
  10    5    6 ar
  11    5   10 ar
  12    6   41 1
  13    7    8 ar
  14    7   23 1
  15    8    9 ar
  16    8   42 1
  17    9   10 ar
  18    9   11 1
  19   10   14 1
  20   11   12 am
  21   11   22 2
  22   12   13 1
  23   12   15 1
  24   13   14 2
  25   13   43 1
  26   15   16 1
  27   15   17 1
  28   15   44 1
  29   16   20 1
  30   16   45 1
  31   16   46 1
  32   17   18 1
  33   17   21 1
  34   17   47 1
  35   18   19 1
  36   18   48 1
  37   18   49 1
  38   19   20 1
  39   20   50 1
  40   20   51 1
  41   21   52 1
  42   23   24 1
  43   23   53 1
  44   23   54 1
  45   24   25 ar
  46   24   29 ar
  47   25   26 ar
  48   25   55 1
  49   26   27 ar
  50   26   56 1
  51   27   28 ar
  52   28   29 ar
  53   28   30 1
  54   29   57 1
  55   30   31 ar
  56   30   35 ar
  57   31   32 ar
  58   31   36 1
  59   32   33 ar
  60   33   34 ar
  61   33   37 1
  62   34   35 ar
  63   34   58 1
  64   35   59 1
  65   36   60 1
  66   36   61 1
  67   36   62 1

#	End of record

