#	Name: ASD01410950
#	Creating user name:	WinNT
#	Creation time:	15. 06. 2019 19:19

#	Modifying user name:	WinNT
#	Modification time:	15. 06. 2019 19:19

#	Program:	/corina/corina34_cracker 3.40 0067  02.08.2006

@<TRIPOS>MOLECULE
ASD01410950
  47   49    0    0    0
SMALL
NO_CHARGES


@<TRIPOS>ATOM
   1 C1            -0.0268     1.3250    -0.2201 C.ar    
   2 C2             1.1509     2.0226    -0.4200 C.ar    
   3 C3             2.3669     1.4009    -0.2062 C.ar    
   4 C4             2.4062     0.0825     0.2073 C.ar    
   5 C5             1.2294    -0.6152     0.4072 C.ar    
   6 C6             0.0131     0.0052     0.1938 C.ar    
   7 Cl7           -1.5544     2.1073    -0.4815 Cl      
   8 P8             4.0023    -0.7328     0.4871 P.3     
   9 N9             4.5701    -1.3249    -0.9330 N.pl3   
  10 O10            4.9674     0.2468     1.0343 O.2     
  11 C11            5.7887    -1.9970    -0.9693 C.2     
  12 C12            6.3193    -2.5168    -2.1274 C.2     
  13 S13            7.8602    -3.2871    -1.7763 S.3     
  14 C14            7.7239    -2.8738    -0.0732 C.2     
  15 C15            6.5661    -2.1922     0.1485 C.2     
  16 C16            5.7183    -2.4429    -3.4028 C.2     
  17 O17            4.6449    -1.8847    -3.5385 O.2     
  18 O18            6.3339    -2.9913    -4.4720 O.3     
  19 C19            8.7214    -3.2113     0.9638 C.ar    
  20 C20            9.8798    -3.9106     0.6207 C.ar    
  21 C21           10.8070    -4.2227     1.5929 C.ar    
  22 C22           10.5903    -3.8442     2.9073 C.ar    
  23 C23            9.4428    -3.1507     3.2539 C.ar    
  24 C24            8.5115    -2.8270     2.2894 C.ar    
  25 O25            3.8116    -1.9407     1.5343 O.3     
  26 C26            3.3295    -1.7478     2.8656 C.3     
  27 Cl27          11.7616    -4.2412     4.1256 Cl      
  28 C28            3.6501     2.1605    -0.4243 C.3     
  29 C29            3.2698    -3.0958     3.5868 C.3     
  30 H30            1.1204     3.0526    -0.7434 H       
  31 H31            1.2607    -1.6453     0.7303 H       
  32 H32           -0.9060    -0.5398     0.3503 H       
  33 H33            4.0569    -1.2068    -1.7475 H       
  34 H34            6.2788    -1.8357     1.1267 H       
  35 H35            5.8465    -2.8905    -5.3011 H       
  36 H36           10.0495    -4.2069    -0.4039 H       
  37 H37           11.7036    -4.7637     1.3287 H       
  38 H38            9.2791    -2.8585     4.2806 H       
  39 H39            7.6194    -2.2817     2.5599 H       
  40 H40            4.0019    -1.0782     3.4021 H       
  41 H41            2.3320    -1.3098     2.8309 H       
  42 H42            3.9973     2.5675     0.5253 H       
  43 H43            4.4061     1.4879    -0.8295 H       
  44 H44            3.4749     2.9755    -1.1266 H       
  45 H45            2.9021    -2.9487     4.6023 H       
  46 H46            2.5975    -3.7654     3.0504 H       
  47 H47            4.2673    -3.5338     3.6215 H       
@<TRIPOS>BOND
   1    1    2 ar
   2    1    6 ar
   3    1    7 1
   4    2    3 ar
   5    2   30 1
   6    3    4 ar
   7    3   28 1
   8    4    5 ar
   9    4    8 1
  10    5    6 ar
  11    5   31 1
  12    6   32 1
  13    8    9 1
  14    8   10 2
  15    8   25 1
  16    9   11 1
  17    9   33 1
  18   11   12 2
  19   11   15 1
  20   12   13 1
  21   12   16 1
  22   13   14 1
  23   14   15 2
  24   14   19 1
  25   15   34 1
  26   16   17 2
  27   16   18 1
  28   18   35 1
  29   19   20 ar
  30   19   24 ar
  31   20   21 ar
  32   20   36 1
  33   21   22 ar
  34   21   37 1
  35   22   23 ar
  36   22   27 1
  37   23   24 ar
  38   23   38 1
  39   24   39 1
  40   25   26 1
  41   26   29 1
  42   26   40 1
  43   26   41 1
  44   28   42 1
  45   28   43 1
  46   28   44 1
  47   29   45 1
  48   29   46 1
  49   29   47 1

#	End of record

