#	Name: ASD01410687
#	Creating user name:	WinNT
#	Creation time:	15. 06. 2019 19:18

#	Modifying user name:	WinNT
#	Modification time:	15. 06. 2019 19:18

#	Program:	/corina/corina34_cracker 3.40 0067  02.08.2006

@<TRIPOS>MOLECULE
ASD01410687
  62   64    0    0    0
SMALL
NO_CHARGES


@<TRIPOS>ATOM
   1 C1             1.2546     2.9796    -3.1878 C.ar    
   2 C2             1.7494     2.2140    -4.2514 C.ar    
   3 C3             2.9207     1.4799    -4.0689 C.ar    
   4 N4             3.5550     1.5039    -2.9145 N.ar    
   5 C5             3.1132     2.2171    -1.8908 C.ar    
   6 C6             1.9524     2.9749    -1.9957 C.ar    
   7 O7             3.8025     2.2081    -0.7227 O.3     
   8 C8             4.8741     1.3770    -0.6201 C.ar    
   9 C9             6.1009     1.7562    -1.1593 C.ar    
  10 C10            7.1960     0.9182    -1.0600 C.ar    
  11 C11            7.0786    -0.3078    -0.4213 C.ar    
  12 C12            5.8441    -0.6949     0.1241 C.ar    
  13 C13            4.7437     0.1617     0.0237 C.ar    
  14 F14            6.2213     2.9486    -1.7829 F       
  15 N15            8.1819    -1.1522    -0.3217 N.am    
  16 C16            8.9246    -1.1608     0.8029 C.2     
  17 C17            8.5351    -2.0309    -1.4394 C.3     
  18 O18            9.9288    -1.8427     0.8628 O.2     
  19 C19            8.5172    -0.3394     1.9655 C.ar    
  20 N20            7.3658     0.3211     1.9333 N.ar    
  21 C21            6.9667     1.0614     2.9437 C.ar    
  22 C22            7.7411     1.1803     4.0891 C.ar    
  23 C23            8.9515     0.5066     4.1639 C.ar    
  24 C24            9.3427    -0.2709     3.0858 C.ar    
  25 C25            7.3757    -2.0785    -2.4367 C.3     
  26 C26            9.7857    -1.4918    -2.1366 C.3     
  27 C27            1.0401     2.1844    -5.5476 C.2     
  28 O28           10.8970    -1.5593    -1.2408 O.3     
  29 C29           12.1219    -1.0771    -1.7967 C.3     
  30 C30            1.5171     1.4564    -6.5478 C.2     
  31 Cl31           7.2009     2.1627     5.4145 Cl      
  32 O32            6.2538    -2.7250    -1.8324 O.3     
  33 C33            5.1106    -2.8222    -2.6843 C.3     
  34 C34            1.4611     3.7826    -0.8221 C.3     
  35 F35            0.2846     4.4516    -1.1762 F       
  36 F36            1.2058     2.9296     0.2570 F       
  37 F37            2.4369     4.7165    -0.4575 F       
  38 C38            5.7104    -1.9943     0.8038 C.2     
  39 O39            6.6890    -2.6946     0.9738 O.2     
  40 O40            4.5029    -2.4070     1.2373 O.3     
  41 H41            0.3523     3.5627    -3.2984 H       
  42 H42            3.3116     0.8857    -4.8816 H       
  43 H43            8.1443     1.2182    -1.4807 H       
  44 H44            3.7913    -0.1299     0.4410 H       
  45 H45            8.7327    -3.0349    -1.0639 H       
  46 H46            6.0238     1.5843     2.8814 H       
  47 H47            9.5725     0.5827     5.0443 H       
  48 H48           10.2787    -0.8091     3.1099 H       
  49 H49            7.0999    -1.0633    -2.7219 H       
  50 H50            7.6815    -2.6345    -3.3230 H       
  51 H51            9.9956    -2.0922    -3.0218 H       
  52 H52            9.6192    -0.4557    -2.4315 H       
  53 H53            0.1333     2.7558    -5.6801 H       
  54 H54           12.3802    -1.6689    -2.6748 H       
  55 H55           12.0038    -0.0324    -2.0845 H       
  56 H56           12.9159    -1.1620    -1.0548 H       
  57 H57            2.4240     0.8850    -6.4153 H       
  58 H58            0.9988     1.4348    -7.4951 H       
  59 H59            4.7878    -1.8224    -2.9746 H       
  60 H60            5.3693    -3.3936    -3.5757 H       
  61 H61            4.3027    -3.3248    -2.1524 H       
  62 H62            4.4649    -3.2671     1.6777 H       
@<TRIPOS>BOND
   1    1    2 ar
   2    1    6 ar
   3    1   41 1
   4    2    3 ar
   5    2   27 1
   6    3    4 ar
   7    3   42 1
   8    4    5 ar
   9    5    6 ar
  10    5    7 1
  11    6   34 1
  12    7    8 1
  13    8    9 ar
  14    8   13 ar
  15    9   10 ar
  16    9   14 1
  17   10   11 ar
  18   10   43 1
  19   11   12 ar
  20   11   15 1
  21   12   13 ar
  22   12   38 1
  23   13   44 1
  24   15   16 am
  25   15   17 1
  26   16   18 2
  27   16   19 1
  28   17   25 1
  29   17   26 1
  30   17   45 1
  31   19   20 ar
  32   19   24 ar
  33   20   21 ar
  34   21   22 ar
  35   21   46 1
  36   22   23 ar
  37   22   31 1
  38   23   24 ar
  39   23   47 1
  40   24   48 1
  41   25   32 1
  42   25   49 1
  43   25   50 1
  44   26   28 1
  45   26   51 1
  46   26   52 1
  47   27   30 2
  48   27   53 1
  49   28   29 1
  50   29   54 1
  51   29   55 1
  52   29   56 1
  53   30   57 1
  54   30   58 1
  55   32   33 1
  56   33   59 1
  57   33   60 1
  58   33   61 1
  59   34   35 1
  60   34   36 1
  61   34   37 1
  62   38   39 2
  63   38   40 1
  64   40   62 1

#	End of record

