#	Name: ASD01940442
#	Creating user name:	WinNT
#	Creation time:	15. 06. 2019 20:12

#	Modifying user name:	WinNT
#	Modification time:	15. 06. 2019 20:12

#	Program:	/corina/corina34_cracker 3.40 0067  02.08.2006

@<TRIPOS>MOLECULE
ASD01940442
  45   46    0    0    0
SMALL
NO_CHARGES


@<TRIPOS>ATOM
   1 N1            -0.0169     1.3942     0.0097 N.am    
   2 N2             0.0021    -0.0041     0.0020 N.2     
   3 C3             1.2290    -0.4359    -0.0120 C.2     
   4 C4             2.1134     0.7287    -0.0142 C.ar    
   5 C5             3.5000     0.8902    -0.0266 C.ar    
   6 C6             4.0380     2.1743    -0.0248 C.ar    
   7 C7             3.1903     3.2922    -0.0103 C.ar    
   8 C8             1.8365     3.1370     0.0023 C.ar    
   9 C9             1.2763     1.8612    -0.0001 C.ar    
  10 C10           -1.1251     2.1612     0.0193 C.2     
  11 O11           -1.0259     3.3716     0.0249 O.2     
  12 O12           -2.3417     1.5857     0.0226 O.3     
  13 C13            5.5013     2.3597    -0.0378 C.2     
  14 O14            6.2362     1.3922    -0.0500 O.2     
  15 O15            6.0230     3.6020    -0.0361 O.3     
  16 Br16           4.6368    -0.6209    -0.0449 Br      
  17 C17           -3.4908     2.4733     0.0331 C.3     
  18 C18           -3.4599     3.3622    -1.2118 C.3     
  19 C19           -4.7762     1.6435     0.0355 C.3     
  20 C20           -3.4470     3.3495     1.2866 C.3     
  21 C21            7.4710     3.7089    -0.0494 C.3     
  22 C22            8.0207     3.0339    -1.3075 C.3     
  23 C23            7.8735     5.1850    -0.0453 C.3     
  24 C24            8.0446     3.0204     1.1908 C.3     
  25 H25            1.5393    -1.4703    -0.0202 H       
  26 H26            3.6148     4.2853    -0.0086 H       
  27 H27            1.1954     4.0061     0.0142 H       
  28 H28           -3.4911     2.7380    -2.1049 H       
  29 H29           -4.3225     4.0285    -1.2040 H       
  30 H30           -2.5441     3.9534    -1.2136 H       
  31 H31           -4.7982     1.0102     0.9224 H       
  32 H32           -5.6388     2.3098     0.0433 H       
  33 H33           -4.8074     1.0193    -0.8575 H       
  34 H34           -2.5313     3.9407     1.2849 H       
  35 H35           -4.3096     4.0158     1.2944 H       
  36 H36           -3.4691     2.7162     2.1735 H       
  37 H37            7.6121     3.5243    -2.1910 H       
  38 H38            9.1077     3.1141    -1.3175 H       
  39 H39            7.7340     1.9823    -1.3105 H       
  40 H40            7.4818     5.6659     0.8511 H       
  41 H41            8.9605     5.2652    -0.0552 H       
  42 H42            7.4649     5.6755    -0.9288 H       
  43 H43            7.7579     1.9688     1.1879 H       
  44 H44            9.1316     3.1007     1.1808 H       
  45 H45            7.6530     3.5013     2.0871 H       
@<TRIPOS>BOND
   1    1    2 1
   2    1    9 1
   3    1   10 am
   4    2    3 2
   5    3    4 1
   6    3   25 1
   7    4    5 ar
   8    4    9 ar
   9    5    6 ar
  10    5   16 1
  11    6    7 ar
  12    6   13 1
  13    7    8 ar
  14    7   26 1
  15    8    9 ar
  16    8   27 1
  17   10   11 2
  18   10   12 1
  19   12   17 1
  20   13   14 2
  21   13   15 1
  22   15   21 1
  23   17   18 1
  24   17   20 1
  25   17   19 1
  26   18   28 1
  27   18   29 1
  28   18   30 1
  29   19   31 1
  30   19   32 1
  31   19   33 1
  32   20   34 1
  33   20   35 1
  34   20   36 1
  35   21   22 1
  36   21   24 1
  37   21   23 1
  38   22   37 1
  39   22   38 1
  40   22   39 1
  41   23   40 1
  42   23   41 1
  43   23   42 1
  44   24   43 1
  45   24   44 1
  46   24   45 1

#	End of record

