#	Name: ASD05503010
#	Creating user name:	WinNT
#	Creation time:	15. 06. 2019 21:01

#	Modifying user name:	WinNT
#	Modification time:	15. 06. 2019 21:01

#	Program:	/corina/corina34_cracker 3.40 0067  02.08.2006

@<TRIPOS>MOLECULE
ASD05503010
  49   51    0    0    0
SMALL
NO_CHARGES


@<TRIPOS>ATOM
   1 C1            -0.0874     1.0516     0.4390 C.ar    
   2 C2             0.0186    -0.1448    -0.2588 C.ar    
   3 C3             1.2502    -0.7742    -0.3709 C.ar    
   4 C4             2.3722    -0.2059     0.2149 C.ar    
   5 C5             2.2594     0.9912     0.9116 C.ar    
   6 C6             1.0319     1.6152     1.0212 C.ar    
   7 N7            -1.1155    -0.7149    -0.8477 N.am    
   8 C8            -1.0061    -1.3818    -2.0138 C.2     
   9 C9            -2.2005    -2.1016    -2.5850 C.3     
  10 O10            0.0536    -1.4026    -2.6035 O.2     
  11 C11           -1.8096    -2.7716    -3.9038 C.3     
  12 C12           -3.0222    -3.5024    -4.4837 C.3     
  13 N13            3.6151    -0.8372     0.1047 N.am    
  14 C14            4.7380    -0.1000    -0.0054 C.2     
  15 C15            6.0386    -0.7640    -0.2199 C.ar    
  16 O16            4.6796     1.1120     0.0720 O.2     
  17 C17            6.2300    -2.0827     0.1924 C.ar    
  18 C18            7.4477    -2.6986    -0.0111 C.ar    
  19 C19            8.4850    -2.0155    -0.6236 C.ar    
  20 C20            8.3140    -0.7095    -1.0380 C.ar    
  21 C21            7.0913    -0.0729    -0.8469 C.ar    
  22 C22            6.9034     1.3287    -1.2900 C.ar    
  23 C23            7.7539     2.3303    -0.8234 C.ar    
  24 C24            7.5742     3.6335    -1.2400 C.ar    
  25 C25            6.5528     3.9471    -2.1187 C.ar    
  26 C26            5.7056     2.9578    -2.5847 C.ar    
  27 C27            5.8790     1.6500    -2.1797 C.ar    
  28 H28           -1.0449     1.5442     0.5227 H       
  29 H29            1.3351    -1.7047    -0.9126 H       
  30 H30            3.1323     1.4340     1.3681 H       
  31 H31            0.9469     2.5454     1.5632 H       
  32 H32           -1.9803    -0.6302    -0.4167 H       
  33 H33           -2.5398    -2.8596    -1.8790 H       
  34 H34           -3.0037    -1.3870    -2.7647 H       
  35 H35           -1.4703    -2.0136    -4.6098 H       
  36 H36           -1.0064    -3.4862    -3.7242 H       
  37 H37           -3.3615    -4.2604    -3.7777 H       
  38 H38           -3.8254    -2.7877    -4.6634 H       
  39 H39           -2.7437    -3.9797    -5.4233 H       
  40 H40            3.6691    -1.8057     0.1075 H       
  41 H41            5.4255    -2.6213     0.6711 H       
  42 H42            7.5930    -3.7196     0.3096 H       
  43 H43            9.4340    -2.5074    -0.7778 H       
  44 H44            9.1280    -0.1833    -1.5143 H       
  45 H45            8.5514     2.0867    -0.1371 H       
  46 H46            8.2321     4.4102    -0.8791 H       
  47 H47            6.4161     4.9685    -2.4420 H       
  48 H48            4.9097     3.2086    -3.2703 H       
  49 H49            5.2171     0.8784    -2.5444 H       
@<TRIPOS>BOND
   1    1    2 ar
   2    1    6 ar
   3    1   28 1
   4    2    3 ar
   5    2    7 1
   6    3    4 ar
   7    3   29 1
   8    4    5 ar
   9    4   13 1
  10    5    6 ar
  11    5   30 1
  12    6   31 1
  13    7    8 am
  14    7   32 1
  15    8    9 1
  16    8   10 2
  17    9   11 1
  18    9   33 1
  19    9   34 1
  20   11   12 1
  21   11   35 1
  22   11   36 1
  23   12   37 1
  24   12   38 1
  25   12   39 1
  26   13   14 am
  27   13   40 1
  28   14   15 1
  29   14   16 2
  30   15   17 ar
  31   15   21 ar
  32   17   18 ar
  33   17   41 1
  34   18   19 ar
  35   18   42 1
  36   19   20 ar
  37   19   43 1
  38   20   21 ar
  39   20   44 1
  40   21   22 1
  41   22   23 ar
  42   22   27 ar
  43   23   24 ar
  44   23   45 1
  45   24   25 ar
  46   24   46 1
  47   25   26 ar
  48   25   47 1
  49   26   27 ar
  50   26   48 1
  51   27   49 1

#	End of record

