#	Name: ASD01870299
#	Creating user name:	WinNT
#	Creation time:	15. 06. 2019 19:39

#	Modifying user name:	WinNT
#	Modification time:	15. 06. 2019 19:39

#	Program:	/corina/corina34_cracker 3.40 0067  02.08.2006

@<TRIPOS>MOLECULE
ASD01870299
  37   39    0    0    0
SMALL
NO_CHARGES


@<TRIPOS>ATOM
   1 N1            -0.4119     1.5961     0.1353 N.2     
   2 C2            -0.6922     0.3002     0.1684 C.2     
   3 C3             0.3675    -0.5146     0.3260 C.2     
   4 S4             1.8166     0.4818     0.4371 S.3     
   5 C5             0.8342     1.9321     0.2566 C.2     
   6 N6             1.3190     3.2331     0.2449 N.am    
   7 C7             2.7554     3.4809     0.3917 C.3     
   8 C8             0.4681     4.2680     0.0985 C.2     
   9 C9             0.9630     5.6539     0.2221 C.ar    
  10 O10           -0.7068     4.0607    -0.1352 O.2     
  11 C11            2.1448     6.0357    -0.4170 C.ar    
  12 C12            0.2479     6.5891     0.9737 C.ar    
  13 C13            0.7141     7.8814     1.0852 C.ar    
  14 C14            1.8904     8.2538     0.4526 C.ar    
  15 C15            2.6018     7.3307    -0.2987 C.ar    
  16 F16            2.3427     9.5219     0.5649 F       
  17 C17           -2.0757    -0.2146     0.0412 C.ar    
  18 C18           -3.1343     0.6788    -0.1202 C.ar    
  19 C19           -4.4201     0.1829    -0.2376 C.ar    
  20 C20           -4.6075    -1.1921    -0.1897 C.ar    
  21 C21           -3.5133    -2.0204    -0.0276 C.ar    
  22 N22           -2.2972    -1.5229     0.0764 N.ar    
  23 C23            3.4468     3.2889    -0.9596 C.3     
  24 H24            0.3351    -1.5930     0.3764 H       
  25 H25            2.9143     4.5016     0.7395 H       
  26 H26            3.1726     2.7812     1.1160 H       
  27 H27            2.6996     5.3176    -1.0025 H       
  28 H28           -0.6688     6.3003     1.4662 H       
  29 H29            0.1620     8.6053     1.6661 H       
  30 H30            3.5155     7.6270    -0.7925 H       
  31 H31           -2.9526     1.7429    -0.1528 H       
  32 H32           -5.2598     0.8504    -0.3632 H       
  33 H33           -5.5993    -1.6104    -0.2781 H       
  34 H34           -3.6561    -3.0903     0.0099 H       
  35 H35            3.4458     2.2308    -1.2211 H       
  36 H36            2.9126     3.8527    -1.7243 H       
  37 H37            4.4745     3.6466    -0.8959 H       
@<TRIPOS>BOND
   1    1    2 1
   2    1    5 2
   3    2    3 2
   4    2   17 1
   5    3    4 1
   6    3   24 1
   7    4    5 1
   8    5    6 1
   9    6    7 1
  10    6    8 am
  11    7   23 1
  12    7   25 1
  13    7   26 1
  14    8    9 1
  15    8   10 2
  16    9   12 ar
  17    9   11 ar
  18   11   15 ar
  19   11   27 1
  20   12   13 ar
  21   12   28 1
  22   13   14 ar
  23   13   29 1
  24   14   15 ar
  25   14   16 1
  26   15   30 1
  27   17   18 ar
  28   17   22 ar
  29   18   19 ar
  30   18   31 1
  31   19   20 ar
  32   19   32 1
  33   20   21 ar
  34   20   33 1
  35   21   22 ar
  36   21   34 1
  37   23   35 1
  38   23   36 1
  39   23   37 1

#	End of record

