#	Name: ASD01918000
#	Creating user name:	WinNT
#	Creation time:	15. 06. 2019 20:10

#	Modifying user name:	WinNT
#	Modification time:	15. 06. 2019 20:10

#	Program:	/corina/corina34_cracker 3.40 0067  02.08.2006

@<TRIPOS>MOLECULE
ASD01918000
  40   43    0    0    0
SMALL
NO_CHARGES


@<TRIPOS>ATOM
   1 N1             4.8199    -0.4117    -2.1418 N.ar    
   2 C2             5.2870     0.2863    -3.1581 C.ar    
   3 C3             5.1750     1.6654    -3.1837 C.ar    
   4 C4             4.5622     2.3139    -2.1227 C.ar    
   5 C5             4.0810     1.5454    -1.0672 C.ar    
   6 C6             4.2308     0.1669    -1.1141 C.ar    
   7 O7             3.4733     2.1368    -0.0053 O.3     
   8 C8             3.4546     3.4960     0.0443 C.2     
   9 N9             2.2050     5.5106    -0.0212 N.pl3   
  10 C10            2.2729     4.1508    -0.0652 C.2     
  11 C11            4.6572     4.1965     0.2135 C.2     
  12 C12            4.6347     5.5843     0.2642 C.2     
  13 C13            3.3432     6.2621     0.1374 C.2     
  14 C14            5.8772     6.3538     0.4413 C.2     
  15 N15            5.8352     7.7001     0.4881 N.am    
  16 C16            6.9937     8.4240     0.7608 C.ar    
  17 N17            8.1524     7.7922     0.8659 N.ar    
  18 C18            6.9234     9.8039     0.9146 C.ar    
  19 C19            8.0820    10.5109     1.1849 C.ar    
  20 C20            9.2754     9.8104     1.2925 C.ar    
  21 C21            9.2726     8.4397     1.1227 C.ar    
  22 O22            6.9417     5.7745     0.5454 O.2     
  23 C23            1.1809     6.4046    -0.1033 C.2     
  24 N24            1.6967     7.6021    -0.0066 N.2     
  25 N25            2.9730     7.5273     0.1418 N.2     
  26 Cl26           5.7950     2.5723    -4.5278 Cl      
  27 C27           10.5618    10.5385     1.5858 C.3     
  28 H28            5.7637    -0.2250    -3.9814 H       
  29 H29            4.4610     3.3892    -2.1154 H       
  30 H30            3.8608    -0.4386    -0.3000 H       
  31 H31            1.3639     3.5811    -0.1906 H       
  32 H32            5.5916     3.6624     0.3039 H       
  33 H33            4.9983     8.1649     0.3318 H       
  34 H34            5.9775    10.3173     0.8240 H       
  35 H35            8.0581    11.5835     1.3090 H       
  36 H36           10.1995     7.8909     1.2014 H       
  37 H37            0.1350     6.1680    -0.2318 H       
  38 H38           10.7104    10.5936     2.6642 H       
  39 H39           11.3947    10.0021     1.1311 H       
  40 H40           10.5108    11.5465     1.1741 H       
@<TRIPOS>BOND
   1    1    2 ar
   2    1    6 ar
   3    2    3 ar
   4    2   28 1
   5    3    4 ar
   6    3   26 1
   7    4    5 ar
   8    4   29 1
   9    5    6 ar
  10    5    7 1
  11    6   30 1
  12    7    8 1
  13    8   11 1
  14    8   10 2
  15    9   10 1
  16    9   23 1
  17    9   13 1
  18   10   31 1
  19   11   12 2
  20   11   32 1
  21   12   13 1
  22   12   14 1
  23   13   25 2
  24   14   15 am
  25   14   22 2
  26   15   16 1
  27   15   33 1
  28   16   18 ar
  29   16   17 ar
  30   17   21 ar
  31   18   19 ar
  32   18   34 1
  33   19   20 ar
  34   19   35 1
  35   20   21 ar
  36   20   27 1
  37   21   36 1
  38   23   24 2
  39   23   37 1
  40   24   25 1
  41   27   38 1
  42   27   39 1
  43   27   40 1

#	End of record

