#	Name: ASD02030366
#	Creating user name:	WinNT
#	Creation time:	15. 06. 2019 20:15

#	Modifying user name:	WinNT
#	Modification time:	15. 06. 2019 20:15

#	Program:	/corina/corina34_cracker 3.40 0067  02.08.2006

@<TRIPOS>MOLECULE
ASD02030366
  37   38    0    0    0
SMALL
NO_CHARGES


@<TRIPOS>ATOM
   1 C1            -0.0184     1.5028     0.0103 C.3     
   2 C2             0.0021    -0.0041     0.0020 C.2     
   3 O3            -1.1511    -0.6910     0.0093 O.3     
   4 O4             1.0565    -0.5939    -0.0112 O.2     
   5 F5             1.2941     1.9870     0.0004 F       
   6 F6            -0.6950     1.9662    -1.1231 F       
   7 F7            -0.6732     1.9539     1.1613 F       
   8 H8            -1.0874    -1.6558     0.0035 H       
   9 N9             7.3074    10.3239     8.3923 N.3     
  10 C10            7.3190     8.8559     8.3096 C.3     
  11 C11            8.0390     8.4205     7.0303 C.3     
  12 N12            9.3958     8.9866     7.0279 N.am    
  13 C13            9.5416    10.4413     7.2072 C.3     
  14 C14            8.6779    10.8550     8.4048 C.3     
  15 C15           10.4758     8.1967     6.8667 C.2     
  16 O16           10.3455     6.9870     6.8331 O.2     
  17 C17           11.8071     8.7942     6.7318 C.2     
  18 C18           12.9918     8.1148     6.6959 C.2     
  19 O19           12.0768    10.1115     6.6156 O.3     
  20 C20           13.4011    10.2868     6.5126 C.2     
  21 C21           14.0047     9.0760     6.5582 C.2     
  22 Br22          15.8633     8.7427     6.4555 Br      
  23 Br23          14.2813    11.9504     6.3292 Br      
  24 C24            8.8991    12.2477     8.9924 C.3     
  25 C25            9.3703    11.0094     9.7582 C.3     
  26 H26            6.7712    10.7243     7.6371 H       
  27 H27            7.8392     8.4475     9.1760 H       
  28 H28            6.2941     8.4850     8.2937 H       
  29 H29            8.0977     7.3326     6.9970 H       
  30 H30            7.4906     8.7842     6.1613 H       
  31 H31           10.5855    10.6862     7.4028 H       
  32 H32            9.2019    10.9596     6.3105 H       
  33 H33           13.1232     7.0449     6.7610 H       
  34 H34            9.6619    12.8740     8.5297 H       
  35 H35            8.0268    12.7760     9.3774 H       
  36 H36            8.8080    10.7229    10.6469 H       
  37 H37           10.4431    10.8209     9.7992 H       
@<TRIPOS>BOND
   1    1    2 1
   2    1    5 1
   3    1    6 1
   4    1    7 1
   5    2    3 1
   6    2    4 2
   7    3    8 1
   8    9   10 1
   9    9   14 1
  10    9   26 1
  11   10   11 1
  12   10   27 1
  13   10   28 1
  14   11   12 1
  15   11   29 1
  16   11   30 1
  17   12   13 1
  18   12   15 am
  19   13   14 1
  20   13   31 1
  21   13   32 1
  22   14   24 1
  23   14   25 1
  24   15   16 2
  25   15   17 1
  26   17   19 1
  27   17   18 2
  28   18   21 1
  29   18   33 1
  30   19   20 1
  31   20   21 2
  32   20   23 1
  33   21   22 1
  34   24   25 1
  35   24   34 1
  36   24   35 1
  37   25   36 1
  38   25   37 1

#	End of record

