#	Name: ASD02580002
#	Creating user name:	WinNT
#	Creation time:	15. 06. 2019 20:25

#	Modifying user name:	WinNT
#	Modification time:	15. 06. 2019 20:25

#	Program:	/corina/corina34_cracker 3.40 0067  02.08.2006

@<TRIPOS>MOLECULE
ASD02580002
  81   83    0    0    0
SMALL
NO_CHARGES


@<TRIPOS>ATOM
   1 C1             0.7419     0.3287     1.4703 C.3     
   2 C2             0.7965    -1.2087     1.6439 C.3     
   3 C3             0.7180    -1.4198     3.1683 C.3     
   4 O4             0.6771    -0.1188     3.7783 O.3     
   5 C5             0.1045     0.7839     2.8078 C.3     
   6 C6            -0.3965    -1.8687     0.9497 C.3     
   7 O7             2.0238    -1.7271     1.1271 O.3     
   8 C8             1.9528    -2.1826     3.6522 C.3     
   9 O9             1.8145    -2.4800     5.0667 O.3     
  10 O10            2.0762     0.8807     1.3178 O.3     
  11 C11            2.1939     1.9947     0.5782 C.2     
  12 O12            1.2145     2.4921     0.0751 O.2     
  13 C13            3.5477     2.6250     0.3756 C.3     
  14 C14            4.4782     1.6244    -0.3127 C.3     
  15 C15            3.4038     3.8723    -0.4987 C.3     
  16 C16            5.8911     2.2072    -0.3835 C.3     
  17 C17            2.6118     4.9387     0.2606 C.3     
  18 C18            2.3702     6.1417    -0.6533 C.3     
  19 C19            6.8478     1.1578    -0.9531 C.3     
  20 N20            0.4743     2.1688     3.1104 N.pl3   
  21 C21           -0.2077     3.2944     2.7226 C.ar    
  22 C22            0.5153     4.3826     3.2393 C.ar    
  23 N23            1.5811     3.8746     3.9033 N.2     
  24 C24            1.5557     2.5753     3.8339 C.2     
  25 N25           -1.3126     3.5274     2.0214 N.ar    
  26 C26           -1.7270     4.7589     1.8119 C.ar    
  27 N27           -1.0811     5.8130     2.2768 N.ar    
  28 C28            0.0331     5.6787     2.9883 C.ar    
  29 N29            0.7030     6.7892     3.4712 N.pl3   
  30 C30            2.8206    -3.1507     5.6496 C.2     
  31 O31            3.7848    -3.4784     4.9995 O.2     
  32 C32            2.7474    -3.4950     7.1149 C.3     
  33 C33            1.5204    -4.3721     7.3721 C.3     
  34 C34            4.0114    -4.2535     7.5244 C.3     
  35 C35            5.2201    -3.3205     7.4270 C.3     
  36 C36            1.3650    -4.6033     8.8765 C.3     
  37 C37            6.4976    -4.1081     7.7245 C.3     
  38 C38            0.2024    -5.5657     9.1272 C.3     
  39 H39            0.1107     0.6025     0.6249 H       
  40 H40           -0.1854    -1.9754     3.4195 H       
  41 H41           -0.9793     0.6737     2.7737 H       
  42 H42           -0.3749    -1.6314    -0.1139 H       
  43 H43           -0.3417    -2.9493     1.0821 H       
  44 H44           -1.3229    -1.4958     1.3865 H       
  45 H45            2.1115    -2.6865     1.2099 H       
  46 H46            2.0473    -3.1133     3.0928 H       
  47 H47            2.8420    -1.5721     3.4945 H       
  48 H48            3.9664     2.9051     1.3422 H       
  49 H49            4.4968     0.6948     0.2562 H       
  50 H50            4.1161     1.4258    -1.3214 H       
  51 H51            4.3925     4.2600    -0.7441 H       
  52 H52            2.8767     3.6135    -1.4170 H       
  53 H53            5.8897     3.0858    -1.0287 H       
  54 H54            6.2174     2.4915     0.6168 H       
  55 H55            1.6544     4.5242     0.5763 H       
  56 H56            3.1771     5.2558     1.1370 H       
  57 H57            3.3277     6.5563    -0.9690 H       
  58 H58            1.8049     5.8246    -1.5296 H       
  59 H59            1.8060     6.9015    -0.1123 H       
  60 H60            7.8543     1.5730    -1.0035 H       
  61 H61            6.8491     0.2792    -0.3079 H       
  62 H62            6.5214     0.8735    -1.9534 H       
  63 H63            2.2878     1.9166     4.2773 H       
  64 H64           -2.6287     4.9134     1.2380 H       
  65 H65            0.3601     7.6786     3.2915 H       
  66 H66            1.5155     6.6782     3.9893 H       
  67 H67            2.6680    -2.5787     7.6999 H       
  68 H68            0.6306    -3.8740     6.9872 H       
  69 H69            1.6469    -5.3305     6.8684 H       
  70 H70            3.9069    -4.6068     8.5502 H       
  71 H71            4.1554    -5.1052     6.8596 H       
  72 H72            5.2766    -2.9028     6.4218 H       
  73 H73            5.1146    -2.5124     8.1509 H       
  74 H74            2.2843    -5.0324     9.2751 H       
  75 H75            1.1633    -3.6531     9.3712 H       
  76 H76            7.3587    -3.4434     7.6552 H       
  77 H77            6.4411    -4.5258     8.7297 H       
  78 H78            6.6032    -4.9162     7.0007 H       
  79 H79           -0.7169    -5.1366     8.7287 H       
  80 H80            0.4041    -6.5158     8.6325 H       
  81 H81            0.0917    -5.7304    10.1990 H       
@<TRIPOS>BOND
   1    1    2 1
   2    1   10 1
   3    1    5 1
   4    1   39 1
   5    2    6 1
   6    2    7 1
   7    2    3 1
   8    3    4 1
   9    3    8 1
  10    3   40 1
  11    4    5 1
  12    5   20 1
  13    5   41 1
  14    6   42 1
  15    6   43 1
  16    6   44 1
  17    7   45 1
  18    8    9 1
  19    8   46 1
  20    8   47 1
  21    9   30 1
  22   10   11 1
  23   11   12 2
  24   11   13 1
  25   13   14 1
  26   13   15 1
  27   13   48 1
  28   14   16 1
  29   14   49 1
  30   14   50 1
  31   15   17 1
  32   15   51 1
  33   15   52 1
  34   16   19 1
  35   16   53 1
  36   16   54 1
  37   17   18 1
  38   17   55 1
  39   17   56 1
  40   18   57 1
  41   18   58 1
  42   18   59 1
  43   19   60 1
  44   19   61 1
  45   19   62 1
  46   20   21 1
  47   20   24 1
  48   21   22 ar
  49   21   25 ar
  50   22   23 1
  51   22   28 ar
  52   23   24 2
  53   24   63 1
  54   25   26 ar
  55   26   27 ar
  56   26   64 1
  57   27   28 ar
  58   28   29 1
  59   29   65 1
  60   29   66 1
  61   30   31 2
  62   30   32 1
  63   32   33 1
  64   32   34 1
  65   32   67 1
  66   33   36 1
  67   33   68 1
  68   33   69 1
  69   34   35 1
  70   34   70 1
  71   34   71 1
  72   35   37 1
  73   35   72 1
  74   35   73 1
  75   36   38 1
  76   36   74 1
  77   36   75 1
  78   37   76 1
  79   37   77 1
  80   37   78 1
  81   38   79 1
  82   38   80 1
  83   38   81 1

#	End of record

