#	Name: ASD01810587
#	Creating user name:	WinNT
#	Creation time:	15. 06. 2019 19:24

#	Modifying user name:	WinNT
#	Modification time:	15. 06. 2019 19:24

#	Program:	/corina/corina34_cracker 3.40 0067  02.08.2006

@<TRIPOS>MOLECULE
ASD01810587
  36   39    0    0    0
SMALL
NO_CHARGES


@<TRIPOS>ATOM
   1 C1            -0.0167     1.3808     0.0096 C.ar    
   2 C2             0.0021    -0.0041     0.0020 C.ar    
   3 C3             1.2056    -0.6792    -0.0126 C.ar    
   4 C4             2.4010     0.0393    -0.0202 C.ar    
   5 C5             2.3846     1.4436    -0.0129 C.ar    
   6 C6             1.1622     2.1025     0.0023 C.ar    
   7 C7             3.8189    -0.3655    -0.0359 C.2     
   8 C8             4.5858     0.9235    -0.0368 C.2     
   9 N9             3.6911     1.9267    -0.0231 N.am    
  10 O10            4.2667    -1.4934    -0.0456 O.2     
  11 O11            5.7933     1.0396    -0.0476 O.2     
  12 C12            4.0453     3.3482    -0.0198 C.3     
  13 C13            4.1532     3.8423    -1.4394 C.ar    
  14 C14            3.0405     4.3582    -2.0775 C.ar    
  15 C15            3.1356     4.8126    -3.3803 C.ar    
  16 C16            4.3431     4.7522    -4.0477 C.ar    
  17 C17            5.4624     4.2346    -3.4095 C.ar    
  18 C18            5.3651     3.7845    -2.0999 C.ar    
  19 N19            6.6895     4.1719    -4.0844 N.pl3   
  20 N20            7.8674     3.5877    -3.6009 N.2     
  21 C21            8.7965     3.7257    -4.5123 C.2     
  22 C22            8.2416     4.4015    -5.6046 C.2     
  23 C23            6.9442     4.6596    -5.3196 C.2     
  24 H24           -0.9624     1.9023     0.0169 H       
  25 H25           -0.9261    -0.5562     0.0079 H       
  26 H26            1.2217    -1.7591    -0.0179 H       
  27 H27            1.1325     3.1821     0.0076 H       
  28 H28            3.2745     3.9135     0.5040 H       
  29 H29            5.0016     3.4832     0.4855 H       
  30 H30            2.0950     4.4062    -1.5577 H       
  31 H31            2.2646     5.2148    -3.8763 H       
  32 H32            4.4167     5.1069    -5.0652 H       
  33 H33            6.2340     3.3813    -1.6009 H       
  34 H34            9.8161     3.3782    -4.4344 H       
  35 H35            8.7568     4.6668    -6.5160 H       
  36 H36            6.2405     5.1699    -5.9606 H       
@<TRIPOS>BOND
   1    1    2 ar
   2    1    6 ar
   3    1   24 1
   4    2    3 ar
   5    2   25 1
   6    3    4 ar
   7    3   26 1
   8    4    5 ar
   9    4    7 1
  10    5    6 ar
  11    5    9 1
  12    6   27 1
  13    7    8 1
  14    7   10 2
  15    8    9 am
  16    8   11 2
  17    9   12 1
  18   12   13 1
  19   12   28 1
  20   12   29 1
  21   13   14 ar
  22   13   18 ar
  23   14   15 ar
  24   14   30 1
  25   15   16 ar
  26   15   31 1
  27   16   17 ar
  28   16   32 1
  29   17   18 ar
  30   17   19 1
  31   18   33 1
  32   19   20 1
  33   19   23 1
  34   20   21 2
  35   21   22 1
  36   21   34 1
  37   22   23 2
  38   22   35 1
  39   23   36 1

#	End of record

