#	Name: ASD08070262
#	Creating user name:	WinNT
#	Creation time:	15. 06. 2019 21:14

#	Modifying user name:	WinNT
#	Modification time:	15. 06. 2019 21:14

#	Program:	/corina/corina34_cracker 3.40 0067  02.08.2006

@<TRIPOS>MOLECULE
ASD08070262
  37   38    0    0    0
SMALL
NO_CHARGES


@<TRIPOS>ATOM
   1 C1            -0.0165     1.3623     0.0095 C.2     
   2 C2             0.0021    -0.0041     0.0020 C.2     
   3 C3             1.2719    -0.5305    -0.0129 C.2     
   4 C4             2.2604     0.3715    -0.0175 C.2     
   5 S5             1.6372     1.9597    -0.0030 S.3     
   6 C6            -1.2218     2.1963     0.0200 C.2     
   7 O7            -2.3219     1.6758     0.0226 O.2     
   8 N8            -1.1118     3.5395     0.0268 N.am    
   9 C9            -2.3166     4.3731     0.0372 C.3     
  10 C10           -1.9212     5.8273     0.0432 C.ar    
  11 C11           -1.5437     6.4481    -1.1394 C.ar    
  12 C12           -1.1801     7.7856    -1.1333 C.ar    
  13 C13           -1.1946     8.5002     0.0549 C.ar    
  14 C14           -1.5728     7.8751     1.2345 C.ar    
  15 C15           -1.9403     6.5429     1.2248 C.ar    
  16 O16           -0.8383     9.8116     0.0642 O.3     
  17 C17           -0.8766    10.4854     1.3238 C.3     
  18 O18           -1.5300     5.7449    -2.3023 O.3     
  19 C19           -1.1308     6.4478    -3.4807 C.3     
  20 C20           -1.2453    -0.8496     0.0102 C.3     
  21 H21            1.4581    -1.5943    -0.0201 H       
  22 H22            3.3122     0.1268    -0.0289 H       
  23 H23           -0.2350     3.9544     0.0247 H       
  24 H24           -2.9121     4.1621    -0.8510 H       
  25 H25           -2.9033     4.1524     0.9289 H       
  26 H26           -0.8857     8.2704    -2.0524 H       
  27 H27           -1.5843     8.4313     2.1602 H       
  28 H28           -2.2386     6.0592     2.1432 H       
  29 H29           -0.1981     9.9926     2.0202 H       
  30 H30           -0.5699    11.5228     1.1904 H       
  31 H31           -1.8909    10.4547     1.7216 H       
  32 H32           -0.1155     6.8232    -3.3535 H       
  33 H33           -1.1640     5.7722    -4.3355 H       
  34 H34           -1.8086     7.2841    -3.6521 H       
  35 H35           -1.5565    -1.0480    -1.0154 H       
  36 H36           -1.0415    -1.7929     0.5169 H       
  37 H37           -2.0401    -0.3196     0.5350 H       
@<TRIPOS>BOND
   1    1    2 2
   2    1    5 1
   3    1    6 1
   4    2    3 1
   5    2   20 1
   6    3    4 2
   7    3   21 1
   8    4    5 1
   9    4   22 1
  10    6    7 2
  11    6    8 am
  12    8    9 1
  13    8   23 1
  14    9   10 1
  15    9   24 1
  16    9   25 1
  17   10   11 ar
  18   10   15 ar
  19   11   12 ar
  20   11   18 1
  21   12   13 ar
  22   12   26 1
  23   13   14 ar
  24   13   16 1
  25   14   15 ar
  26   14   27 1
  27   15   28 1
  28   16   17 1
  29   17   29 1
  30   17   30 1
  31   17   31 1
  32   18   19 1
  33   19   32 1
  34   19   33 1
  35   19   34 1
  36   20   35 1
  37   20   36 1
  38   20   37 1

#	End of record

