#	Name: ASD04230135
#	Creating user name:	WinNT
#	Creation time:	15. 06. 2019 20:48

#	Modifying user name:	WinNT
#	Modification time:	15. 06. 2019 20:48

#	Program:	/corina/corina34_cracker 3.40 0067  02.08.2006

@<TRIPOS>MOLECULE
ASD04230135
  45   48    0    0    0
SMALL
NO_CHARGES


@<TRIPOS>ATOM
   1 C1             1.4732     3.7055     3.1776 C.ar    
   2 C2             1.1598     2.3567     3.0921 C.ar    
   3 C3             2.1129     1.4423     2.7461 C.ar    
   4 C4             3.4244     1.8640     2.4836 C.ar    
   5 C5             3.7399     3.2338     2.5368 C.ar    
   6 C6             2.7541     4.1492     2.8998 C.ar    
   7 C7             4.4338     0.9202     2.1603 C.2     
   8 C8             5.7478     1.3658     2.1074 C.2     
   9 C9             5.9922     2.7849     2.4240 C.2     
  10 O10            4.9845     3.6616     2.2165 O.3     
  11 C11            6.8513     0.4588     1.7504 C.2     
  12 N12            8.1166     0.9211     1.7076 N.am    
  13 O13            6.6210    -0.7077     1.4942 O.2     
  14 C14            9.1763     0.0382     1.4758 C.ar    
  15 C15           10.3065     0.4728     0.7939 C.ar    
  16 C16           11.3562    -0.3964     0.5626 C.ar    
  17 C17           11.2888    -1.7009     1.0076 C.ar    
  18 C18           10.1582    -2.1467     1.6937 C.ar    
  19 C19            9.1017    -1.2694     1.9314 C.ar    
  20 C20           10.0836    -3.5452     2.1719 C.2     
  21 O21            7.0667     3.1550     2.8587 O.2     
  22 C22            9.2804    -4.0173     3.1711 C.2     
  23 N23           10.7992    -4.6017     1.6931 N.pl3   
  24 N24           10.4237    -5.7368     2.4228 N.2     
  25 C25            9.5195    -5.3855     3.3017 C.2     
  26 C26           11.7841    -4.5580     0.6094 C.3     
  27 O27            3.0495     5.4740     2.9800 O.3     
  28 C28            1.9887     6.3536     3.3582 C.3     
  29 H29            0.7098     4.4158     3.4590 H       
  30 H30            0.1529     2.0269     3.3016 H       
  31 H31            1.8572     0.3954     2.6749 H       
  32 H32            4.1876    -0.1125     1.9620 H       
  33 H33            8.2923     1.8662     1.8375 H       
  34 H34           10.3647     1.4926     0.4434 H       
  35 H35           12.2319    -0.0534     0.0315 H       
  36 H36           12.1108    -2.3770     0.8246 H       
  37 H37            8.2243    -1.6091     2.4618 H       
  38 H38            8.5842    -3.4348     3.7563 H       
  39 H39            9.0392    -6.0445     4.0097 H       
  40 H40           12.7498    -4.2478     1.0084 H       
  41 H41           11.8766    -5.5478     0.1625 H       
  42 H42           11.4585    -3.8459    -0.1489 H       
  43 H43            1.1780     6.2776     2.6336 H       
  44 H44            1.6206     6.0753     4.3457 H       
  45 H45            2.3583     7.3787     3.3838 H       
@<TRIPOS>BOND
   1    1    2 ar
   2    1    6 ar
   3    1   29 1
   4    2    3 ar
   5    2   30 1
   6    3    4 ar
   7    3   31 1
   8    4    5 ar
   9    4    7 1
  10    5    6 ar
  11    5   10 1
  12    6   27 1
  13    7    8 2
  14    7   32 1
  15    8    9 1
  16    8   11 1
  17    9   10 1
  18    9   21 2
  19   11   12 am
  20   11   13 2
  21   12   14 1
  22   12   33 1
  23   14   15 ar
  24   14   19 ar
  25   15   16 ar
  26   15   34 1
  27   16   17 ar
  28   16   35 1
  29   17   18 ar
  30   17   36 1
  31   18   19 ar
  32   18   20 1
  33   19   37 1
  34   20   23 1
  35   20   22 2
  36   22   25 1
  37   22   38 1
  38   23   24 1
  39   23   26 1
  40   24   25 2
  41   25   39 1
  42   26   40 1
  43   26   41 1
  44   26   42 1
  45   27   28 1
  46   28   43 1
  47   28   44 1
  48   28   45 1

#	End of record

