#	Name: ASD01900547
#	Creating user name:	WinNT
#	Creation time:	15. 06. 2019 19:52

#	Modifying user name:	WinNT
#	Modification time:	15. 06. 2019 19:52

#	Program:	/corina/corina34_cracker 3.40 0067  02.08.2006

@<TRIPOS>MOLECULE
ASD01900547
  44   47    0    0    0
SMALL
NO_CHARGES


@<TRIPOS>ATOM
   1 C1             0.9859     3.1592     0.7507 C.ar    
   2 C2             2.0523     3.6090     1.5315 C.ar    
   3 C3             3.2530     2.9113     1.4974 C.ar    
   4 C4             3.3436     1.7924     0.6862 C.ar    
   5 C5             2.2433     1.4036    -0.0623 C.ar    
   6 N6             1.1177     2.0808    -0.0128 N.ar    
   7 C7            -0.3026     3.8861     0.7789 C.2     
   8 O8            -0.4297     4.8708     1.4800 O.2     
   9 N9            -1.3353     3.4562     0.0271 N.am    
  10 F10            1.9187     4.7064     2.3081 F       
  11 C11           -2.5822     4.0838     0.1267 C.ar    
  12 C12           -2.6549     5.4549     0.3376 C.ar    
  13 C13           -3.8857     6.0738     0.4354 C.ar    
  14 C14           -5.0508     5.3246     0.3227 C.ar    
  15 C15           -4.9774     3.9549     0.1121 C.ar    
  16 C16           -3.7470     3.3367     0.0091 C.ar    
  17 C17           -8.2855     6.9739    -0.0599 C.3     
  18 C18           -8.4489     8.4720    -0.3340 C.3     
  19 C19           -9.5642     9.0167     0.5638 C.3     
  20 C20           -9.1795     8.8825     2.0374 C.3     
  21 C21           -9.0025     7.3983     2.3934 C.3     
  22 N22           -8.0989     6.8148     1.3985 N.am    
  23 C23           -6.9707     6.1224     1.5731 C.2     
  24 N24           -6.3018     5.9533     0.4225 N.am    
  25 C25           -6.9802     6.4633    -0.6274 C.2     
  26 O26           -6.5941     5.6962     2.6472 O.2     
  27 O27           -6.6186     6.5031    -1.7839 O.2     
  28 Cl28          -3.9774     7.7871     0.6994 Cl      
  29 H29            4.0965     3.2341     2.0896 H       
  30 H30            4.2631     1.2281     0.6369 H       
  31 H31            2.3120     0.5314    -0.6954 H       
  32 H32           -1.2144     2.7119    -0.5830 H       
  33 H33           -1.7493     6.0366     0.4254 H       
  34 H34           -5.8830     3.3729     0.0246 H       
  35 H35           -3.6905     2.2714    -0.1593 H       
  36 H36           -9.1438     6.4066    -0.4197 H       
  37 H37           -7.5152     8.9885    -0.1113 H       
  38 H38           -8.7138     8.6256    -1.3801 H       
  39 H39           -9.7327    10.0680     0.3304 H       
  40 H40          -10.4807     8.4565     0.3789 H       
  41 H41           -8.2444     9.4127     2.2178 H       
  42 H42           -9.9653     9.3131     2.6580 H       
  43 H43           -8.5678     7.3052     3.3886 H       
  44 H44           -9.9670     6.8916     2.3604 H       
@<TRIPOS>BOND
   1    1    2 ar
   2    1    6 ar
   3    1    7 1
   4    2    3 ar
   5    2   10 1
   6    3    4 ar
   7    3   29 1
   8    4    5 ar
   9    4   30 1
  10    5    6 ar
  11    5   31 1
  12    7    8 2
  13    7    9 am
  14    9   11 1
  15    9   32 1
  16   11   12 ar
  17   11   16 ar
  18   12   13 ar
  19   12   33 1
  20   13   14 ar
  21   13   28 1
  22   14   15 ar
  23   14   24 1
  24   15   16 ar
  25   15   34 1
  26   16   35 1
  27   17   18 1
  28   17   22 1
  29   17   25 1
  30   17   36 1
  31   18   19 1
  32   18   37 1
  33   18   38 1
  34   19   20 1
  35   19   39 1
  36   19   40 1
  37   20   21 1
  38   20   41 1
  39   20   42 1
  40   21   22 1
  41   21   43 1
  42   21   44 1
  43   22   23 am
  44   23   24 am
  45   23   26 2
  46   24   25 am
  47   25   27 2

#	End of record

