#	Name: ASD03330030
#	Creating user name:	WinNT
#	Creation time:	15. 06. 2019 20:36

#	Modifying user name:	WinNT
#	Modification time:	15. 06. 2019 20:36

#	Program:	/corina/corina34_cracker 3.40 0067  02.08.2006

@<TRIPOS>MOLECULE
ASD03330030
  60   63    0    0    0
SMALL
NO_CHARGES


@<TRIPOS>ATOM
   1 N1             0.6142     0.5347     1.1164 N.pl3   
   2 C2             0.0020    -0.0045     0.0017 C.2     
   3 C3             0.6707     0.3957    -1.1113 C.2     
   4 C4             1.7460     1.2179    -0.6960 C.ar    
   5 C5             2.7554     1.9027    -1.3854 C.ar    
   6 C6             3.6757     2.6343    -0.6910 C.ar    
   7 C7             3.6211     2.7066     0.6964 C.ar    
   8 C8             2.6387     2.0423     1.3954 C.ar    
   9 C9             1.6891     1.2899     0.7094 C.ar    
  10 C10           -1.1842    -0.8736     0.0171 C.2     
  11 O11           -1.0558    -2.0797    -0.0761 O.2     
  12 N12           -2.4136    -0.3339     0.1346 N.am    
  13 C13           -3.6005    -1.1869     0.0362 C.3     
  14 C14           -4.8583    -0.3319     0.2031 C.3     
  15 C15           -6.0793    -1.2094     0.1019 C.ar    
  16 C16           -6.6052    -1.7936     1.2397 C.ar    
  17 C17           -7.7240    -2.5983     1.1505 C.ar    
  18 C18           -8.3212    -2.8206    -0.0838 C.ar    
  19 C19           -7.7903    -2.2323    -1.2247 C.ar    
  20 C20           -6.6746    -1.4241    -1.1277 C.ar    
  21 N21           -9.4525    -3.6343    -0.1777 N.3     
  22 C22           -9.9167    -3.7319    -1.5674 C.3     
  23 C23          -11.0633    -4.7419    -1.6539 C.3     
  24 C24          -12.2079    -4.2863    -0.7446 C.3     
  25 C25          -11.6862    -4.1458     0.6881 C.3     
  26 C26          -10.5216    -3.1532     0.7067 C.3     
  27 C27            0.1853     0.3394     2.5035 C.3     
  28 C28            0.3291     0.0302    -2.5329 C.3     
  29 C29           -0.6377     1.0673    -3.1079 C.3     
  30 Cl30           4.9254     3.4812    -1.5481 Cl      
  31 H31            2.8056     1.8518    -2.4630 H       
  32 H32            4.3568     3.2893     1.2309 H       
  33 H33            2.6048     2.1044     2.4731 H       
  34 H34           -2.5125     0.6194     0.2842 H       
  35 H35           -3.6186    -1.6734    -0.9390 H       
  36 H36           -3.5696    -1.9443     0.8195 H       
  37 H37           -4.8403     0.1545     1.1783 H       
  38 H38           -4.8893     0.4255    -0.5802 H       
  39 H39           -6.1403    -1.6206     2.1990 H       
  40 H40           -8.1341    -3.0545     2.0394 H       
  41 H41           -8.2521    -2.4031    -2.1860 H       
  42 H42           -6.2641    -0.9625    -2.0136 H       
  43 H43          -10.2666    -2.7557    -1.9029 H       
  44 H44           -9.0944    -4.0609    -2.2027 H       
  45 H45          -11.4180    -4.8025    -2.6828 H       
  46 H46          -10.7104    -5.7215    -1.3316 H       
  47 H47          -12.5869    -3.3245    -1.0902 H       
  48 H48          -13.0092    -5.0248    -0.7697 H       
  49 H49          -12.4859    -3.7806     1.3324 H       
  50 H50          -11.3431    -5.1161     1.0472 H       
  51 H51          -10.1385    -3.0617     1.7230 H       
  52 H52          -10.8686    -2.1796     0.3605 H       
  53 H53            0.6117    -0.5869     2.8886 H       
  54 H54            0.5276     1.1771     3.1111 H       
  55 H55           -0.9025     0.2825     2.5429 H       
  56 H56            1.2396     0.0108    -3.1318 H       
  57 H57           -0.1397    -0.9537    -2.5524 H       
  58 H58           -0.1689     2.0511    -3.0884 H       
  59 H59           -0.8847     0.8028    -4.1361 H       
  60 H60           -1.5481     1.0866    -2.5090 H       
@<TRIPOS>BOND
   1    1    2 1
   2    1    9 1
   3    1   27 1
   4    2    3 2
   5    2   10 1
   6    3    4 1
   7    3   28 1
   8    4    5 ar
   9    4    9 ar
  10    5    6 ar
  11    5   31 1
  12    6    7 ar
  13    6   30 1
  14    7    8 ar
  15    7   32 1
  16    8    9 ar
  17    8   33 1
  18   10   11 2
  19   10   12 am
  20   12   13 1
  21   12   34 1
  22   13   14 1
  23   13   35 1
  24   13   36 1
  25   14   15 1
  26   14   37 1
  27   14   38 1
  28   15   16 ar
  29   15   20 ar
  30   16   17 ar
  31   16   39 1
  32   17   18 ar
  33   17   40 1
  34   18   19 ar
  35   18   21 1
  36   19   20 ar
  37   19   41 1
  38   20   42 1
  39   21   22 1
  40   21   26 1
  41   22   23 1
  42   22   43 1
  43   22   44 1
  44   23   24 1
  45   23   45 1
  46   23   46 1
  47   24   25 1
  48   24   47 1
  49   24   48 1
  50   25   26 1
  51   25   49 1
  52   25   50 1
  53   26   51 1
  54   26   52 1
  55   27   53 1
  56   27   54 1
  57   27   55 1
  58   28   29 1
  59   28   56 1
  60   28   57 1
  61   29   58 1
  62   29   59 1
  63   29   60 1

#	End of record

