#	Name: ASD01912138
#	Creating user name:	WinNT
#	Creation time:	15. 06. 2019 19:59

#	Modifying user name:	WinNT
#	Modification time:	15. 06. 2019 19:59

#	Program:	/corina/corina34_cracker 3.40 0067  02.08.2006

@<TRIPOS>MOLECULE
ASD01912138
  47   50    0    0    0
SMALL
NO_CHARGES


@<TRIPOS>ATOM
   1 C1            -0.1620     1.5611    -0.2781 C.3     
   2 C2            -0.1203     0.0312    -0.2816 C.3     
   3 C3            -1.5434    -0.5198    -0.1658 C.3     
   4 C4            -2.1602    -0.0559     1.1575 C.3     
   5 N5            -2.0723     1.4088     1.2325 N.am    
   6 C6            -0.7631     2.0486     1.0439 C.3     
   7 C7            -3.0486     3.6098     1.6712 C.ar    
   8 C8            -3.1717     2.1515     1.4697 C.2     
   9 O9            -4.2646     1.6213     1.5179 O.2     
  10 C10            1.2367     2.1027    -0.4247 C.2     
  11 N11            2.2315     1.8890     0.3851 N.2     
  12 O12            3.2271     2.4613    -0.0051 O.3     
  13 C13            2.9541     3.1191    -1.1426 C.2     
  14 N14            1.6823     2.8879    -1.4176 N.2     
  15 C15            3.8939     3.9376    -1.9360 C.ar    
  16 C16            5.2183     4.0855    -1.5193 C.ar    
  17 C17           -3.9749     4.4781     1.0897 C.ar    
  18 C18           -3.8553     5.8379     1.2809 C.ar    
  19 C19           -2.8178     6.3440     2.0489 C.ar    
  20 C20           -1.8951     5.4864     2.6281 C.ar    
  21 C21           -2.0088     4.1245     2.4485 C.ar    
  22 F22           -2.7052     7.6777     2.2331 F       
  23 C23            6.0911     4.8505    -2.2634 C.ar    
  24 C24            5.6558     5.4726    -3.4233 C.ar    
  25 C25            4.3420     5.3291    -3.8416 C.ar    
  26 C26            3.4624     4.5614    -3.1083 C.ar    
  27 F27            6.5150     6.2219    -4.1483 F       
  28 C28           -1.3925    -0.6763     2.3266 C.3     
  29 H29           -0.7761     1.9102    -1.1082 H       
  30 H30            0.3297    -0.3177    -1.2110 H       
  31 H31            0.4740    -0.3178     0.5629 H       
  32 H32           -2.1450    -0.1511    -0.9966 H       
  33 H33           -1.5150    -1.6091    -0.1918 H       
  34 H34           -3.2055    -0.3619     1.2006 H       
  35 H35           -0.1023     1.7782     1.8675 H       
  36 H36           -0.8866     3.1311     1.0120 H       
  37 H37            5.5583     3.6019    -0.6155 H       
  38 H38           -4.7832     4.0850     0.4910 H       
  39 H39           -4.5709     6.5104     0.8314 H       
  40 H40           -1.0886     5.8858     3.2251 H       
  41 H41           -1.2898     3.4573     2.9004 H       
  42 H42            7.1158     4.9656    -1.9420 H       
  43 H43            4.0079     5.8162    -4.7458 H       
  44 H44            2.4391     4.4499    -3.4353 H       
  45 H45           -0.3494    -0.3628     2.2835 H       
  46 H46           -1.8329    -0.3450     3.2670 H       
  47 H47           -1.4484    -1.7629     2.2621 H       
@<TRIPOS>BOND
   1    1    2 1
   2    1   10 1
   3    1    6 1
   4    1   29 1
   5    2    3 1
   6    2   30 1
   7    2   31 1
   8    3    4 1
   9    3   32 1
  10    3   33 1
  11    4    5 1
  12    4   28 1
  13    4   34 1
  14    5    6 1
  15    5    8 am
  16    6   35 1
  17    6   36 1
  18    7    8 1
  19    7   17 ar
  20    7   21 ar
  21    8    9 2
  22   10   11 2
  23   10   14 1
  24   11   12 1
  25   12   13 1
  26   13   14 2
  27   13   15 1
  28   15   16 ar
  29   15   26 ar
  30   16   23 ar
  31   16   37 1
  32   17   18 ar
  33   17   38 1
  34   18   19 ar
  35   18   39 1
  36   19   20 ar
  37   19   22 1
  38   20   21 ar
  39   20   40 1
  40   21   41 1
  41   23   24 ar
  42   23   42 1
  43   24   25 ar
  44   24   27 1
  45   25   26 ar
  46   25   43 1
  47   26   44 1
  48   28   45 1
  49   28   46 1
  50   28   47 1

#	End of record

