#	Name: ASD00960087
#	Creating user name:	WinNT
#	Creation time:	15. 06. 2019 18:53

#	Modifying user name:	WinNT
#	Modification time:	15. 06. 2019 18:53

#	Program:	/corina/corina34_cracker 3.40 0067  02.08.2006

@<TRIPOS>MOLECULE
ASD00960087
  35   37    0    0    0
SMALL
NO_CHARGES


@<TRIPOS>ATOM
   1 C1            -0.0189     1.5406     0.0105 C.3     
   2 C2             0.0021    -0.0041     0.0020 C.3     
   3 O3            -1.0943    -0.3927     0.8581 O.3     
   4 C4            -1.0543     0.5287     1.9695 C.3     
   5 C5            -2.4127     0.5753     2.6719 C.3     
   6 C6            -0.2140    -0.5240    -1.3959 C.2     
   7 C7             0.7556    -0.6901    -2.3338 C.2     
   8 N8            -1.3972    -0.9035    -1.9133 N.pl3   
   9 C9            -1.1938    -1.3191    -3.2152 C.2     
  10 C10            0.1537    -1.1894    -3.4898 C.2     
  11 N11           -2.7001    -0.9470    -1.3973 N.2     
  12 C12           -3.6835    -1.3718    -2.1416 C.2     
  13 N13           -3.5027    -1.7754    -3.3980 N.2     
  14 C14           -2.3070    -1.7666    -3.9634 C.2     
  15 O15           -2.7268    -0.7197     3.1880 O.3     
  16 N16           -2.1476    -2.1903    -5.2674 N.pl3   
  17 C17           -0.7298     1.8991     1.3346 C.3     
  18 O18            1.3126     2.0594     0.0006 O.3     
  19 *19            1.4358     3.3105    -0.6380 Du      
  20 O20            0.1409     2.6504     2.1829 O.3     
  21 *21            0.0367     4.0469     2.0191 Du      
  22 N22           -0.0051     0.1412     2.9157 N.2     
  23 N23           -0.0541    -0.8561     3.4318 N.1     
  24 N24           -0.1032    -1.8534     3.9479 N.pl3   
  25 H25           -0.5818     1.9196    -0.8424 H       
  26 H26            0.9460    -0.3730     0.4033 H       
  27 H27           -2.3737     1.2933     3.4911 H       
  28 H28           -3.1799     0.8784     1.9594 H       
  29 H29            1.8061    -0.4739    -2.2070 H       
  30 H30            0.6467    -1.4278    -4.4207 H       
  31 H31           -4.6794    -1.3974    -1.7243 H       
  32 H32           -3.5766    -0.7645     3.6473 H       
  33 H33           -2.9152    -2.4970    -5.7750 H       
  34 H34           -1.2680    -2.1813    -5.6762 H       
  35 H35           -1.6462     2.4554     1.1376 H       
@<TRIPOS>BOND
   1    1    2 1
   2    1   18 1
   3    1   17 1
   4    1   25 1
   5    2    3 1
   6    2    6 1
   7    2   26 1
   8    3    4 1
   9    4    5 1
  10    4   22 1
  11    4   17 1
  12    5   15 1
  13    5   27 1
  14    5   28 1
  15    6    7 2
  16    6    8 1
  17    7   10 1
  18    7   29 1
  19    8    9 1
  20    8   11 1
  21    9   10 2
  22    9   14 1
  23   10   30 1
  24   11   12 2
  25   12   13 1
  26   12   31 1
  27   13   14 2
  28   14   16 1
  29   15   32 1
  30   16   33 1
  31   16   34 1
  32   17   20 1
  33   17   35 1
  34   18   19 1
  35   20   21 1
  36   22   23 2
  37   23   24 2

#	End of record

