#	Name: ASD03092162
#	Creating user name:	WinNT
#	Creation time:	15. 06. 2019 20:32

#	Modifying user name:	WinNT
#	Modification time:	15. 06. 2019 20:32

#	Program:	/corina/corina34_cracker 3.40 0067  02.08.2006

@<TRIPOS>MOLECULE
ASD03092162
  47   50    0    0    0
SMALL
NO_CHARGES


@<TRIPOS>ATOM
   1 N1             0.0491     1.1158    -0.2570 N.pl3   
   2 C2            -0.1083    -0.1656     0.1804 C.2     
   3 C3            -1.4470    -0.3803     0.3450 C.2     
   4 C4            -2.1158     0.8008    -0.0015 C.2     
   5 N5            -1.2222     1.6953    -0.3554 N.2     
   6 N6            -3.5018     0.9962     0.0299 N.pl3   
   7 C7            -4.0353     2.2631    -0.2266 C.ar    
   8 C8            -5.3245     2.3862    -0.7287 C.ar    
   9 C9            -5.8495     3.6385    -0.9808 C.ar    
  10 C10           -5.0916     4.7708    -0.7339 C.ar    
  11 C11           -3.2790     3.4004     0.0256 C.ar    
  12 C12            0.9727    -1.1443     0.4304 C.ar    
  13 C13            1.3223     1.7723    -0.5636 C.3     
  14 C14            0.7542    -2.2243     1.2856 C.ar    
  15 C15            1.7640    -3.1348     1.5177 C.ar    
  16 C16            2.9993    -2.9811     0.9032 C.ar    
  17 C17            3.2223    -1.9072     0.0467 C.ar    
  18 C18            2.2114    -0.9928    -0.1931 C.ar    
  19 C19           -3.8059     4.6504    -0.2339 C.ar    
  20 C20            1.6221     1.6256    -2.0332 C.2     
  21 N21            2.7500     2.1549    -2.5470 N.am    
  22 O22            0.8483     1.0311    -2.7535 O.2     
  23 O23            3.9838    -3.8875     1.1527 O.3     
  24 C24            5.0815    -3.9151     0.2342 C.3     
  25 C25            5.5317    -2.4703    -0.0207 C.3     
  26 O26            4.4254    -1.7465    -0.5700 O.3     
  27 C27            3.0414     2.0122    -3.9757 C.3     
  28 F28           -5.6070     5.9947    -0.9818 F       
  29 H29           -1.9077    -1.2972     0.6818 H       
  30 H30           -4.0920     0.2527     0.2296 H       
  31 H31           -5.9158     1.5034    -0.9220 H       
  32 H32           -6.8519     3.7348    -1.3712 H       
  33 H33           -2.2778     3.3072     0.4198 H       
  34 H34            1.2559     2.8304    -0.3103 H       
  35 H35            2.1194     1.3089     0.0178 H       
  36 H36           -0.2052    -2.3474     1.7661 H       
  37 H37            1.5931    -3.9704     2.1804 H       
  38 H38            2.3841    -0.1578    -0.8560 H       
  39 H39           -3.2163     5.5348    -0.0427 H       
  40 H40            3.3689     2.6303    -1.9709 H       
  41 H41            5.9049    -4.4865     0.6627 H       
  42 H42            4.7649    -4.3722    -0.7032 H       
  43 H43            5.8420    -2.0109     0.9178 H       
  44 H44            6.3624    -2.4632    -0.7264 H       
  45 H45            3.9888     2.5007    -4.2038 H       
  46 H46            3.1079     0.9542    -4.2290 H       
  47 H47            2.2444     2.4757    -4.5571 H       
@<TRIPOS>BOND
   1    1    2 1
   2    1   13 1
   3    1    5 1
   4    2    3 2
   5    2   12 1
   6    3    4 1
   7    3   29 1
   8    4    5 2
   9    4    6 1
  10    6    7 1
  11    6   30 1
  12    7    8 ar
  13    7   11 ar
  14    8    9 ar
  15    8   31 1
  16    9   10 ar
  17    9   32 1
  18   10   19 ar
  19   10   28 1
  20   11   19 ar
  21   11   33 1
  22   12   14 ar
  23   12   18 ar
  24   13   20 1
  25   13   34 1
  26   13   35 1
  27   14   15 ar
  28   14   36 1
  29   15   16 ar
  30   15   37 1
  31   16   17 ar
  32   16   23 1
  33   17   18 ar
  34   17   26 1
  35   18   38 1
  36   19   39 1
  37   20   21 am
  38   20   22 2
  39   21   27 1
  40   21   40 1
  41   23   24 1
  42   24   25 1
  43   24   41 1
  44   24   42 1
  45   25   26 1
  46   25   43 1
  47   25   44 1
  48   27   45 1
  49   27   46 1
  50   27   47 1

#	End of record

