#	Name: ASD01028640
#	Creating user name:	WinNT
#	Creation time:	15. 06. 2019 18:57

#	Modifying user name:	WinNT
#	Modification time:	15. 06. 2019 18:57

#	Program:	/corina/corina34_cracker 3.40 0067  02.08.2006

@<TRIPOS>MOLECULE
ASD01028640
  45   49    0    0    0
SMALL
NO_CHARGES


@<TRIPOS>ATOM
   1 C1            -0.0379     1.3569     0.3583 C.2     
   2 N2            -0.0109    -0.0033     0.2724 N.pl3   
   3 C3             1.1172     2.0614     0.5007 C.2     
   4 C4             2.3588     1.3852     0.5610 C.2     
   5 C5             2.3901     0.0286     0.4758 C.2     
   6 C6             1.1806    -0.6833     0.3283 C.2     
   7 N7             0.8927    -1.9702     0.2204 N.2     
   8 N8            -0.3802    -2.1173     0.1039 N.2     
   9 C9            -0.9755    -0.9527     0.1301 C.2     
  10 C10           -3.3307    -2.7161     1.1853 C.ar    
  11 C11           -3.1871    -2.0264     0.0200 C.ar    
  12 C12           -3.7055    -2.5239    -1.1737 C.ar    
  13 C13           -4.3692    -3.7116    -1.2102 C.ar    
  14 C14           -4.5374    -4.4532    -0.0281 C.ar    
  15 C15           -4.0090    -3.9453     1.1848 C.ar    
  16 N16           -5.1844    -5.6231    -0.0333 N.ar    
  17 C17           -5.3436    -6.3187     1.0663 C.ar    
  18 C18           -4.8491    -5.8767     2.2917 C.ar    
  19 C19           -4.1785    -4.6894     2.3678 C.ar    
  20 C20            1.0751     3.5421     0.5926 C.ar    
  21 C21           -2.4584    -0.7073     0.0216 C.3     
  22 F22            3.5676    -0.6313     0.5312 F       
  23 F23           -2.8850     0.0598     1.1110 F       
  24 C24            1.4714     4.1808     1.7656 C.ar    
  25 C25            0.6446     4.2976    -0.4958 C.ar    
  26 C26            0.6074     5.6767    -0.4060 C.ar    
  27 C27            0.9974     6.3073     0.7639 C.ar    
  28 C28            1.4310     5.5604     1.8466 C.ar    
  29 F29            0.1905     6.4104    -1.4611 F       
  30 F30            1.8103     6.1805     2.9854 F       
  31 C31           -2.7576     0.0423    -1.2782 C.3     
  32 H32           -0.9820     1.8789     0.3084 H       
  33 H33            3.2763     1.9436     0.6737 H       
  34 H34           -2.9211    -2.3222     2.1036 H       
  35 H35           -3.5788    -1.9578    -2.0847 H       
  36 H36           -4.7655    -4.0826    -2.1438 H       
  37 H37           -5.8725    -7.2592     1.0213 H       
  38 H38           -4.9966    -6.4721     3.1805 H       
  39 H39           -3.7887    -4.3314     3.3093 H       
  40 H40            1.8094     3.5991     2.6104 H       
  41 H41            0.3407     3.8067    -1.4085 H       
  42 H42            0.9671     7.3849     0.8306 H       
  43 H43           -2.4252    -0.5554    -2.1270 H       
  44 H44           -3.8301     0.2198    -1.3567 H       
  45 H45           -2.2305     0.9964    -1.2770 H       
@<TRIPOS>BOND
   1    1    2 1
   2    1    3 2
   3    1   32 1
   4    2    6 1
   5    2    9 1
   6    3    4 1
   7    3   20 1
   8    4    5 2
   9    4   33 1
  10    5    6 1
  11    5   22 1
  12    6    7 2
  13    7    8 1
  14    8    9 2
  15    9   21 1
  16   10   11 ar
  17   10   15 ar
  18   10   34 1
  19   11   12 ar
  20   11   21 1
  21   12   13 ar
  22   12   35 1
  23   13   14 ar
  24   13   36 1
  25   14   15 ar
  26   14   16 ar
  27   15   19 ar
  28   16   17 ar
  29   17   18 ar
  30   17   37 1
  31   18   19 ar
  32   18   38 1
  33   19   39 1
  34   20   24 ar
  35   20   25 ar
  36   21   23 1
  37   21   31 1
  38   24   28 ar
  39   24   40 1
  40   25   26 ar
  41   25   41 1
  42   26   27 ar
  43   26   29 1
  44   27   28 ar
  45   27   42 1
  46   28   30 1
  47   31   43 1
  48   31   44 1
  49   31   45 1

#	End of record

