#	Name: ASD05313249
#	Creating user name:	WinNT
#	Creation time:	15. 06. 2019 20:59

#	Modifying user name:	WinNT
#	Modification time:	15. 06. 2019 20:59

#	Program:	/corina/corina34_cracker 3.40 0067  02.08.2006

@<TRIPOS>MOLECULE
ASD05313249
  39   42    0    0    0
SMALL
NO_CHARGES


@<TRIPOS>ATOM
   1 C1            -0.3669     0.9741     1.2420 C.2     
   2 C2            -0.1118    -0.5005     1.0228 C.3     
   3 N3             0.6230     1.9068     1.3114 N.pl3   
   4 N4             1.3075    -0.6417     0.6488 N.am    
   5 C5             2.3032     0.1354     1.4022 C.3     
   6 C6             2.0541     1.6304     1.1735 C.3     
   7 N7            -1.5144     1.5653     1.3985 N.2     
   8 C8            -1.3197     2.8801     1.5740 C.2     
   9 C9             0.0201     3.1192     1.5251 C.2     
  10 S10            2.3901     6.2976     1.7786 S.3     
  11 C11            0.7418     6.6185     2.0962 C.2     
  12 N12            0.0439     5.5407     1.9939 N.2     
  13 C13            0.6925     4.4286     1.6766 C.2     
  14 C14            2.0206     4.5971     1.5040 C.2     
  15 C15            1.6817    -1.4599    -0.3547 C.2     
  16 O16            2.8425    -1.4890    -0.7145 O.2     
  17 C17            0.6810    -2.3218    -1.0175 C.ar    
  18 C18            0.6612    -2.4311    -2.4104 C.ar    
  19 C19           -0.2772    -3.2386    -3.0226 C.ar    
  20 C20           -1.1956    -3.9371    -2.2598 C.ar    
  21 C21           -1.1812    -3.8324    -0.8801 C.ar    
  22 C22           -0.2454    -3.0349    -0.2548 C.ar    
  23 C23           -0.3010    -3.3585    -4.5246 C.3     
  24 F24           -1.3306    -4.2251    -4.9070 F       
  25 F25           -0.5189    -2.0974    -5.0897 F       
  26 F26            0.9244    -3.8644    -4.9715 F       
  27 Cl27           1.8127    -1.5540    -3.3688 Cl      
  28 H28           -0.3111    -1.0529     1.9410 H       
  29 H29           -0.7469    -0.8722     0.2187 H       
  30 H30            2.2131    -0.0903     2.4648 H       
  31 H31            3.3043    -0.1239     1.0576 H       
  32 H32            2.3830     1.9049     0.1712 H       
  33 H33            2.6095     2.2094     1.9112 H       
  34 H34           -2.0908     3.6201     1.7298 H       
  35 H35            0.3412     7.5894     2.3476 H       
  36 H36            2.7307     3.8262     1.2432 H       
  37 H37           -1.9276    -4.5669    -2.7434 H       
  38 H38           -1.9018    -4.3802    -0.2910 H       
  39 H39           -0.2325    -2.9586     0.8224 H       
@<TRIPOS>BOND
   1    1    2 1
   2    1    3 1
   3    1    7 2
   4    2    4 1
   5    2   28 1
   6    2   29 1
   7    3    6 1
   8    3    9 1
   9    4    5 1
  10    4   15 am
  11    5    6 1
  12    5   30 1
  13    5   31 1
  14    6   32 1
  15    6   33 1
  16    7    8 1
  17    8    9 2
  18    8   34 1
  19    9   13 1
  20   10   11 1
  21   10   14 1
  22   11   12 2
  23   11   35 1
  24   12   13 1
  25   13   14 2
  26   14   36 1
  27   15   16 2
  28   15   17 1
  29   17   18 ar
  30   17   22 ar
  31   18   19 ar
  32   18   27 1
  33   19   20 ar
  34   19   23 1
  35   20   21 ar
  36   20   37 1
  37   21   22 ar
  38   21   38 1
  39   22   39 1
  40   23   24 1
  41   23   25 1
  42   23   26 1

#	End of record

