#	Name: ASD02770094
#	Creating user name:	WinNT
#	Creation time:	15. 06. 2019 20:26

#	Modifying user name:	WinNT
#	Modification time:	15. 06. 2019 20:26

#	Program:	/corina/corina34_cracker 3.40 0067  02.08.2006

@<TRIPOS>MOLECULE
ASD02770094
  52   55    0    0    0
SMALL
NO_CHARGES


@<TRIPOS>ATOM
   1 C1             0.7839    -0.2087     2.2074 C.2     
   2 N2             0.6229    -1.0993     1.2106 N.am    
   3 C3             1.4630    -1.1672     0.1610 C.2     
   4 C4             2.6068    -0.2549     0.0641 C.ar    
   5 C5             2.8073     0.6950     1.0934 C.ar    
   6 C6             3.8951     1.5890     1.0351 C.ar    
   7 C7             4.0678     2.5197     2.0689 C.ar    
   8 C8             3.1805     2.5510     3.1220 C.ar    
   9 C9             2.1064     1.6747     3.1881 C.ar    
  10 C10            1.9065     0.7395     2.1814 C.ar    
  11 C11            4.7799     1.5189    -0.0672 C.ar    
  12 C12            4.5633     0.5788    -1.0643 C.ar    
  13 C13            3.4956    -0.2980    -1.0063 C.ar    
  14 O14           -0.0065    -0.1854     3.1316 O.2     
  15 O15            1.2722    -1.9917    -0.7133 O.2     
  16 N16            5.4937     0.5133    -2.2138 N.pl3   
  17 O17            5.2593    -0.2359    -3.1451 O.2     
  18 O18            6.4936     1.2086    -2.2283 O.2     
  19 C19           -0.5078    -2.0289     1.2706 C.3     
  20 C20           -1.7193    -1.4039     0.5761 C.3     
  21 C21           -2.9002    -2.3747     0.6388 C.3     
  22 O22           -4.0318    -1.7910    -0.0099 O.3     
  23 N23            5.8552     2.3840    -0.1504 N.pl3   
  24 C24            5.6773     3.6726    -0.6607 C.ar    
  25 C25            6.7304     4.5790    -0.6451 C.ar    
  26 C26            6.5517     5.8516    -1.1499 C.ar    
  27 C27            5.3251     6.2248    -1.6711 C.ar    
  28 C28            4.2746     5.3247    -1.6875 C.ar    
  29 C29            4.4491     4.0483    -1.1896 C.ar    
  30 C30            7.6932     6.8353    -1.1330 C.3     
  31 C31            8.0662     4.1735    -0.0773 C.3     
  32 Br32           5.0845     7.9687    -2.3615 Br      
  33 H33            4.8964     3.2117     2.0398 H       
  34 H34            3.3239     3.2722     3.9130 H       
  35 H35            1.4251     1.7195     4.0249 H       
  36 H36            3.3502    -1.0201    -1.7961 H       
  37 H37           -0.2408    -2.9588     0.7684 H       
  38 H38           -0.7530    -2.2360     2.3123 H       
  39 H39           -1.9864    -0.4741     1.0783 H       
  40 H40           -1.4742    -1.1968    -0.4656 H       
  41 H41           -2.6332    -3.3046     0.1366 H       
  42 H42           -3.1454    -2.5818     1.6805 H       
  43 H43           -4.8191    -2.3524    -0.0082 H       
  44 H44            6.7330     2.0963     0.1454 H       
  45 H45            3.3184     5.6191    -2.0942 H       
  46 H46            3.6301     3.3445    -1.2074 H       
  47 H47            8.2638     6.7457    -2.0574 H       
  48 H48            7.2990     7.8478    -1.0461 H       
  49 H49            8.3423     6.6240    -0.2833 H       
  50 H50            8.6835     3.7486    -0.8688 H       
  51 H51            8.5637     5.0483     0.3414 H       
  52 H52            7.9175     3.4303     0.7061 H       
@<TRIPOS>BOND
   1    1    2 am
   2    1   10 1
   3    1   14 2
   4    2    3 am
   5    2   19 1
   6    3    4 1
   7    3   15 2
   8    4    5 ar
   9    4   13 ar
  10    5    6 ar
  11    5   10 ar
  12    6    7 ar
  13    6   11 ar
  14    7    8 ar
  15    7   33 1
  16    8    9 ar
  17    8   34 1
  18    9   10 ar
  19    9   35 1
  20   11   12 ar
  21   11   23 1
  22   12   13 ar
  23   12   16 1
  24   13   36 1
  25   16   17 2
  26   16   18 2
  27   19   20 1
  28   19   37 1
  29   19   38 1
  30   20   21 1
  31   20   39 1
  32   20   40 1
  33   21   22 1
  34   21   41 1
  35   21   42 1
  36   22   43 1
  37   23   24 1
  38   23   44 1
  39   24   25 ar
  40   24   29 ar
  41   25   26 ar
  42   25   31 1
  43   26   27 ar
  44   26   30 1
  45   27   28 ar
  46   27   32 1
  47   28   29 ar
  48   28   45 1
  49   29   46 1
  50   30   47 1
  51   30   48 1
  52   30   49 1
  53   31   50 1
  54   31   51 1
  55   31   52 1

#	End of record

