#	Name: ASD01901547
#	Creating user name:	WinNT
#	Creation time:	15. 06. 2019 19:53

#	Modifying user name:	WinNT
#	Modification time:	15. 06. 2019 19:53

#	Program:	/corina/corina34_cracker 3.40 0067  02.08.2006

@<TRIPOS>MOLECULE
ASD01901547
  30   33    0    0    0
SMALL
NO_CHARGES


@<TRIPOS>ATOM
   1 C1             1.1751     1.7681     0.3257 C.3     
   2 C2             0.9990     0.2771     0.1951 C.2     
   3 N3             1.0803    -0.4125    -0.9009 N.2     
   4 O4             0.8561    -1.7799    -0.6222 O.3     
   5 C5             0.6279    -1.9347     0.6993 C.ar    
   6 C6             0.3564    -3.0421     1.4971 C.ar    
   7 F7             0.2818    -4.2719     0.9429 F       
   8 C8             0.1639    -2.8843     2.8534 C.ar    
   9 C9             0.2390    -1.6206     3.4363 C.ar    
  10 N10            0.0420    -1.4754     4.8138 N.pl3   
  11 C11           -0.4838    -0.2845     5.3231 C.2     
  12 N12           -0.9270     0.7250     4.6222 N.2     
  13 N13           -1.3767     1.7395     5.4728 N.pl3   
  14 H14           -1.7505     2.5875     5.1865 H       
  15 C15           -1.2074     1.3475     6.7727 C.ar    
  16 N16           -1.4626     1.9200     7.9432 N.ar    
  17 C17           -1.1830     1.2799     9.0613 C.ar    
  18 C18           -0.6219     0.0090     9.0275 C.ar    
  19 N19           -0.3611    -0.5751     7.8758 N.ar    
  20 C20           -0.6433     0.0548     6.7387 C.ar    
  21 C21            0.5079    -0.5097     2.6579 C.ar    
  22 C22            0.7106    -0.6611     1.2839 C.ar    
  23 H23            2.2252     1.9951     0.5100 H       
  24 H24            0.8547     2.2539    -0.5959 H       
  25 H25            0.5730     2.1335     1.1575 H       
  26 H26           -0.0469    -3.7465     3.4686 H       
  27 H27            0.2703    -2.2012     5.4155 H       
  28 H28           -1.3915     1.7476    10.0122 H       
  29 H29           -0.3978    -0.5032     9.9516 H       
  30 H30            0.5656     0.4692     3.1105 H       
@<TRIPOS>BOND
   1    1    2 1
   2    1   23 1
   3    1   24 1
   4    1   25 1
   5    2   22 1
   6    2    3 2
   7    3    4 1
   8    4    5 1
   9    5   22 ar
  10    5    6 ar
  11    6    7 1
  12    6    8 ar
  13    8    9 ar
  14    8   26 1
  15    9   10 1
  16    9   21 ar
  17   10   11 1
  18   10   27 1
  19   11   20 1
  20   11   12 2
  21   12   13 1
  22   13   14 1
  23   13   15 1
  24   15   20 ar
  25   15   16 ar
  26   16   17 ar
  27   17   18 ar
  28   17   28 1
  29   18   19 ar
  30   18   29 1
  31   19   20 ar
  32   21   22 ar
  33   21   30 1

#	End of record

