#	Name: ASD01900958
#	Creating user name:	WinNT
#	Creation time:	15. 06. 2019 19:52

#	Modifying user name:	WinNT
#	Modification time:	15. 06. 2019 19:52

#	Program:	/corina/corina34_cracker 3.40 0067  02.08.2006

@<TRIPOS>MOLECULE
ASD01900958
  56   60    0    0    0
SMALL
NO_CHARGES


@<TRIPOS>ATOM
   1 C1             0.0917     1.4924    -1.2738 C.ar    
   2 C2             0.0353     0.1148    -1.2655 C.ar    
   3 C3             1.0241    -0.6260    -0.6372 C.ar    
   4 C4             2.0768     0.0054    -0.0036 C.ar    
   5 C5             2.1460     1.3888     0.0005 C.ar    
   6 C6             1.1526     2.1442    -0.6455 C.ar    
   7 N7             3.1816     2.0597     0.6459 N.pl3   
   8 C8             3.5318     3.4041     0.1821 C.3     
   9 N9             2.3682     4.2100    -0.1804 N.am    
  10 C10            1.2472     3.6146    -0.6415 C.2     
  11 C11            4.5197     4.1304     1.1057 C.3     
  12 C12            2.4152     5.6034    -0.0484 C.ar    
  13 C13            2.9083     6.3832    -1.0862 C.ar    
  14 C14            2.9543     7.7571    -0.9553 C.ar    
  15 C15            2.5080     8.3583     0.2125 C.ar    
  16 C16            2.0152     7.5799     1.2496 C.ar    
  17 C17            1.9633     6.2063     1.1180 C.ar    
  18 O18            0.3214     4.2882    -1.0518 O.2     
  19 O19            2.5540     9.7112     0.3408 O.3     
  20 C20            2.0782    10.2628     1.5701 C.3     
  21 C21            4.6447     3.4170    -0.8746 C.3     
  22 N22            5.1928     4.5766    -0.1351 N.3     
  23 C23            6.6528     4.4769    -0.0070 C.3     
  24 C24            7.2916     4.7003    -1.3535 C.ar    
  25 C25            7.7129     3.6212    -2.1065 C.ar    
  26 C26            8.2990     3.8256    -3.3418 C.ar    
  27 C27            8.4646     5.1098    -3.8272 C.ar    
  28 C28            8.0452     6.1919    -3.0783 C.ar    
  29 C29            7.4519     5.9892    -1.8405 C.ar    
  30 O30            7.0332     7.0520    -1.1041 O.3     
  31 C31            7.2303     8.3500    -1.6682 C.3     
  32 F32            6.5423     8.4400    -2.8830 F       
  33 F33            6.7459     9.3208    -0.7850 F       
  34 F34            8.5957     8.5602    -1.8889 F       
  35 H35           -0.6798     2.0640    -1.7683 H       
  36 H36           -0.7856    -0.3908    -1.7521 H       
  37 H37            0.9708    -1.7047    -0.6426 H       
  38 H38            2.8425    -0.5772     0.4868 H       
  39 H39            3.6583     1.6477     1.3834 H       
  40 H40            4.0707     4.9419     1.6784 H       
  41 H41            5.1240     3.4601     1.7170 H       
  42 H42            3.2561     5.9153    -1.9953 H       
  43 H43            3.3382     8.3637    -1.7622 H       
  44 H44            1.6679     8.0487     2.1585 H       
  45 H45            1.5755     5.6007     1.9238 H       
  46 H46            1.0319     9.9908     1.7096 H       
  47 H47            2.6691     9.8699     2.3975 H       
  48 H48            2.1706    11.3485     1.5411 H       
  49 H49            5.2859     2.5360    -0.8483 H       
  50 H50            4.2953     3.6608    -1.8779 H       
  51 H51            7.0085     5.2322     0.6937 H       
  52 H52            6.9184     3.4859     0.3612 H       
  53 H53            7.5846     2.6173    -1.7296 H       
  54 H54            8.6283     2.9808    -3.9286 H       
  55 H55            8.9228     5.2668    -4.7926 H       
  56 H56            8.1751     7.1947    -3.4576 H       
@<TRIPOS>BOND
   1    1    2 ar
   2    1    6 ar
   3    1   35 1
   4    2    3 ar
   5    2   36 1
   6    3    4 ar
   7    3   37 1
   8    4    5 ar
   9    4   38 1
  10    5    7 1
  11    5    6 ar
  12    6   10 1
  13    7    8 1
  14    7   39 1
  15    8    9 1
  16    8   11 1
  17    8   21 1
  18    9   10 am
  19    9   12 1
  20   10   18 2
  21   11   22 1
  22   11   40 1
  23   11   41 1
  24   12   13 ar
  25   12   17 ar
  26   13   14 ar
  27   13   42 1
  28   14   15 ar
  29   14   43 1
  30   15   16 ar
  31   15   19 1
  32   16   17 ar
  33   16   44 1
  34   17   45 1
  35   19   20 1
  36   20   46 1
  37   20   47 1
  38   20   48 1
  39   21   22 1
  40   21   49 1
  41   21   50 1
  42   22   23 1
  43   23   24 1
  44   23   51 1
  45   23   52 1
  46   24   25 ar
  47   24   29 ar
  48   25   26 ar
  49   25   53 1
  50   26   27 ar
  51   26   54 1
  52   27   28 ar
  53   27   55 1
  54   28   29 ar
  55   28   56 1
  56   29   30 1
  57   30   31 1
  58   31   32 1
  59   31   33 1
  60   31   34 1

#	End of record

