#	Name: ASD01916025
#	Creating user name:	WinNT
#	Creation time:	15. 06. 2019 20:06

#	Modifying user name:	WinNT
#	Modification time:	15. 06. 2019 20:06

#	Program:	/corina/corina34_cracker 3.40 0067  02.08.2006

@<TRIPOS>MOLECULE
ASD01916025
  39   41    0    0    0
SMALL
NO_CHARGES


@<TRIPOS>ATOM
   1 C1            -0.1939     1.6144    -0.9850 C.ar    
   2 C2            -0.2235     0.2824    -1.4278 C.ar    
   3 N3            -1.3380    -0.4091    -1.2971 N.ar    
   4 C4            -2.4196     0.1365    -0.7571 C.ar    
   5 C5            -3.6500    -0.6808    -0.6307 C.2     
   6 N6            -4.7113    -0.2006     0.0473 N.am    
   7 O7            -3.7017    -1.7835    -1.1383 O.2     
   8 C8             0.9946     2.4039    -1.1071 C.1     
   9 C9             1.9689     3.0511    -1.2072 C.1     
  10 C10            3.1574     3.8405    -1.3294 C.ar    
  11 C11            3.1693     5.1646    -0.8835 C.ar    
  12 C12            5.4544     4.0531    -2.0045 C.ar    
  13 C13            4.3200     5.9196    -1.0044 C.ar    
  14 N14           -2.4338     1.3909    -0.3264 N.ar    
  15 C15           -1.3631     2.1533    -0.4245 C.ar    
  16 C16            4.3128     3.2881    -1.8900 C.ar    
  17 C17            5.4592     5.3657    -1.5666 C.ar    
  18 C18           -4.5933     1.0488     0.8033 C.3     
  19 C19           -5.9637    -2.3075     0.6897 C.3     
  20 C20           -5.9828    -0.9280     0.0284 C.3     
  21 C21           -7.2684    -0.1066     0.1445 C.3     
  22 C22           -6.8844    -0.7428    -1.1938 C.3     
  23 F23            4.3346     7.2002    -0.5742 F       
  24 F24           -5.4672    -2.1933     1.9926 F       
  25 F25           -7.2635    -2.8236     0.7295 F       
  26 F26           -5.1431    -3.1672    -0.0483 F       
  27 H27            0.6532    -0.1686    -1.8688 H       
  28 H28            2.2815     5.5968    -0.4460 H       
  29 H29            6.3458     3.6281    -2.4416 H       
  30 H30           -1.3821     3.1737    -0.0713 H       
  31 H31            4.3115     2.2638    -2.2325 H       
  32 H32            6.3565     5.9597    -1.6587 H       
  33 H33           -4.7695     1.8940     0.1380 H       
  34 H34           -5.3304     1.0586     1.6062 H       
  35 H35           -3.5922     1.1232     1.2281 H       
  36 H36           -8.1006    -0.5490     0.6921 H       
  37 H37           -7.1681     0.9751     0.2346 H       
  38 H38           -6.5318    -0.0795    -1.9835 H       
  39 H39           -7.4641    -1.6038    -1.5267 H       
@<TRIPOS>BOND
   1    1    2 ar
   2    1    8 1
   3    1   15 ar
   4    2    3 ar
   5    2   27 1
   6    3    4 ar
   7    4   14 ar
   8    4    5 1
   9    5    6 am
  10    5    7 2
  11    6   18 1
  12    6   20 1
  13    8    9 3
  14    9   10 1
  15   10   11 ar
  16   10   16 ar
  17   11   13 ar
  18   11   28 1
  19   12   17 ar
  20   12   16 ar
  21   12   29 1
  22   13   23 1
  23   13   17 ar
  24   14   15 ar
  25   15   30 1
  26   16   31 1
  27   17   32 1
  28   18   33 1
  29   18   34 1
  30   18   35 1
  31   19   20 1
  32   19   24 1
  33   19   25 1
  34   19   26 1
  35   20   21 1
  36   20   22 1
  37   21   22 1
  38   21   36 1
  39   21   37 1
  40   22   38 1
  41   22   39 1

#	End of record

