#	Name: ASD01202010
#	Creating user name:	WinNT
#	Creation time:	15. 06. 2019 19:09

#	Modifying user name:	WinNT
#	Modification time:	15. 06. 2019 19:09

#	Program:	/corina/corina34_cracker 3.40 0067  02.08.2006

@<TRIPOS>MOLECULE
ASD01202010
  33   35    0    0    0
SMALL
NO_CHARGES


@<TRIPOS>ATOM
   1 C1            -0.0179     1.4661     0.0101 C.2     
   2 C2             0.0021    -0.0041     0.0020 C.2     
   3 C3             1.2670     1.8524    -0.0001 C.2     
   4 C4             1.3210    -0.3533    -0.0125 C.2     
   5 C5            -1.1594    -0.9106     0.0090 C.2     
   6 O6             2.0533     0.7648    -0.0134 O.3     
   7 C7             1.8602    -1.7605    -0.0256 C.3     
   8 O8            -0.9907    -2.1151     0.0012 O.2     
   9 N9            -2.4087    -0.4052     0.0239 N.am    
  10 C10           -3.5037    -1.2599     0.0304 C.2     
  11 N11           -4.7361    -0.8809     0.0445 N.2     
  12 S12           -3.4132    -2.9648     0.0136 S.3     
  13 C13           -5.6770    -1.8310     0.0434 C.2     
  14 C14           -5.1759    -3.0701     0.0280 C.2     
  15 H15           -2.5432     0.5554     0.0300 H       
  16 C16           -7.2021    -1.8928     0.0540 C.3     
  17 C17           -7.5421    -3.3326     0.4890 C.3     
  18 C18           -6.2870    -4.1036     0.0293 C.3     
  19 C19            1.7502     3.2798     0.0030 C.3     
  20 O20            1.9158     3.7238     1.3511 O.3     
  21 H21           -0.8889     2.1046     0.0179 H       
  22 H22            1.9805    -2.0938    -1.0564 H       
  23 H23            2.8261    -1.7841     0.4790 H       
  24 H24            1.1641    -2.4212     0.4911 H       
  25 H25           -7.6051    -1.1761     0.7696 H       
  26 H26           -7.5959    -1.6957    -0.9431 H       
  27 H27           -7.6641    -3.3950     1.5704 H       
  28 H28           -8.4326    -3.6953    -0.0242 H       
  29 H29           -6.4340    -4.5041    -0.9738 H       
  30 H30           -6.0574    -4.9068     0.7295 H       
  31 H31            2.7047     3.3414    -0.5197 H       
  32 H32            1.0188     3.9121    -0.5005 H       
  33 H33            2.2256     4.6365     1.4294 H       
@<TRIPOS>BOND
   1    1    2 1
   2    1    3 2
   3    1   21 1
   4    2    4 2
   5    2    5 1
   6    3    6 1
   7    3   19 1
   8    4    7 1
   9    4    6 1
  10    5    8 2
  11    5    9 am
  12    7   22 1
  13    7   23 1
  14    7   24 1
  15    9   15 1
  16    9   10 1
  17   10   11 2
  18   10   12 1
  19   11   13 1
  20   12   14 1
  21   13   16 1
  22   13   14 2
  23   14   18 1
  24   16   17 1
  25   16   25 1
  26   16   26 1
  27   17   18 1
  28   17   27 1
  29   17   28 1
  30   18   29 1
  31   18   30 1
  32   19   20 1
  33   19   31 1
  34   19   32 1
  35   20   33 1

#	End of record

