#	Name: ASD03092073
#	Creating user name:	WinNT
#	Creation time:	15. 06. 2019 20:31

#	Modifying user name:	WinNT
#	Modification time:	15. 06. 2019 20:31

#	Program:	/corina/corina34_cracker 3.40 0067  02.08.2006

@<TRIPOS>MOLECULE
ASD03092073
  43   45    0    0    0
SMALL
NO_CHARGES


@<TRIPOS>ATOM
   1 N1             0.3580     0.9995    -0.2175 N.pl3   
   2 C2             0.0807    -0.3069     0.0565 C.2     
   3 C3            -1.2778    -0.4479     0.0452 C.2     
   4 C4            -1.8358     0.8040    -0.2427 C.2     
   5 N5            -0.8596     1.6691    -0.3935 N.2     
   6 N6            -3.2033     1.0866    -0.3459 N.pl3   
   7 C7            -3.6327     2.4037    -0.5259 C.ar    
   8 C8            -4.8170     2.6630    -1.2035 C.ar    
   9 C9            -5.2388     3.9676    -1.3798 C.ar    
  10 C10           -4.4822     5.0138    -0.8818 C.ar    
  11 C11           -2.8787     3.4568    -0.0224 C.ar    
  12 C12            1.0696    -1.3756     0.3176 C.ar    
  13 C13            1.6923     1.5980    -0.3059 C.3     
  14 C14            2.3616    -1.0678     0.7581 C.ar    
  15 C15            3.2518    -2.0957     0.9898 C.ar    
  16 N16            2.8988    -3.3530     0.8015 N.ar    
  17 C17            1.6912    -3.6867     0.3871 C.ar    
  18 C18            0.7371    -2.7231     0.1365 C.ar    
  19 C19            1.3484    -5.1410     0.1903 C.3     
  20 O20            1.7067     2.5782    -1.3457 O.3     
  21 C21           -3.3024     4.7580    -0.2072 C.ar    
  22 Cl22          -6.7186     4.2937    -2.2270 Cl      
  23 C23            2.0422     2.2631     1.0268 C.3     
  24 C24            3.4817     2.7790     0.9768 C.3     
  25 H25           -1.8243    -1.3618     0.2261 H       
  26 H26           -3.8525     0.3678    -0.2923 H       
  27 H27           -5.4074     1.8466    -1.5924 H       
  28 H28           -4.8135     6.0323    -1.0207 H       
  29 H29           -1.9597     3.2579     0.5088 H       
  30 H30            2.4246     0.8219    -0.5280 H       
  31 H31            2.6575    -0.0409     0.9140 H       
  32 H32            4.2514    -1.8682     1.3296 H       
  33 H33           -0.2493    -3.0035    -0.2024 H       
  34 H34            0.9469    -5.5484     1.1181 H       
  35 H35            0.6038    -5.2350    -0.6001 H       
  36 H36            2.2467    -5.6913    -0.0895 H       
  37 H37            1.0780     3.3009    -1.2137 H       
  38 H38           -2.7138     5.5768     0.1795 H       
  39 H39            1.3634     3.0970     1.2060 H       
  40 H40            1.9447     1.5356     1.8326 H       
  41 H41            4.1605     1.9452     0.7976 H       
  42 H42            3.5792     3.5065     0.1710 H       
  43 H43            3.7310     3.2529     1.9263 H       
@<TRIPOS>BOND
   1    1    2 1
   2    1   13 1
   3    1    5 1
   4    2    3 2
   5    2   12 1
   6    3    4 1
   7    3   25 1
   8    4    5 2
   9    4    6 1
  10    6    7 1
  11    6   26 1
  12    7    8 ar
  13    7   11 ar
  14    8    9 ar
  15    8   27 1
  16    9   10 ar
  17    9   22 1
  18   10   21 ar
  19   10   28 1
  20   11   21 ar
  21   11   29 1
  22   12   14 ar
  23   12   18 ar
  24   13   20 1
  25   13   23 1
  26   13   30 1
  27   14   15 ar
  28   14   31 1
  29   15   16 ar
  30   15   32 1
  31   16   17 ar
  32   17   18 ar
  33   17   19 1
  34   18   33 1
  35   19   34 1
  36   19   35 1
  37   19   36 1
  38   20   37 1
  39   21   38 1
  40   23   24 1
  41   23   39 1
  42   23   40 1
  43   24   41 1
  44   24   42 1
  45   24   43 1

#	End of record

