#	Name: ASD04590758
#	Creating user name:	WinNT
#	Creation time:	15. 06. 2019 20:51

#	Modifying user name:	WinNT
#	Modification time:	15. 06. 2019 20:51

#	Program:	/corina/corina34_cracker 3.40 0067  02.08.2006

@<TRIPOS>MOLECULE
ASD04590758
  45   48    0    0    0
SMALL
NO_CHARGES


@<TRIPOS>ATOM
   1 N1             0.2221     2.1943    -0.1289 N.ar    
   2 C2             0.0541     0.8781    -0.1869 C.ar    
   3 N3             1.0711     0.0388    -0.2949 N.ar    
   4 C4             2.3184     0.4928    -0.3497 C.ar    
   5 C5             2.5339     1.8889    -0.2900 C.ar    
   6 C6             1.4285     2.7317    -0.1768 C.ar    
   7 N7             3.5471    -0.1038    -0.4577 N.pl3   
   8 C8             4.5300     0.8461    -0.4683 C.2     
   9 C9             3.9752     2.0717    -0.3690 C.2     
  10 C10            3.7742    -1.5483    -0.5478 C.3     
  11 C11            3.0643    -2.2669     0.6130 C.3     
  12 C12            2.0417    -3.2301    -0.0245 C.3     
  13 C13            2.5970    -3.4863    -1.4475 C.3     
  14 C14            3.1581    -2.0999    -1.8502 C.3     
  15 S15           -1.5815     0.2265    -0.1168 S.3     
  16 C16            6.0227     0.6343    -0.5732 C.3     
  17 O17            6.6289     1.8892    -0.9075 O.3     
  18 C18            6.2405     2.9765    -0.0635 C.3     
  19 C19            4.7776     3.3475    -0.3489 C.3     
  20 C20           -2.5265     1.7638     0.0235 C.3     
  21 C21            6.5693     0.1372     0.7665 C.3     
  22 C22            6.3231    -0.3922    -1.6674 C.3     
  23 H23            1.5559     3.8031    -0.1296 H       
  24 H24            4.8430    -1.7604    -0.5205 H       
  25 H25            3.7885    -2.8284     1.2032 H       
  26 H26            2.5508    -1.5409     1.2433 H       
  27 H27            1.9923    -4.1617     0.5392 H       
  28 H28            1.0585    -2.7624    -0.0771 H       
  29 H29            3.3913    -4.2324    -1.4237 H       
  30 H30            1.7990    -3.7915    -2.1244 H       
  31 H31            2.3553    -1.4497    -2.1977 H       
  32 H32            3.9235    -2.2067    -2.6189 H       
  33 H33            6.3434     2.6810     0.9806 H       
  34 H34            6.8791     3.8371    -0.2624 H       
  35 H35            4.7047     3.8448    -1.3161 H       
  36 H36            4.4041     4.0065     0.4349 H       
  37 H37           -2.2228     2.2960     0.9249 H       
  38 H38           -2.3357     2.3885    -0.8490 H       
  39 H39           -3.5903     1.5325     0.0791 H       
  40 H40            6.0884    -0.8054     1.0279 H       
  41 H41            7.6457    -0.0141     0.6862 H       
  42 H42            6.3632     0.8770     1.5400 H       
  43 H43            5.6827    -0.2028    -2.5289 H       
  44 H44            7.3680    -0.3094    -1.9663 H       
  45 H45            6.1325    -1.3955    -1.2865 H       
@<TRIPOS>BOND
   1    1    2 ar
   2    1    6 ar
   3    2    3 ar
   4    2   15 1
   5    3    4 ar
   6    4    5 ar
   7    4    7 1
   8    5    6 ar
   9    5    9 1
  10    6   23 1
  11    7    8 1
  12    7   10 1
  13    8    9 2
  14    8   16 1
  15    9   19 1
  16   10   11 1
  17   10   14 1
  18   10   24 1
  19   11   12 1
  20   11   25 1
  21   11   26 1
  22   12   13 1
  23   12   27 1
  24   12   28 1
  25   13   14 1
  26   13   29 1
  27   13   30 1
  28   14   31 1
  29   14   32 1
  30   15   20 1
  31   16   17 1
  32   16   21 1
  33   16   22 1
  34   17   18 1
  35   18   19 1
  36   18   33 1
  37   18   34 1
  38   19   35 1
  39   19   36 1
  40   20   37 1
  41   20   38 1
  42   20   39 1
  43   21   40 1
  44   21   41 1
  45   21   42 1
  46   22   43 1
  47   22   44 1
  48   22   45 1

#	End of record

