#	Name: ASD01914953
#	Creating user name:	WinNT
#	Creation time:	15. 06. 2019 20:04

#	Modifying user name:	WinNT
#	Modification time:	15. 06. 2019 20:04

#	Program:	/corina/corina34_cracker 3.40 0067  02.08.2006

@<TRIPOS>MOLECULE
ASD01914953
  60   64    0    0    0
SMALL
NO_CHARGES


@<TRIPOS>ATOM
   1 C1            -0.0035     1.3306    -0.0212 C.2     
   2 N2             0.0142     0.0585     0.3178 N.2     
   3 C3             1.3078     1.7203    -0.3417 C.2     
   4 C4             2.1160     0.6330    -0.1826 C.2     
   5 N5             1.3324    -0.4057     0.2255 N.pl3   
   6 C6            -1.2043     2.2022    -0.0635 C.ar    
   7 C7            -1.1037     3.5075    -0.5409 C.ar    
   8 C8            -2.2223     4.3141    -0.5790 C.ar    
   9 C9            -3.4445     3.8281    -0.1431 C.ar    
  10 C10           -3.5488     2.5313     0.3326 C.ar    
  11 C11           -2.4361     1.7158     0.3684 C.ar    
  12 C12            3.5775     0.5887    -0.4112 C.ar    
  13 C13            1.7890    -1.7669     0.5170 C.3     
  14 C14            2.0670    -1.8985     1.9922 C.2     
  15 N15            2.5010    -3.0716     2.4942 N.am    
  16 O16            1.9001    -0.9487     2.7278 O.2     
  17 C17            2.7763    -3.2153     3.9303 C.3     
  18 C18            4.2000    -3.7523     4.1081 C.3     
  19 C19            4.3569    -5.0458     3.3055 C.3     
  20 C20            4.1317    -4.7568     1.8196 C.3     
  21 C21            2.7020    -4.2327     1.6167 C.3     
  22 C22            4.1832     1.5215    -1.2532 C.ar    
  23 C23            5.5463     1.4750    -1.4624 C.ar    
  24 C24            6.3120     0.5059    -0.8392 C.ar    
  25 C25            5.7172    -0.4220    -0.0030 C.ar    
  26 C26            4.3559    -0.3824     0.2188 C.ar    
  27 C27            5.7459    -5.5952     3.5052 C.2     
  28 O28            6.0596    -6.7952     4.0219 O.3     
  29 F29           -4.5374     4.6214    -0.1817 F       
  30 C30           -4.8806     2.0084     0.8059 C.3     
  31 C31            7.4011    -6.8712     4.0155 C.2     
  32 N32            7.8528    -5.7570     3.5139 N.2     
  33 N33            6.8626    -4.9961     3.2034 N.2     
  34 C34            8.2308    -8.0322     4.4999 C.3     
  35 H35            1.6200     2.7047    -0.6576 H       
  36 H36           -0.1513     3.8873    -0.8802 H       
  37 H37           -2.1452     5.3259    -0.9489 H       
  38 H38           -2.5184     0.7047     0.7391 H       
  39 H39            1.0160    -2.4791     0.2279 H       
  40 H40            2.7005    -1.9724    -0.0443 H       
  41 H41            2.6884    -2.2445     4.4181 H       
  42 H42            2.0647    -3.9137     4.3707 H       
  43 H43            4.9154    -3.0123     3.7491 H       
  44 H44            4.3834    -3.9543     5.1633 H       
  45 H45            3.6247    -5.7769     3.6482 H       
  46 H46            4.8478    -4.0074     1.4822 H       
  47 H47            4.2667    -5.6738     1.2460 H       
  48 H48            1.9867    -5.0158     1.8683 H       
  49 H49            2.5670    -3.9318     0.5778 H       
  50 H50            3.5865     2.2784    -1.7406 H       
  51 H51            6.0164     2.1964    -2.1143 H       
  52 H52            7.3785     0.4733    -1.0063 H       
  53 H53            6.3202    -1.1762     0.4807 H       
  54 H54            3.8927    -1.1074     0.8717 H       
  55 H55           -5.4090     1.5504    -0.0302 H       
  56 H56           -4.7221     1.2646     1.5868 H       
  57 H57           -5.4738     2.8319     1.2034 H       
  58 H58            8.4031    -8.7245     3.6758 H       
  59 H59            9.1873    -7.6650     4.8719 H       
  60 H60            7.7022    -8.5468     5.3023 H       
@<TRIPOS>BOND
   1    1    2 2
   2    1    3 1
   3    1    6 1
   4    2    5 1
   5    3    4 2
   6    3   35 1
   7    4    5 1
   8    4   12 1
   9    5   13 1
  10    6    7 ar
  11    6   11 ar
  12    7    8 ar
  13    7   36 1
  14    8    9 ar
  15    8   37 1
  16    9   10 ar
  17    9   29 1
  18   10   11 ar
  19   10   30 1
  20   11   38 1
  21   12   22 ar
  22   12   26 ar
  23   13   14 1
  24   13   39 1
  25   13   40 1
  26   14   15 am
  27   14   16 2
  28   15   17 1
  29   15   21 1
  30   17   18 1
  31   17   41 1
  32   17   42 1
  33   18   19 1
  34   18   43 1
  35   18   44 1
  36   19   20 1
  37   19   27 1
  38   19   45 1
  39   20   21 1
  40   20   46 1
  41   20   47 1
  42   21   48 1
  43   21   49 1
  44   22   23 ar
  45   22   50 1
  46   23   24 ar
  47   23   51 1
  48   24   25 ar
  49   24   52 1
  50   25   26 ar
  51   25   53 1
  52   26   54 1
  53   27   28 1
  54   27   33 2
  55   28   31 1
  56   30   55 1
  57   30   56 1
  58   30   57 1
  59   31   32 2
  60   31   34 1
  61   32   33 1
  62   34   58 1
  63   34   59 1
  64   34   60 1

#	End of record

