#	Name: ASD09080132
#	Creating user name:	WinNT
#	Creation time:	15. 06. 2019 21:20

#	Modifying user name:	WinNT
#	Modification time:	15. 06. 2019 21:20

#	Program:	/corina/corina34_cracker 3.40 0067  02.08.2006

@<TRIPOS>MOLECULE
ASD09080132
  30   30    0    0    0
SMALL
NO_CHARGES


@<TRIPOS>ATOM
   1 C1            -0.0189     1.5449     0.0105 C.3     
   2 C2             0.0021    -0.0041     0.0020 C.3     
   3 O3             1.3945     1.8583    -0.0013 O.3     
   4 C4             2.0042     0.8373     0.8064 C.3     
   5 O5             1.1567    -0.3191     0.8062 O.3     
   6 C6             3.3723     0.4720     0.2268 C.3     
   7 C7             2.1758     1.3486     2.2381 C.3     
   8 C8            -1.2704    -0.5656     0.6396 C.3     
   9 O9            -2.4101    -0.1151    -0.0954 O.3     
  10 C10           -1.2212    -2.0716     0.6169 C.2     
  11 O11           -2.0211    -2.6923    -0.0425 O.2     
  12 O12           -0.2887    -2.7235     1.3292 O.3     
  13 C13           -0.3009    -4.1738     1.2601 C.3     
  14 C14            0.8257    -4.7352     2.1299 C.3     
  15 H15           -0.5122     1.9334    -0.8804 H       
  16 H16           -0.4951     1.9237     0.9149 H       
  17 H17            0.1248    -0.3821    -1.0130 H       
  18 H18            4.0191     1.3493     0.2416 H       
  19 H19            3.8209    -0.3203     0.8260 H       
  20 H20            3.2515     0.1269    -0.8000 H       
  21 H21            1.2032     1.6276     2.6434 H       
  22 H22            2.6145     0.5636     2.8541 H       
  23 H23            2.8321     2.2188     2.2369 H       
  24 H24           -1.3431    -0.2199     1.6707 H       
  25 H25           -2.4122    -0.3867    -1.0234 H       
  26 H26           -1.2592    -4.5467     1.6215 H       
  27 H27           -0.1542    -4.4896     0.2272 H       
  28 H28            1.7840    -4.3623     1.7685 H       
  29 H29            0.6790    -4.4194     3.1628 H       
  30 H30            0.8165    -5.8240     2.0781 H       
@<TRIPOS>BOND
   1    1    2 1
   2    1    3 1
   3    1   15 1
   4    1   16 1
   5    2    5 1
   6    2    8 1
   7    2   17 1
   8    3    4 1
   9    4    5 1
  10    4    6 1
  11    4    7 1
  12    6   18 1
  13    6   19 1
  14    6   20 1
  15    7   21 1
  16    7   22 1
  17    7   23 1
  18    8    9 1
  19    8   10 1
  20    8   24 1
  21    9   25 1
  22   10   11 2
  23   10   12 1
  24   12   13 1
  25   13   14 1
  26   13   26 1
  27   13   27 1
  28   14   28 1
  29   14   29 1
  30   14   30 1

#	End of record

