#	Name: ASD01912209
#	Creating user name:	WinNT
#	Creation time:	15. 06. 2019 19:59

#	Modifying user name:	WinNT
#	Modification time:	15. 06. 2019 19:59

#	Program:	/corina/corina34_cracker 3.40 0067  02.08.2006

@<TRIPOS>MOLECULE
ASD01912209
  48   50    0    0    0
SMALL
NO_CHARGES


@<TRIPOS>ATOM
   1 C1            -0.3091     1.2055     0.2188 C.ar    
   2 C2            -0.3659    -0.1913     0.2088 C.ar    
   3 C3             0.8131    -0.9113     0.2674 C.ar    
   4 C4             2.0131    -0.2156     0.3341 C.ar    
   5 C5             1.9978     1.1673     0.3403 C.ar    
   6 N6             0.8622     1.8321     0.2838 N.ar    
   7 C7             3.2989     1.9242     0.4127 C.3     
   8 C8            -1.5201     1.9668     0.1528 C.1     
   9 C9            -2.5129     2.5910     0.0986 C.1     
  10 C10           -3.7239     3.3524     0.0325 C.2     
  11 N11           -3.6305     7.3286     0.9691 N.3     
  12 C12           -4.8822     6.5695     1.0828 C.3     
  13 C13           -4.9400     5.5137    -0.0271 C.3     
  14 C14           -3.6751     4.6838     0.0418 C.2     
  15 C15           -2.3530     5.4178     0.1220 C.3     
  16 C16           -2.4596     6.4797     1.2224 C.3     
  17 C17           -3.6384     8.4370     1.8189 C.ar    
  18 C18           -3.6121     9.7211     1.2879 C.ar    
  19 C19           -3.6199    10.8170     2.1284 C.ar    
  20 C20           -3.6539    10.6400     3.4988 C.ar    
  21 C21           -3.6806     9.3602     4.0347 C.ar    
  22 C22           -3.6782     8.2577     3.1946 C.ar    
  23 N23           -3.5753     9.9142    -0.1790 N.pl3   
  24 O24           -3.6511    11.0359    -0.6477 O.2     
  25 O25           -3.4692     8.9516    -0.9176 O.2     
  26 O26           -3.7139     9.1880     5.3823 O.3     
  27 C27           -3.7195    10.3687     6.1873 C.3     
  28 H28           -1.3169    -0.7005     0.1565 H       
  29 H29            0.8009    -1.9913     0.2616 H       
  30 H30            2.9504    -0.7500     0.3812 H       
  31 H31            3.6667     2.1119    -0.5960 H       
  32 H32            3.1389     2.8737     0.9236 H       
  33 H33            4.0321     1.3346     0.9630 H       
  34 H34           -4.6769     2.8474    -0.0248 H       
  35 H35           -4.9221     6.0778     2.0548 H       
  36 H36           -5.7293     7.2482     0.9834 H       
  37 H37           -5.8089     4.8723     0.1205 H       
  38 H38           -5.0053     6.0044    -0.9982 H       
  39 H39           -1.5564     4.7147     0.3655 H       
  40 H40           -2.1407     5.8982    -0.8331 H       
  41 H41           -1.5589     7.0936     1.2237 H       
  42 H42           -2.5678     5.9905     2.1904 H       
  43 H43           -3.5991    11.8141     1.7141 H       
  44 H44           -3.6592    11.4990     4.1534 H       
  45 H45           -3.7032     7.2610     3.6098 H       
  46 H46           -3.7471    10.0902     7.2407 H       
  47 H47           -2.8181    10.9484     5.9883 H       
  48 H48           -4.5975    10.9683     5.9468 H       
@<TRIPOS>BOND
   1    1    2 ar
   2    1    6 ar
   3    1    8 1
   4    2    3 ar
   5    2   28 1
   6    3    4 ar
   7    3   29 1
   8    4    5 ar
   9    4   30 1
  10    5    6 ar
  11    5    7 1
  12    7   31 1
  13    7   32 1
  14    7   33 1
  15    8    9 3
  16    9   10 1
  17   10   14 2
  18   10   34 1
  19   11   12 1
  20   11   16 1
  21   11   17 1
  22   12   13 1
  23   12   35 1
  24   12   36 1
  25   13   14 1
  26   13   37 1
  27   13   38 1
  28   14   15 1
  29   15   16 1
  30   15   39 1
  31   15   40 1
  32   16   41 1
  33   16   42 1
  34   17   18 ar
  35   17   22 ar
  36   18   19 ar
  37   18   23 1
  38   19   20 ar
  39   19   43 1
  40   20   21 ar
  41   20   44 1
  42   21   22 ar
  43   21   26 1
  44   22   45 1
  45   23   24 2
  46   23   25 2
  47   26   27 1
  48   27   46 1
  49   27   47 1
  50   27   48 1

#	End of record

