#	Name: ASD01882257
#	Creating user name:	WinNT
#	Creation time:	15. 06. 2019 19:44

#	Modifying user name:	WinNT
#	Modification time:	15. 06. 2019 19:44

#	Program:	/corina/corina34_cracker 3.40 0067  02.08.2006

@<TRIPOS>MOLECULE
ASD01882257
  39   40    0    0    0
SMALL
NO_CHARGES


@<TRIPOS>ATOM
   1 O1            -0.0173     1.4248     0.0099 O.3     
   2 C2             0.0021    -0.0041     0.0020 C.3     
   3 C3             1.2831     0.8325    -0.0057 C.3     
   4 C4            -0.3680    -0.7292     1.2974 C.3     
   5 O5            -1.5561    -1.4961     1.0913 O.3     
   6 C6            -1.9905    -2.2166     2.2464 C.3     
   7 C7            -3.5132    -2.3620     2.2139 C.3     
   8 C8            -3.9784    -3.1334     3.4506 C.3     
   9 C9            -3.3336    -4.5209     3.4586 C.3     
  10 C10           -1.8109    -4.3755     3.4911 C.3     
  11 C11           -1.3458    -3.6041     2.2544 C.3     
  12 C12           -3.7988    -5.2923     4.6953 C.3     
  13 C13           -5.3215    -5.4377     4.6629 C.3     
  14 C14           -3.1540    -6.6798     4.7033 C.3     
  15 C15           -3.3860    -4.5308     5.9565 C.3     
  16 H16           -0.2792    -0.5108    -0.9211 H       
  17 H17            1.8523     0.8812    -0.9340 H       
  18 H18            1.8699     0.8713     0.9120 H       
  19 H19            0.4467    -1.3924     1.5881 H       
  20 H20           -0.5402     0.0024     2.0869 H       
  21 H21           -1.6964    -1.6741     3.1449 H       
  22 H22           -3.9726    -1.3735     2.2082 H       
  23 H23           -3.8073    -2.9045     1.3154 H       
  24 H24           -3.6843    -2.5909     4.3491 H       
  25 H25           -5.0632    -3.2370     3.4275 H       
  26 H26           -3.6277    -5.0634     2.5601 H       
  27 H27           -1.5168    -3.8330     4.3896 H       
  28 H28           -1.3516    -5.3640     3.4968 H       
  29 H29           -1.6399    -4.1466     1.3559 H       
  30 H30           -0.2609    -3.5005     2.2775 H       
  31 H31           -5.6156    -5.9802     3.7644 H       
  32 H32           -5.6529    -5.9873     5.5439 H       
  33 H33           -5.7809    -4.4492     4.6572 H       
  34 H34           -2.0692    -6.5762     4.7265 H       
  35 H35           -3.4854    -7.2293     5.5844 H       
  36 H36           -3.4482    -7.2223     3.8048 H       
  37 H37           -3.8453    -3.5423     5.9508 H       
  38 H38           -3.7173    -5.0804     6.8376 H       
  39 H39           -2.3011    -4.4272     5.9797 H       
@<TRIPOS>BOND
   1    1    2 1
   2    1    3 1
   3    2    3 1
   4    2    4 1
   5    2   16 1
   6    3   17 1
   7    3   18 1
   8    4    5 1
   9    4   19 1
  10    4   20 1
  11    5    6 1
  12    6    7 1
  13    6   11 1
  14    6   21 1
  15    7    8 1
  16    7   22 1
  17    7   23 1
  18    8    9 1
  19    8   24 1
  20    8   25 1
  21    9   10 1
  22    9   12 1
  23    9   26 1
  24   10   11 1
  25   10   27 1
  26   10   28 1
  27   11   29 1
  28   11   30 1
  29   12   13 1
  30   12   15 1
  31   12   14 1
  32   13   31 1
  33   13   32 1
  34   13   33 1
  35   14   34 1
  36   14   35 1
  37   14   36 1
  38   15   37 1
  39   15   38 1
  40   15   39 1

#	End of record

