#	Name: ASD01885714
#	Creating user name:	WinNT
#	Creation time:	15. 06. 2019 19:50

#	Modifying user name:	WinNT
#	Modification time:	15. 06. 2019 19:50

#	Program:	/corina/corina34_cracker 3.40 0067  02.08.2006

@<TRIPOS>MOLECULE
ASD01885714
  58   61    0    0    0
SMALL
NO_CHARGES


@<TRIPOS>ATOM
   1 C1            -0.5709     0.8451     0.5499 C.ar    
   2 C2            -1.8877     1.3653     0.6270 C.ar    
   3 C3            -2.0681     2.7638     0.7772 C.ar    
   4 C4            -0.9338     3.5620     0.8418 C.ar    
   5 C5             0.3312     2.9699     0.7580 C.ar    
   6 N6             0.4777     1.6663     0.6129 N.ar    
   7 C7            -0.3934    -0.5436     0.4008 C.ar    
   8 C8            -1.4800    -1.3602     0.3386 C.ar    
   9 C9            -2.7718    -0.8449     0.4202 C.ar    
  10 C10           -2.9827     0.4950     0.5536 C.ar    
  11 C11           -3.4228     3.3542     0.8618 C.ar    
  12 C12           -3.7350     4.2432     1.8907 C.ar    
  13 C13           -4.9978     4.7918     1.9674 C.ar    
  14 C14           -4.3892     3.0270    -0.0909 C.ar    
  15 C15            1.5374     3.8301     0.8208 C.2     
  16 N16            2.7638     3.2787     0.7299 N.am    
  17 O17            1.4201     5.0321     0.9542 O.2     
  18 C18           -1.2828    -2.8470     0.1910 C.3     
  19 C19           -5.9591     4.4609     1.0226 C.ar    
  20 C20           -5.6509     3.5793    -0.0085 C.ar    
  21 O21           -7.2024     5.0033     1.1019 O.3     
  22 F22           -6.5890     3.2599    -0.9267 F       
  23 N23           -1.2530    -3.1968    -1.2313 N.pl3   
  24 C24           -7.4492     5.9050     2.1827 C.3     
  25 C25           -0.1445    -3.2446    -2.0329 C.2     
  26 C26           -0.5659    -3.6074    -3.2594 C.2     
  27 N27           -1.8955    -3.7766    -3.2080 N.2     
  28 C28           -2.3132    -3.5381    -1.9949 C.2     
  29 C29            0.3038    -3.7912    -4.4763 C.3     
  30 C30            1.2616    -4.9620    -4.2465 C.3     
  31 C31           -0.5765    -4.0837    -5.6929 C.3     
  32 C32           -1.4828    -2.8820    -5.9674 C.3     
  33 O33            1.0563    -2.5988    -4.7084 O.3     
  34 F34            0.5285    -6.1054    -3.9114 F       
  35 F35            1.9928    -5.2026    -5.4147 F       
  36 F36            2.1394    -4.6486    -3.2032 F       
  37 H37           -1.0271     4.6319     0.9556 H       
  38 H38            0.6014    -0.9591     0.3357 H       
  39 H39           -3.6171    -1.5158     0.3767 H       
  40 H40           -3.9890     0.8829     0.6118 H       
  41 H41           -2.9881     4.5014     2.6269 H       
  42 H42           -5.2393     5.4798     2.7642 H       
  43 H43           -4.1496     2.3428    -0.8915 H       
  44 H44            2.8575     2.3191     0.6234 H       
  45 H45            3.5529     3.8414     0.7710 H       
  46 H46           -0.3405    -3.1364     0.6562 H       
  47 H47           -2.1046    -3.3726     0.6773 H       
  48 H48           -8.4769     6.2642     2.1287 H       
  49 H49           -7.2942     5.3881     3.1297 H       
  50 H50           -6.7647     6.7505     2.1139 H       
  51 H51            0.8726    -3.0316    -1.7385 H       
  52 H52           -3.3380    -3.5966    -1.6591 H       
  53 H53            0.0547    -4.2689    -6.5621 H       
  54 H54           -1.1893    -4.9632    -5.4950 H       
  55 H55           -2.1525    -2.7311    -5.1208 H       
  56 H56           -0.8714    -1.9910    -6.1104 H       
  57 H57           -2.0701    -3.0677    -6.8667 H       
  58 H58            0.5124    -1.8142    -4.8623 H       
@<TRIPOS>BOND
   1    1    7 ar
   2    1    6 ar
   3    1    2 ar
   4    2    3 ar
   5    2   10 ar
   6    3   11 1
   7    3    4 ar
   8    4    5 ar
   9    4   37 1
  10    5   15 1
  11    5    6 ar
  12    7    8 ar
  13    7   38 1
  14    8    9 ar
  15    8   18 1
  16    9   10 ar
  17    9   39 1
  18   10   40 1
  19   11   12 ar
  20   11   14 ar
  21   12   13 ar
  22   12   41 1
  23   13   19 ar
  24   13   42 1
  25   14   20 ar
  26   14   43 1
  27   15   16 am
  28   15   17 2
  29   16   44 1
  30   16   45 1
  31   18   23 1
  32   18   46 1
  33   18   47 1
  34   19   20 ar
  35   19   21 1
  36   20   22 1
  37   21   24 1
  38   23   25 1
  39   23   28 1
  40   24   48 1
  41   24   49 1
  42   24   50 1
  43   25   26 2
  44   25   51 1
  45   26   27 1
  46   26   29 1
  47   27   28 2
  48   28   52 1
  49   29   30 1
  50   29   31 1
  51   29   33 1
  52   30   34 1
  53   30   35 1
  54   30   36 1
  55   31   32 1
  56   31   53 1
  57   31   54 1
  58   32   55 1
  59   32   56 1
  60   32   57 1
  61   33   58 1

#	End of record

