#	Name: ASD01900106
#	Creating user name:	WinNT
#	Creation time:	15. 06. 2019 19:51

#	Modifying user name:	WinNT
#	Modification time:	15. 06. 2019 19:51

#	Program:	/corina/corina34_cracker 3.40 0067  02.08.2006

@<TRIPOS>MOLECULE
ASD01900106
  40   43    0    0    0
SMALL
NO_CHARGES


@<TRIPOS>ATOM
   1 C1            -0.0168     1.3890     0.0097 C.ar    
   2 C2             0.0021    -0.0041     0.0020 C.ar    
   3 C3             1.2224    -0.6606    -0.0131 C.ar    
   4 C4             2.3820     0.0992    -0.0201 C.ar    
   5 C5             2.2884     1.4815    -0.0118 C.ar    
   6 N6             1.1169     2.0792     0.0026 N.ar    
   7 C7            -1.3131     2.1060     0.0197 C.2     
   8 O8            -2.3544     1.4790     0.0212 O.2     
   9 N9            -1.3379     3.4535     0.0271 N.am    
  10 N10           -4.0732     5.7272     0.0534 N.am    
  11 N11           -4.7377     4.4942     0.0499 N.2     
  12 C12           -3.8404     3.5422     0.0399 C.2     
  13 C13           -2.5688     4.1343     0.0366 C.2     
  14 C14           -2.7375     5.4816     0.0451 C.2     
  15 S15           -4.7895     7.2203     0.0593 S.o2    
  16 O16           -3.8372     8.1244    -0.4836 O.2     
  17 O17           -6.0907     7.0433    -0.4837 O.2     
  18 N18           -4.1436     8.7534     3.6640 N.ar    
  19 C19           -4.0132     8.3908     2.4111 C.ar    
  20 C20           -5.0126     7.6851     1.7442 C.ar    
  21 C21           -6.1654     7.3543     2.3976 C.ar    
  22 C22           -6.3021     7.7458     3.7429 C.ar    
  23 C23           -7.4579     7.4412     4.4793 C.ar    
  24 C24           -7.5517     7.8371     5.7788 C.ar    
  25 C25           -6.5155     8.5414     6.3880 C.ar    
  26 C26           -5.3810     8.8535     5.7039 C.ar    
  27 C27           -5.2466     8.4617     4.3607 C.ar    
  28 H28           -0.9212    -0.5644     0.0082 H       
  29 H29            1.2690    -1.7395    -0.0190 H       
  30 H30            3.3489    -0.3818    -0.0315 H       
  31 H31            3.1898     2.0764    -0.0168 H       
  32 H32           -0.5069     3.9539     0.0259 H       
  33 H33           -4.0440     2.4815     0.0350 H       
  34 H34           -1.9523     6.2231     0.0452 H       
  35 H35           -3.1068     8.6452     1.8818 H       
  36 H36           -6.9504     6.8079     1.8961 H       
  37 H37           -8.2681     6.8964     4.0176 H       
  38 H38           -8.4412     7.6024     6.3445 H       
  39 H39           -6.6142     8.8449     7.4198 H       
  40 H40           -4.5870     9.3997     6.1913 H       
@<TRIPOS>BOND
   1    1    2 ar
   2    1    6 ar
   3    1    7 1
   4    2    3 ar
   5    2   28 1
   6    3    4 ar
   7    3   29 1
   8    4    5 ar
   9    4   30 1
  10    5    6 ar
  11    5   31 1
  12    7    8 2
  13    7    9 am
  14    9   13 1
  15    9   32 1
  16   10   11 1
  17   10   14 1
  18   10   15 am
  19   11   12 2
  20   12   13 1
  21   12   33 1
  22   13   14 2
  23   14   34 1
  24   15   16 2
  25   15   17 2
  26   15   20 1
  27   18   19 ar
  28   18   27 ar
  29   19   20 ar
  30   19   35 1
  31   20   21 ar
  32   21   22 ar
  33   21   36 1
  34   22   23 ar
  35   22   27 ar
  36   23   24 ar
  37   23   37 1
  38   24   25 ar
  39   24   38 1
  40   25   26 ar
  41   25   39 1
  42   26   27 ar
  43   26   40 1

#	End of record

