#	Name: ASD04590389
#	Creating user name:	WinNT
#	Creation time:	15. 06. 2019 20:50

#	Modifying user name:	WinNT
#	Modification time:	15. 06. 2019 20:50

#	Program:	/corina/corina34_cracker 3.40 0067  02.08.2006

@<TRIPOS>MOLECULE
ASD04590389
  55   59    0    0    0
SMALL
NO_CHARGES


@<TRIPOS>ATOM
   1 C1            -0.0168     1.3880     0.0097 C.ar    
   2 C2             0.0021    -0.0041     0.0020 C.ar    
   3 C3             2.4052     0.0264    -0.0203 C.ar    
   4 C4             2.3773     1.4318    -0.0129 C.ar    
   5 C5             1.1623     2.1019     0.0022 C.ar    
   6 N6             3.7078    -0.3488    -0.0348 N.2     
   7 C7             4.4734     0.7157    -0.0369 C.2     
   8 N8             3.6983     1.8437    -0.0237 N.pl3   
   9 C9             5.9508     0.6999    -0.0506 C.2     
  10 C10            6.7698    -0.4528    -0.0640 C.2     
  11 C11            8.0614    -0.0419    -0.0746 C.2     
  12 N12            8.0664     1.3170    -0.0683 N.pl3   
  13 N13            6.7373     1.7583    -0.0582 N.2     
  14 N14            6.3246    -1.7846    -0.0653 N.am    
  15 C15            7.2179    -2.7937    -0.0788 C.2     
  16 O16            8.4095    -2.5509    -0.0899 O.2     
  17 C17            6.7502    -4.1929    -0.0801 C.ar    
  18 C18            1.2017    -0.6865    -0.0126 C.ar    
  19 C19            6.1018    -6.1764     1.1180 C.ar    
  20 C20            5.8720    -6.8233    -0.0826 C.ar    
  21 C21            6.0827    -6.1678    -1.2821 C.ar    
  22 C22            6.5204    -4.8567    -1.2901 C.ar    
  23 F23            6.7252    -4.2180    -2.4628 F       
  24 C24            6.5396    -4.8654     1.1285 C.ar    
  25 F25            6.7639    -4.2354     2.3024 F       
  26 O26           -1.1686    -0.6957     0.0095 O.3     
  27 C27           -2.3747     0.0705     0.0251 C.3     
  28 N28           -3.5909    -1.6431     1.2828 N.3     
  29 C29           -3.5787    -0.8736     0.0315 C.3     
  30 C30           -4.8554    -2.3861     1.4338 C.3     
  31 C31           -4.4927    -3.8770     1.5988 C.3     
  32 C32           -3.0257    -3.8263     2.1008 C.3     
  33 C33           -2.4707    -2.6071     1.3228 C.3     
  34 H34           -0.9612     1.9118     0.0170 H       
  35 H35            1.1405     3.1817     0.0079 H       
  36 H36            4.0156     2.7603    -0.0222 H       
  37 H37            8.9320    -0.6810    -0.0858 H       
  38 H38            8.8540     1.8832    -0.0729 H       
  39 H39            5.3742    -1.9783    -0.0564 H       
  40 H40            1.2112    -1.7664    -0.0178 H       
  41 H41            5.9347    -6.6957     2.0501 H       
  42 H42            5.5303    -7.8479    -0.0836 H       
  43 H43            5.9012    -6.6805    -2.2151 H       
  44 H44           -2.3974     0.6943     0.9187 H       
  45 H45           -2.4143     0.7038    -0.8612 H       
  46 H46           -4.4971    -0.2918    -0.0462 H       
  47 H47           -3.5089    -1.5571    -0.8147 H       
  48 H48           -5.3890    -2.0344     2.3168 H       
  49 H49           -5.4733    -2.2509     0.5461 H       
  50 H50           -5.1373    -4.3508     2.3392 H       
  51 H51           -4.5552    -4.3969     0.6428 H       
  52 H52           -2.9868    -3.6538     3.1764 H       
  53 H53           -2.4898    -4.7370     1.8333 H       
  54 H54           -2.1854    -2.8997     0.3123 H       
  55 H55           -1.6186    -2.1771     1.8491 H       
@<TRIPOS>BOND
   1    1    2 ar
   2    1    5 ar
   3    1   34 1
   4    2   18 ar
   5    2   26 1
   6    3    4 ar
   7    3    6 1
   8    3   18 ar
   9    4    5 ar
  10    4    8 1
  11    5   35 1
  12    6    7 2
  13    7    8 1
  14    7    9 1
  15    8   36 1
  16    9   10 1
  17    9   13 2
  18   10   11 2
  19   10   14 1
  20   11   12 1
  21   11   37 1
  22   12   13 1
  23   12   38 1
  24   14   15 am
  25   14   39 1
  26   15   16 2
  27   15   17 1
  28   17   24 ar
  29   17   22 ar
  30   18   40 1
  31   19   20 ar
  32   19   24 ar
  33   19   41 1
  34   20   21 ar
  35   20   42 1
  36   21   22 ar
  37   21   43 1
  38   22   23 1
  39   24   25 1
  40   26   27 1
  41   27   29 1
  42   27   44 1
  43   27   45 1
  44   28   29 1
  45   28   30 1
  46   28   33 1
  47   29   46 1
  48   29   47 1
  49   30   31 1
  50   30   48 1
  51   30   49 1
  52   31   32 1
  53   31   50 1
  54   31   51 1
  55   32   33 1
  56   32   52 1
  57   32   53 1
  58   33   54 1
  59   33   55 1

#	End of record

