#	Name: ASD01884802
#	Creating user name:	WinNT
#	Creation time:	15. 06. 2019 19:48

#	Modifying user name:	WinNT
#	Modification time:	15. 06. 2019 19:48

#	Program:	/corina/corina34_cracker 3.40 0067  02.08.2006

@<TRIPOS>MOLECULE
ASD01884802
  49   52    0    0    0
SMALL
NO_CHARGES


@<TRIPOS>ATOM
   1 C1            -0.0027     1.0040     0.1192 C.3     
   2 C2             0.0898    -0.5198     0.2206 C.3     
   3 H3            -0.9138    -0.9439     0.2529 H       
   4 C4             0.8363    -1.0676    -0.9954 C.3     
   5 N5             1.2367    -2.4603    -0.8261 N.am    
   6 C6             1.7148    -2.9230     0.3542 C.2     
   7 O7             2.2329    -4.0189     0.4514 O.2     
   8 C8             1.5724    -2.0239     1.5142 C.2     
   9 C9             2.0944    -2.0909     2.7879 C.2     
  10 C10            1.6409    -0.9474     3.4776 C.2     
  11 N11            0.8887    -0.2410     2.6673 N.2     
  12 N12            0.8145    -0.8855     1.4397 N.pl3   
  13 C13            2.9626    -3.1569     3.3277 C.2     
  14 O14            3.2822    -4.0952     2.6239 O.2     
  15 N15            3.4004    -3.0894     4.6006 N.am    
  16 C16            4.1204    -4.1553     5.1499 C.ar    
  17 C17            3.8382    -5.4628     4.7761 C.ar    
  18 N18            4.5140    -6.4708     5.2905 N.ar    
  19 C19            5.4765    -6.2848     6.1721 C.ar    
  20 C20            5.8167    -5.0103     6.5950 C.ar    
  21 F21            6.8049    -4.8308     7.4986 F       
  22 C22            5.1343    -3.9204     6.0751 C.ar    
  23 C23            5.4783    -2.5174     6.5045 C.3     
  24 C24            1.1247    -3.3385    -1.9081 C.ar    
  25 C25            0.3805    -4.5048    -1.7839 C.ar    
  26 C26            0.2720    -5.3702    -2.8546 C.ar    
  27 C27            0.9036    -5.0770    -4.0494 C.ar    
  28 C28            1.6456    -3.9170    -4.1763 C.ar    
  29 C29            1.7528    -3.0440    -3.1116 C.ar    
  30 C30            0.7834    -6.0240    -5.2155 C.3     
  31 F31           -0.3298    -5.6743    -5.9874 F       
  32 F32            1.9385    -5.9458    -6.0007 F       
  33 F33            0.6297    -7.3310    -4.7409 F       
  34 H34            1.0011     1.4276     0.0870 H       
  35 H35           -0.5411     1.2757    -0.7888 H       
  36 H36           -0.5341     1.3943     0.9872 H       
  37 H37            0.1900    -0.9905    -1.8698 H       
  38 H38            1.7273    -0.4627    -1.1639 H       
  39 H39            1.8741    -0.6951     4.5015 H       
  40 H40            3.2162    -2.3017     5.1358 H       
  41 H41            3.0563    -5.6557     4.0565 H       
  42 H42            6.0064    -7.1374     6.5702 H       
  43 H43            4.8785    -2.2459     7.3732 H       
  44 H44            6.5360    -2.4654     6.7627 H       
  45 H45            5.2691    -1.8261     5.6881 H       
  46 H46           -0.1124    -4.7347    -0.8508 H       
  47 H47           -0.3065    -6.2772    -2.7586 H       
  48 H48            2.1380    -3.6912    -5.1107 H       
  49 H49            2.3285    -2.1359    -3.2129 H       
@<TRIPOS>BOND
   1    1    2 1
   2    1   34 1
   3    1   35 1
   4    1   36 1
   5    2    3 1
   6    2   12 1
   7    2    4 1
   8    4    5 1
   9    4   37 1
  10    4   38 1
  11    5    6 am
  12    5   24 1
  13    6    7 2
  14    6    8 1
  15    8   12 1
  16    8    9 2
  17    9   10 1
  18    9   13 1
  19   10   11 2
  20   10   39 1
  21   11   12 1
  22   13   14 2
  23   13   15 am
  24   15   16 1
  25   15   40 1
  26   16   22 ar
  27   16   17 ar
  28   17   18 ar
  29   17   41 1
  30   18   19 ar
  31   19   20 ar
  32   19   42 1
  33   20   21 1
  34   20   22 ar
  35   22   23 1
  36   23   43 1
  37   23   44 1
  38   23   45 1
  39   24   29 ar
  40   24   25 ar
  41   25   26 ar
  42   25   46 1
  43   26   27 ar
  44   26   47 1
  45   27   28 ar
  46   27   30 1
  47   28   29 ar
  48   28   48 1
  49   29   49 1
  50   30   31 1
  51   30   32 1
  52   30   33 1

#	End of record

