#	Name: ASD05143077
#	Creating user name:	WinNT
#	Creation time:	15. 06. 2019 20:57

#	Modifying user name:	WinNT
#	Modification time:	15. 06. 2019 20:57

#	Program:	/corina/corina34_cracker 3.40 0067  02.08.2006

@<TRIPOS>MOLECULE
ASD05143077
 141  144    0    0    0
SMALL
NO_CHARGES


@<TRIPOS>ATOM
   1 C1            -2.1252     5.4897     7.5836 C.2     
   2 C2            -1.6400     4.7630     8.8114 C.3     
   3 N3            -1.2372     6.0160     6.7170 N.am    
   4 O4            -3.3147     5.5966     7.3726 O.2     
   5 C5            -1.7089     6.7225     5.5234 C.3     
   6 C6            -2.5442     5.7710     4.6644 C.3     
   7 C7            -2.5547     7.8990     5.9375 C.2     
   8 C8            -1.6541     4.6419     4.1412 C.3     
   9 C9            -2.4894     3.6904     3.2822 C.3     
  10 N10           -1.6371     2.6093     2.7812 N.pl3   
  11 C11           -2.1716     1.6272     1.9810 C.2     
  12 N12           -1.3718     0.6126     1.5109 N.pl3   
  13 N13           -3.4365     1.6582     1.6682 N.2     
  14 O14           -3.0467     7.9321     7.0455 O.2     
  15 N15           -2.7645     8.9144     5.0764 N.am    
  16 C16           -3.5867    10.0581     5.4789 C.3     
  17 C17           -2.6817    11.2497     5.7983 C.3     
  18 C18           -1.5286    10.7899     6.6924 C.3     
  19 C19           -0.3868    10.3106     5.8337 C.2     
  20 N20            0.8807    10.7226     6.1347 N.am    
  21 C21            1.9446    10.2014     5.2465 C.3     
  22 C22            2.0996    11.1518     4.0576 C.3     
  23 C23            2.7637    10.4101     2.8957 C.3     
  24 C24            3.7259    11.3535     2.1710 C.3     
  25 N25            3.6767    11.0645     0.7237 N.am    
  26 C26            5.1268    11.1362     2.6821 C.2     
  27 N27            5.5133    11.6934     3.8468 N.am    
  28 O28            5.9066    10.4600     2.0452 O.2     
  29 C29            2.8539    11.8484    -0.0253 C.2     
  30 O30            2.2110    12.7360     0.4941 O.2     
  31 C31            2.7523    11.5999    -1.5082 C.3     
  32 N32            1.5402    12.2813    -2.0181 N.am    
  33 C33            3.9908    12.1613    -2.2094 C.3     
  34 C34            0.4858    11.4617    -2.3067 C.2     
  35 O35            0.5743    10.2624    -2.1494 O.2     
  36 C36           -0.7894    12.0763    -2.8236 C.3     
  37 N37           -1.9190    11.1887    -2.4827 N.am    
  38 C38           -0.9990    13.4454    -2.1734 C.3     
  39 C39           -3.0234    11.7838    -1.9538 C.2     
  40 O40           -3.0504    12.9833    -1.7764 O.2     
  41 C41           -4.2118    10.9307    -1.5923 C.3     
  42 C42            3.9449    11.8039    -3.6726 C.2     
  43 C43            3.2506    12.5440    -4.7291 C.ar    
  44 C44            3.4894    11.8360    -5.9209 C.ar    
  45 N45            4.2713    10.7496    -5.5984 N.pl3   
  46 C46            4.5374    10.7501    -4.2562 C.2     
  47 C47            2.4765    13.7058    -4.7520 C.ar    
  48 C48            1.9543    14.1496    -5.9339 C.ar    
  49 C49            2.1866    13.4543    -7.1129 C.ar    
  50 C50            2.9480    12.3063    -7.1131 C.ar    
  51 N51           -4.7990    11.4438    -0.3335 N.am    
  52 C52           -3.7625     9.4814    -1.3957 C.3     
  53 C53           -4.9634     8.6178    -1.1079 C.ar    
  54 C54           -5.9951     8.5417    -2.0250 C.ar    
  55 C55           -7.0968     7.7497    -1.7624 C.ar    
  56 C56           -7.1670     7.0322    -0.5803 C.ar    
  57 C57           -6.1331     7.1091     0.3374 C.ar    
  58 C58           -5.0300     7.8977     0.0703 C.ar    
  59 C59           -4.5218    10.4249     4.3552 C.2     
  60 O60           -5.7207    10.2969     4.4861 O.2     
  61 C61           -1.0168    13.2898    -0.6514 C.3     
  62 C62           -1.3668    14.6319    -0.0056 C.3     
  63 N63           -1.3838    14.4830     1.4517 N.pl3   
  64 C64           -1.6758    15.5637     2.2498 C.2     
  65 N65           -1.9519    16.7842     1.6803 N.pl3   
  66 N66           -1.6910    15.4312     3.5463 N.2     
  67 N67           -4.0013    10.9015     3.1911 N.am    
  68 C68           -4.9660    11.2442     2.1271 C.3     
  69 C69           -4.4096    10.7914     0.8019 C.2     
  70 O70           -3.6302     9.8640     0.7442 O.2     
  71 O71           -0.5891     9.5725     4.8929 O.2     
  72 O72           -3.9670    13.4087     1.7300 O.3     
  73 C73           -5.1841    12.7584     2.1011 C.3     
  74 F74           -8.2436     6.2579    -0.3224 F       
  75 H75           -0.5501     4.7651     8.8279 H       
  76 H76           -2.0178     5.2636     9.7029 H       
  77 H77           -2.0011     3.7348     8.7915 H       
  78 H78           -0.2858     5.9271     6.8837 H       
  79 H79           -0.8530     7.0750     4.9479 H       
  80 H80           -3.3491     5.3497     5.2666 H       
  81 H81           -2.9684     6.3188     3.8230 H       
  82 H82           -0.8491     5.0632     3.5390 H       
  83 H83           -1.2299     4.0940     4.9826 H       
  84 H84           -3.2944     3.2691     3.8844 H       
  85 H85           -2.9136     4.2382     2.4408 H       
  86 H86           -0.6958     2.5862     3.0140 H       
  87 H87           -0.4304     0.5896     1.7437 H       
  88 H88           -1.7488    -0.0802     0.9463 H       
  89 H89           -3.8136     0.9653     1.1037 H       
  90 H90           -2.3710     8.8879     4.1902 H       
  91 H91           -4.1669     9.7952     6.3634 H       
  92 H92           -2.2813    11.6604     4.8714 H       
  93 H93           -3.2591    12.0160     6.3155 H       
  94 H94           -1.1936    11.6230     7.3103 H       
  95 H95           -1.8678     9.9760     7.3330 H       
  96 H96            1.0703    11.3156     6.8785 H       
  97 H97            2.8847    10.1461     5.7954 H       
  98 H98            1.6687     9.2096     4.8884 H       
  99 H99            1.1175    11.5085     3.7471 H       
 100 H100           2.7190    12.0001     4.3487 H       
 101 H101           3.3162     9.5529     3.2804 H       
 102 H102           1.9987    10.0664     2.1995 H       
 103 H103           3.4267    12.3867     2.3476 H       
 104 H104           4.2032    10.3528     0.3274 H       
 105 H105           4.8896    12.2342     4.3562 H       
 106 H106           6.4150    11.5535     4.1758 H       
 107 H107           2.6762    10.5288    -1.6954 H       
 108 H108           1.4980    13.2428    -2.1392 H       
 109 H109           4.0096    13.2457    -2.1007 H       
 110 H110           4.8875    11.7355    -1.7592 H       
 111 H111          -0.7277    12.1896    -3.9059 H       
 112 H112          -1.8763    10.2305    -2.6279 H       
 113 H113          -0.1863    14.1124    -2.4610 H       
 114 H114          -1.9483    13.8645    -2.5069 H       
 115 H115          -4.9539    10.9809    -2.3891 H       
 116 H116           4.5894    10.0850    -6.2292 H       
 117 H117           5.1298    10.0083    -3.7412 H       
 118 H118           2.2910    14.2515    -3.8387 H       
 119 H119           1.3556    15.0484    -5.9512 H       
 120 H120           1.7667    13.8174    -8.0393 H       
 121 H121           3.1233    11.7727    -8.0355 H       
 122 H122          -5.4169    12.1913    -0.3163 H       
 123 H123          -3.2693     9.1279    -2.3011 H       
 124 H124          -3.0669     9.4271    -0.5582 H       
 125 H125          -5.9403     9.1017    -2.9468 H       
 126 H126          -7.9028     7.6907    -2.4788 H       
 127 H127          -6.1867     6.5499     1.2598 H       
 128 H128          -4.2235     7.9579     0.7860 H       
 129 H129          -1.7626    12.5461    -0.3709 H       
 130 H130          -0.0342    12.9665    -0.3078 H       
 131 H131          -0.6209    15.3756    -0.2862 H       
 132 H132          -2.3494    14.9552    -0.3493 H       
 133 H133          -1.1890    13.6219     1.8535 H       
 134 H134          -1.9406    16.8828     0.7154 H       
 135 H135          -2.1579    17.5467     2.2433 H       
 136 H136          -1.8970    16.1937     4.1094 H       
 137 H137          -3.0455    11.0107     3.0671 H       
 138 H138          -5.9135    10.7400     2.3169 H       
 139 H139          -4.0316    14.3728     1.6931 H       
 140 H140          -5.9614    13.0011     1.3765 H       
 141 H141          -5.4907    13.0983     3.0903 H       
@<TRIPOS>BOND
   1    1    2 1
   2    1    3 am
   3    1    4 2
   4    2   75 1
   5    2   76 1
   6    2   77 1
   7    3    5 1
   8    3   78 1
   9    5    6 1
  10    5    7 1
  11    5   79 1
  12    6    8 1
  13    6   80 1
  14    6   81 1
  15    7   14 2
  16    7   15 am
  17    8    9 1
  18    8   82 1
  19    8   83 1
  20    9   10 1
  21    9   84 1
  22    9   85 1
  23   10   11 1
  24   10   86 1
  25   11   12 1
  26   11   13 2
  27   12   87 1
  28   12   88 1
  29   13   89 1
  30   15   16 1
  31   15   90 1
  32   16   17 1
  33   16   59 1
  34   16   91 1
  35   17   18 1
  36   17   92 1
  37   17   93 1
  38   18   19 1
  39   18   94 1
  40   18   95 1
  41   19   20 am
  42   19   71 2
  43   20   21 1
  44   20   96 1
  45   21   22 1
  46   21   97 1
  47   21   98 1
  48   22   23 1
  49   22   99 1
  50   22  100 1
  51   23   24 1
  52   23  101 1
  53   23  102 1
  54   24   25 1
  55   24   26 1
  56   24  103 1
  57   25   29 am
  58   25  104 1
  59   26   27 am
  60   26   28 2
  61   27  105 1
  62   27  106 1
  63   29   30 2
  64   29   31 1
  65   31   32 1
  66   31   33 1
  67   31  107 1
  68   32   34 am
  69   32  108 1
  70   33   42 1
  71   33  109 1
  72   33  110 1
  73   34   35 2
  74   34   36 1
  75   36   37 1
  76   36   38 1
  77   36  111 1
  78   37   39 am
  79   37  112 1
  80   38   61 1
  81   38  113 1
  82   38  114 1
  83   39   40 2
  84   39   41 1
  85   41   51 1
  86   41   52 1
  87   41  115 1
  88   42   43 1
  89   42   46 2
  90   43   44 ar
  91   43   47 ar
  92   44   45 1
  93   44   50 ar
  94   45   46 1
  95   45  116 1
  96   46  117 1
  97   47   48 ar
  98   47  118 1
  99   48   49 ar
 100   48  119 1
 101   49   50 ar
 102   49  120 1
 103   50  121 1
 104   51   69 am
 105   51  122 1
 106   52   53 1
 107   52  123 1
 108   52  124 1
 109   53   54 ar
 110   53   58 ar
 111   54   55 ar
 112   54  125 1
 113   55   56 ar
 114   55  126 1
 115   56   57 ar
 116   56   74 1
 117   57   58 ar
 118   57  127 1
 119   58  128 1
 120   59   60 2
 121   59   67 am
 122   61   62 1
 123   61  129 1
 124   61  130 1
 125   62   63 1
 126   62  131 1
 127   62  132 1
 128   63   64 1
 129   63  133 1
 130   64   65 1
 131   64   66 2
 132   65  134 1
 133   65  135 1
 134   66  136 1
 135   67   68 1
 136   67  137 1
 137   68   69 1
 138   68   73 1
 139   68  138 1
 140   69   70 2
 141   72   73 1
 142   72  139 1
 143   73  140 1
 144   73  141 1

#	End of record

