#	Name: ASD02039448
#	Creating user name:	WinNT
#	Creation time:	15. 06. 2019 20:18

#	Modifying user name:	WinNT
#	Modification time:	15. 06. 2019 20:18

#	Program:	/corina/corina34_cracker 3.40 0067  02.08.2006

@<TRIPOS>MOLECULE
ASD02039448
  55   58    0    0    0
SMALL
NO_CHARGES


@<TRIPOS>ATOM
   1 C1             0.1499     1.1862     0.0762 C.ar    
   2 C2             0.4316    -0.1674     0.1947 C.ar    
   3 C3             1.2614     2.2020     0.0151 C.3     
   4 N4             1.7337     2.3266    -1.3660 N.am    
   5 C5             1.2464     3.3009    -2.1596 C.2     
   6 C6             0.1674     4.1774    -1.6718 C.2     
   7 C7            -0.4871     5.1302    -2.3963 C.2     
   8 N8            -0.3609     4.1800    -0.4212 N.2     
   9 C9            -1.2922     5.0873    -0.3596 C.2     
  10 N10           -1.3968     5.6967    -1.5691 N.pl3   
  11 O11            1.6975     3.4566    -3.2783 O.2     
  12 C12           -2.3267     6.7743    -1.9160 C.3     
  13 C13            2.7358     1.3921    -1.8847 C.3     
  14 C14           -0.6102    -1.0749     0.2478 C.ar    
  15 C15           -2.1745     0.6129     0.0634 C.ar    
  16 C16           -1.1747     1.5821     0.0095 C.ar    
  17 C17           -3.5984     1.0206    -0.0068 C.ar    
  18 C18           -3.9338     2.3681    -0.1319 C.ar    
  19 N19           -1.8628    -0.6711     0.1869 N.ar    
  20 C20            2.3153     0.7014    -3.1927 C.3     
  21 C21            3.7687     0.8801    -3.6623 C.3     
  22 C22            3.8517     2.0726    -2.6948 C.3     
  23 C23           -4.6043     0.0568     0.0465 C.ar    
  24 C24           -5.9274     0.4390    -0.0189 C.ar    
  25 C25           -6.2585     1.7822    -0.1383 C.ar    
  26 C26           -5.2587     2.7441    -0.1969 C.ar    
  27 O27           -7.5630     2.1556    -0.2034 O.3     
  28 C28           -7.8322     3.5537    -0.3257 C.3     
  29 C29           -9.3445     3.7786    -0.3841 C.3     
  30 H30            1.4550    -0.5088     0.2447 H       
  31 H31            0.8911     3.1670     0.3610 H       
  32 H32            2.0843     1.8788     0.6528 H       
  33 H33           -0.3126     5.3842    -3.4314 H       
  34 H34           -1.8879     5.3164     0.5117 H       
  35 H35           -1.8593     7.7375    -1.7113 H       
  36 H36           -2.5785     6.7103    -2.9746 H       
  37 H37           -3.2342     6.6770    -1.3202 H       
  38 H38            3.1042     0.7022    -1.1254 H       
  39 H39           -0.3942    -2.1290     0.3400 H       
  40 H40           -1.4296     2.6268    -0.0906 H       
  41 H41           -3.1566     3.1166    -0.1776 H       
  42 H42            2.0237    -0.3407    -3.0620 H       
  43 H43            1.5943     1.2737    -3.7764 H       
  44 H44            4.4208     0.0504    -3.3895 H       
  45 H45            3.8570     1.1621    -4.7115 H       
  46 H46            3.5508     3.0198    -3.1425 H       
  47 H47            4.8005     2.1375    -2.1622 H       
  48 H48           -4.3474    -0.9882     0.1386 H       
  49 H49           -6.7071    -0.3072     0.0223 H       
  50 H50           -5.5192     3.7880    -0.2898 H       
  51 H51           -7.4196     4.0798     0.5352 H       
  52 H52           -7.3729     3.9338    -1.2382 H       
  53 H53           -9.7571     3.2525    -1.2449 H       
  54 H54           -9.8039     3.3985     0.5284 H       
  55 H55           -9.5499     4.8450    -0.4773 H       
@<TRIPOS>BOND
   1    1    2 ar
   2    1    3 1
   3    1   16 ar
   4    2   14 ar
   5    2   30 1
   6    3    4 1
   7    3   31 1
   8    3   32 1
   9    4    5 am
  10    4   13 1
  11    5    6 1
  12    5   11 2
  13    6    7 2
  14    6    8 1
  15    7   10 1
  16    7   33 1
  17    8    9 2
  18    9   10 1
  19    9   34 1
  20   10   12 1
  21   12   35 1
  22   12   36 1
  23   12   37 1
  24   13   20 1
  25   13   22 1
  26   13   38 1
  27   14   19 ar
  28   14   39 1
  29   15   16 ar
  30   15   17 1
  31   15   19 ar
  32   16   40 1
  33   17   23 ar
  34   17   18 ar
  35   18   26 ar
  36   18   41 1
  37   20   21 1
  38   20   42 1
  39   20   43 1
  40   21   22 1
  41   21   44 1
  42   21   45 1
  43   22   46 1
  44   22   47 1
  45   23   24 ar
  46   23   48 1
  47   24   25 ar
  48   24   49 1
  49   25   26 ar
  50   25   27 1
  51   26   50 1
  52   27   28 1
  53   28   29 1
  54   28   51 1
  55   28   52 1
  56   29   53 1
  57   29   54 1
  58   29   55 1

#	End of record

