#	Name: ASD00431392
#	Creating user name:	WinNT
#	Creation time:	15. 06. 2019 18:35

#	Modifying user name:	WinNT
#	Modification time:	15. 06. 2019 18:35

#	Program:	/corina/corina34_cracker 3.40 0067  02.08.2006

@<TRIPOS>MOLECULE
ASD00431392
  36   37    0    0    0
SMALL
NO_CHARGES


@<TRIPOS>ATOM
   1 C1            -0.7696    -0.2791     1.3445 C.2     
   2 N2             0.1194     0.1040     0.4067 N.am    
   3 O3            -0.5588    -1.2725     2.0117 O.2     
   4 O4            -1.8887     0.4422     1.5458 O.3     
   5 C5             1.3296    -0.5848     0.2670 C.ar    
   6 C6             1.3763    -1.9563     0.4739 C.ar    
   7 C7             2.5768    -2.6351     0.3341 C.ar    
   8 C8             3.7287    -1.9421    -0.0123 C.ar    
   9 C9             3.6802    -0.5766    -0.2173 C.ar    
  10 C10            2.4842     0.1025    -0.0845 C.ar    
  11 O11            2.6261    -3.9779     0.5363 O.3     
  12 S12            2.0311    -6.4892    -0.3320 S.3     
  13 C13            2.1412    -4.7864    -0.4376 C.2     
  14 N14            1.6938    -4.3812    -1.5836 N.2     
  15 C15            1.2576    -5.3081    -2.4169 C.2     
  16 C16            1.3409    -6.5555    -1.9515 C.2     
  17 C17           -2.8011    -0.0294     2.5722 C.3     
  18 C18           -2.0809    -0.0561     3.9218 C.3     
  19 C19           -4.0052     0.9109     2.6552 C.3     
  20 C20           -3.2788    -1.4398     2.2210 C.3     
  21 H21           -0.0796     0.8571    -0.1713 H       
  22 H22            0.4792    -2.4936     0.7436 H       
  23 H23            4.6641    -2.4709    -0.1212 H       
  24 H24            4.5778    -0.0397    -0.4864 H       
  25 H25            2.4481     1.1692    -0.2497 H       
  26 H26            0.8653    -5.0751    -3.3957 H       
  27 H27            1.0384    -7.4498    -2.4761 H       
  28 H28           -1.7406     0.9488     4.1720 H       
  29 H29           -2.7658    -0.4101     4.6922 H       
  30 H30           -1.2230    -0.7260     3.8626 H       
  31 H31           -4.5184     0.9299     1.6937 H       
  32 H32           -4.6902     0.5569     3.4257 H       
  33 H33           -3.6650     1.9158     2.9054 H       
  34 H34           -2.4209    -2.1097     2.1618 H       
  35 H35           -3.9637    -1.7939     2.9914 H       
  36 H36           -3.7919    -1.4208     1.2595 H       
@<TRIPOS>BOND
   1    1    2 am
   2    1    3 2
   3    1    4 1
   4    2    5 1
   5    2   21 1
   6    4   17 1
   7    5    6 ar
   8    5   10 ar
   9    6    7 ar
  10    6   22 1
  11    7    8 ar
  12    7   11 1
  13    8    9 ar
  14    8   23 1
  15    9   10 ar
  16    9   24 1
  17   10   25 1
  18   11   13 1
  19   12   13 1
  20   12   16 1
  21   13   14 2
  22   14   15 1
  23   15   16 2
  24   15   26 1
  25   16   27 1
  26   17   18 1
  27   17   20 1
  28   17   19 1
  29   18   28 1
  30   18   29 1
  31   18   30 1
  32   19   31 1
  33   19   32 1
  34   19   33 1
  35   20   34 1
  36   20   35 1
  37   20   36 1

#	End of record

