#	Name: ASD01008011
#	Creating user name:	WinNT
#	Creation time:	15. 06. 2019 18:56

#	Modifying user name:	WinNT
#	Modification time:	15. 06. 2019 18:56

#	Program:	/corina/corina34_cracker 3.40 0067  02.08.2006

@<TRIPOS>MOLECULE
ASD01008011
  52   54    0    0    0
SMALL
NO_CHARGES


@<TRIPOS>ATOM
   1 N1            -0.0151     1.3770     0.0164 N.am    
   2 N2             0.0172    -0.0160     0.0064 N.2     
   3 C3             1.2043    -0.5149    -0.0148 C.2     
   4 C4             2.2222     0.6032    -0.0225 C.3     
   5 C5             1.3659     1.8849    -0.0009 C.3     
   6 C6            -1.1292     2.1353     0.0332 C.2     
   7 O7            -1.0405     3.3440     0.1319 O.2     
   8 N8            -2.3415     1.5538    -0.0593 N.am    
   9 C9             1.6127     2.7085    -1.2386 C.ar    
  10 C10            0.9168     2.4346    -2.4012 C.ar    
  11 C11            1.1432     3.1900    -3.5365 C.ar    
  12 C12            2.0651     4.2197    -3.5091 C.ar    
  13 C13            2.7603     4.4942    -2.3462 C.ar    
  14 C14            2.5308     3.7415    -1.2097 C.ar    
  15 C15           -3.5525     2.3781    -0.0410 C.3     
  16 C16           -4.7840     1.4779    -0.1594 C.3     
  17 C17            1.5220    -1.9548    -0.0287 C.ar    
  18 C18            0.4922    -2.9018    -0.0194 C.ar    
  19 C19            0.7973    -4.2492    -0.0325 C.ar    
  20 C20            2.1171    -4.6627    -0.0542 C.ar    
  21 C21            3.1421    -3.7303    -0.0630 C.ar    
  22 C22            2.8518    -2.3795    -0.0569 C.ar    
  23 F23            4.4284    -4.1430    -0.0838 F       
  24 F24           -0.7973    -2.4997     0.0027 F       
  25 C25            1.6542     2.7039     1.2589 C.3     
  26 C26            1.3308     1.8656     2.4973 C.3     
  27 C27            1.7339     2.6376     3.7553 C.3     
  28 N28            1.4233     1.8327     4.9442 N.3     
  29 H29            2.8544     0.5507     0.8639 H       
  30 H30            2.8275     0.5630    -0.9281 H       
  31 H31           -2.4123     0.5896    -0.1380 H       
  32 H32            0.1965     1.6301    -2.4225 H       
  33 H33            0.6000     2.9755    -4.4450 H       
  34 H34            2.2425     4.8094    -4.3963 H       
  35 H35            3.4808     5.2984    -2.3249 H       
  36 H36            3.0713     3.9584    -0.3001 H       
  37 H37           -3.5985     2.9355     0.8945 H       
  38 H38           -3.5302     3.0752    -0.8786 H       
  39 H39           -4.7380     0.9205    -1.0950 H       
  40 H40           -4.8063     0.7807     0.6782 H       
  41 H41           -5.6850     2.0911    -0.1458 H       
  42 H42            0.0035    -4.9814    -0.0253 H       
  43 H43            2.3498    -5.7172    -0.0639 H       
  44 H44            3.6516    -1.6539    -0.0687 H       
  45 H45            2.7070     2.9859     1.2759 H       
  46 H46            1.0373     3.6025     1.2572 H       
  47 H47            0.2612     1.6574     2.5259 H       
  48 H48            1.8827     0.9266     2.4547 H       
  49 H49            2.8034     2.8457     3.7267 H       
  50 H50            1.1820     3.5765     3.7978 H       
  51 H51            1.8723     0.9303     4.8974 H       
  52 H52            1.6805     2.3212     5.7888 H       
@<TRIPOS>BOND
   1    1    2 1
   2    1    5 1
   3    1    6 am
   4    2    3 2
   5    3    4 1
   6    3   17 1
   7    4    5 1
   8    4   29 1
   9    4   30 1
  10    5    9 1
  11    5   25 1
  12    6    7 2
  13    6    8 am
  14    8   15 1
  15    8   31 1
  16    9   10 ar
  17    9   14 ar
  18   10   11 ar
  19   10   32 1
  20   11   12 ar
  21   11   33 1
  22   12   13 ar
  23   12   34 1
  24   13   14 ar
  25   13   35 1
  26   14   36 1
  27   15   16 1
  28   15   37 1
  29   15   38 1
  30   16   39 1
  31   16   40 1
  32   16   41 1
  33   17   18 ar
  34   17   22 ar
  35   18   19 ar
  36   18   24 1
  37   19   20 ar
  38   19   42 1
  39   20   21 ar
  40   20   43 1
  41   21   22 ar
  42   21   23 1
  43   22   44 1
  44   25   26 1
  45   25   45 1
  46   25   46 1
  47   26   27 1
  48   26   47 1
  49   26   48 1
  50   27   28 1
  51   27   49 1
  52   27   50 1
  53   28   51 1
  54   28   52 1

#	End of record

