#	Name: ASD01910514
#	Creating user name:	WinNT
#	Creation time:	15. 06. 2019 19:56

#	Modifying user name:	WinNT
#	Modification time:	15. 06. 2019 19:56

#	Program:	/corina/corina34_cracker 3.40 0067  02.08.2006

@<TRIPOS>MOLECULE
ASD01910514
  41   44    0    0    0
SMALL
NO_CHARGES


@<TRIPOS>ATOM
   1 O1             0.0333     1.1149     0.1126 O.3     
   2 C2             0.0372    -0.2171    -0.0590 C.2     
   3 N3             1.3059    -0.5833    -0.1467 N.2     
   4 C4             2.0156     0.5484    -0.0236 C.2     
   5 N5             1.1736     1.5277     0.1294 N.2     
   6 C6            -1.1399    -1.0979    -0.1344 C.2     
   7 C7            -2.4611    -0.7108    -0.0424 C.2     
   8 C8            -3.2466    -1.8550    -0.1641 C.2     
   9 N9            -2.4607    -2.8902    -0.3222 N.2     
  10 N10           -1.1306    -2.4519    -0.3146 N.pl3   
  11 C11            3.9354     1.5766    -1.2137 C.3     
  12 C12            3.5178     0.6640    -0.0563 C.3     
  13 C13            4.0130     1.2609     1.2630 C.3     
  14 C14            5.5408     1.3483     1.2438 C.3     
  15 C15            5.9812     2.2687     0.1011 C.3     
  16 N16            5.3888     1.7829    -1.1526 N.am    
  17 C17            6.1639     1.5309    -2.2260 C.2     
  18 C18            7.6026     1.8644    -2.1928 C.ar    
  19 O19            5.6790     1.0292    -3.2215 O.2     
  20 C20            8.5397     0.9787    -2.7291 C.ar    
  21 C21            9.8809     1.2950    -2.6959 C.ar    
  22 C22           10.3002     2.4900    -2.1314 C.ar    
  23 C23            9.3740     3.3728    -1.5971 C.ar    
  24 C24            8.0299     3.0690    -1.6302 C.ar    
  25 F25           11.6159     2.7952    -2.1015 F       
  26 H26           -2.8214     0.2975     0.0987 H       
  27 H27           -4.3258    -1.8834    -0.1326 H       
  28 H28           -0.3437    -3.0105    -0.4129 H       
  29 H29            3.6724     1.1077    -2.1619 H       
  30 H30            3.4260     2.5361    -1.1245 H       
  31 H31            3.9563    -0.3242    -0.1957 H       
  32 H32            3.5937     2.2590     1.3900 H       
  33 H33            3.6959     0.6262     2.0905 H       
  34 H34            5.8941     1.7518     2.1927 H       
  35 H35            5.9602     0.3537     1.0921 H       
  36 H36            5.6387     3.2847     0.2975 H       
  37 H37            7.0682     2.2565     0.0204 H       
  38 H38            8.2142     0.0475    -3.1687 H       
  39 H39           10.6065     0.6107    -3.1101 H       
  40 H40            9.7060     4.3021    -1.1582 H       
  41 H41            7.3093     3.7574    -1.2140 H       
@<TRIPOS>BOND
   1    1    2 1
   2    1    5 1
   3    2    3 2
   4    2    6 1
   5    3    4 1
   6    4    5 2
   7    4   12 1
   8    6    7 2
   9    6   10 1
  10    7    8 1
  11    7   26 1
  12    8    9 2
  13    8   27 1
  14    9   10 1
  15   10   28 1
  16   11   12 1
  17   11   16 1
  18   11   29 1
  19   11   30 1
  20   12   13 1
  21   12   31 1
  22   13   14 1
  23   13   32 1
  24   13   33 1
  25   14   15 1
  26   14   34 1
  27   14   35 1
  28   15   16 1
  29   15   36 1
  30   15   37 1
  31   16   17 am
  32   17   18 1
  33   17   19 2
  34   18   20 ar
  35   18   24 ar
  36   20   21 ar
  37   20   38 1
  38   21   22 ar
  39   21   39 1
  40   22   23 ar
  41   22   25 1
  42   23   24 ar
  43   23   40 1
  44   24   41 1

#	End of record

