#	Name: ASD08070004
#	Creating user name:	WinNT
#	Creation time:	15. 06. 2019 21:14

#	Modifying user name:	WinNT
#	Modification time:	15. 06. 2019 21:14

#	Program:	/corina/corina34_cracker 3.40 0067  02.08.2006

@<TRIPOS>MOLECULE
ASD08070004
  37   38    0    0    0
SMALL
NO_CHARGES


@<TRIPOS>ATOM
   1 C1            -0.0125     1.0152    -0.5081 C.ar    
   2 C2            -0.1063    -0.3630    -0.5406 C.ar    
   3 C3            -1.3367    -0.9850    -0.4096 C.ar    
   4 C4            -2.4821    -0.2340    -0.2448 C.ar    
   5 C5            -2.4013     1.1619    -0.2096 C.ar    
   6 C6            -1.1533     1.7866    -0.3373 C.ar    
   7 Cl7           -4.0212    -1.0202    -0.0817 Cl      
   8 N8            -4.3209     2.3784    -1.1111 N.am    
   9 C9            -3.6212     1.9711    -0.0337 C.2     
  10 C10           -5.5380     3.0503    -0.9426 C.ar    
  11 C11           -5.9058     4.0541    -1.8288 C.ar    
  12 O12           -3.9959     2.2711     1.0837 O.2     
  13 C13           -6.3803     2.7092     0.1074 C.ar    
  14 C14           -7.5804     3.3718     0.2726 C.ar    
  15 C15           -7.9448     4.3781    -0.6100 C.ar    
  16 C16           -7.1063     4.7159    -1.6623 C.ar    
  17 Cl17           1.5358     1.7826    -0.6740 Cl      
  18 O18           -1.0622     3.1399    -0.3043 O.3     
  19 C19           -0.8688     3.7461     0.9753 C.3     
  20 O20           -9.1269     5.0299    -0.4469 O.3     
  21 C21           -9.4383     6.0550    -1.3925 C.3     
  22 C22          -10.7968     6.6697    -1.0495 C.3     
  23 H23            0.7852    -0.9588    -0.6693 H       
  24 H24           -1.3999    -2.0628    -0.4371 H       
  25 H25           -3.9815     2.2060    -2.0033 H       
  26 H26           -5.2530     4.3174    -2.6479 H       
  27 H27           -6.0969     1.9255     0.7944 H       
  28 H28           -8.2357     3.1064     1.0890 H       
  29 H29           -7.3906     5.4994    -2.3491 H       
  30 H30           -0.8130     4.8285     0.8598 H       
  31 H31           -1.7047     3.4929     1.6274 H       
  32 H32            0.0588     3.3793     1.4146 H       
  33 H33           -8.6704     6.8278    -1.3567 H       
  34 H34           -9.4760     5.6264    -2.3940 H       
  35 H35          -11.5647     5.8969    -1.0853 H       
  36 H36          -10.7592     7.0983    -0.0480 H       
  37 H37          -11.0344     7.4516    -1.7707 H       
@<TRIPOS>BOND
   1    1    2 ar
   2    1   17 1
   3    1    6 ar
   4    2    3 ar
   5    2   23 1
   6    3    4 ar
   7    3   24 1
   8    4    5 ar
   9    4    7 1
  10    5    6 ar
  11    5    9 1
  12    6   18 1
  13    8    9 am
  14    8   10 1
  15    8   25 1
  16    9   12 2
  17   10   11 ar
  18   10   13 ar
  19   11   16 ar
  20   11   26 1
  21   13   14 ar
  22   13   27 1
  23   14   15 ar
  24   14   28 1
  25   15   16 ar
  26   15   20 1
  27   16   29 1
  28   18   19 1
  29   19   30 1
  30   19   31 1
  31   19   32 1
  32   20   21 1
  33   21   22 1
  34   21   33 1
  35   21   34 1
  36   22   35 1
  37   22   36 1
  38   22   37 1

#	End of record

