#	Name: ASD04880462
#	Creating user name:	WinNT
#	Creation time:	15. 06. 2019 20:53

#	Modifying user name:	WinNT
#	Modification time:	15. 06. 2019 20:53

#	Program:	/corina/corina34_cracker 3.40 0067  02.08.2006

@<TRIPOS>MOLECULE
ASD04880462
  49   51    0    0    0
SMALL
NO_CHARGES


@<TRIPOS>ATOM
   1 C1            -0.1819     1.9184    -1.8503 C.ar    
   2 C2            -0.0946     0.5343    -1.8402 C.ar    
   3 C3            -1.2255    -0.2300    -1.6408 C.ar    
   4 C4            -2.4621     0.3902    -1.4479 C.ar    
   5 C5            -2.5496     1.7850    -1.4576 C.ar    
   6 C6            -1.4114     2.5440    -1.6528 C.ar    
   7 O7             0.9356     2.6667    -2.0477 O.3     
   8 C8             2.1637     1.9612    -2.2377 C.3     
   9 C9            -3.6722    -0.4247    -1.2350 C.2     
  10 C10           -3.7355    -1.9327    -1.3249 C.3     
  11 C11           -5.2103    -2.2613    -1.0191 C.3     
  12 N12           -5.8184    -0.9405    -0.7926 N.am    
  13 N13           -4.8373     0.0381    -0.9383 N.2     
  14 C14           -7.1120    -0.7147    -0.4893 C.2     
  15 O15           -7.8992    -1.6375    -0.4643 O.2     
  16 C16           -7.5807     0.6840    -0.1812 C.3     
  17 O17           -9.0038     0.6919    -0.0517 O.3     
  18 C18           -9.6975     0.9379    -1.2765 C.3     
  19 C19           -5.8433     1.9651     1.0794 C.ar    
  20 O20           -1.4928     3.9015    -1.6624 O.3     
  21 C21           -2.7967     4.4741    -1.5443 C.3     
  22 C22           -6.9563     1.1503     1.1086 C.ar    
  23 C23           -7.5007     0.7608     2.3193 C.ar    
  24 C24           -6.9337     1.1844     3.5085 C.ar    
  25 C25           -5.8207     1.9988     3.4939 C.ar    
  26 C26           -5.2659     2.3958     2.2754 C.ar    
  27 C27           -4.1100     3.2408     2.2526 C.1     
  28 N28           -3.1931     3.9112     2.2346 N.1     
  29 H29            0.8610     0.0536    -1.9892 H       
  30 H30           -1.1548    -1.3076    -1.6341 H       
  31 H31           -3.5037     2.2686    -1.3088 H       
  32 H32            2.3716     1.3505    -1.3590 H       
  33 H33            2.0821     1.3195    -3.1150 H       
  34 H34            2.9741     2.6753    -2.3839 H       
  35 H35           -3.4691    -2.2675    -2.3274 H       
  36 H36           -3.0804    -2.3878    -0.5820 H       
  37 H37           -5.6770    -2.7577    -1.8698 H       
  38 H38           -5.2881    -2.8781    -0.1237 H       
  39 H39           -7.2858     1.3524    -0.9901 H       
  40 H40          -10.7721     0.9279    -1.0938 H       
  41 H41           -9.4051     1.9112    -1.6705 H       
  42 H42           -9.4447     0.1623    -1.9994 H       
  43 H43           -5.4168     2.2652     0.1336 H       
  44 H44           -3.4084     4.1627    -2.3910 H       
  45 H45           -3.2598     4.1352    -0.6175 H       
  46 H46           -2.7167     5.5611    -1.5342 H       
  47 H47           -8.3725     0.1235     2.3365 H       
  48 H48           -7.3640     0.8769     4.4501 H       
  49 H49           -5.3794     2.3289     4.4227 H       
@<TRIPOS>BOND
   1    1    2 ar
   2    1    7 1
   3    1    6 ar
   4    2    3 ar
   5    2   29 1
   6    3    4 ar
   7    3   30 1
   8    4    5 ar
   9    4    9 1
  10    5    6 ar
  11    5   31 1
  12    6   20 1
  13    7    8 1
  14    8   32 1
  15    8   33 1
  16    8   34 1
  17    9   10 1
  18    9   13 2
  19   10   11 1
  20   10   35 1
  21   10   36 1
  22   11   12 1
  23   11   37 1
  24   11   38 1
  25   12   13 1
  26   12   14 am
  27   14   15 2
  28   14   16 1
  29   16   17 1
  30   16   22 1
  31   16   39 1
  32   17   18 1
  33   18   40 1
  34   18   41 1
  35   18   42 1
  36   19   22 ar
  37   19   26 ar
  38   19   43 1
  39   20   21 1
  40   21   44 1
  41   21   45 1
  42   21   46 1
  43   22   23 ar
  44   23   24 ar
  45   23   47 1
  46   24   25 ar
  47   24   48 1
  48   25   26 ar
  49   25   49 1
  50   26   27 1
  51   27   28 3

#	End of record

