#	Name: ASD01883118
#	Creating user name:	WinNT
#	Creation time:	15. 06. 2019 19:45

#	Modifying user name:	WinNT
#	Modification time:	15. 06. 2019 19:45

#	Program:	/corina/corina34_cracker 3.40 0067  02.08.2006

@<TRIPOS>MOLECULE
ASD01883118
  46   48    0    0    0
SMALL
NO_CHARGES


@<TRIPOS>ATOM
   1 N1            -0.0671     1.2358     1.3204 N.am    
   2 C2            -0.0321    -0.0389     0.8898 C.2     
   3 C3            -1.2411    -0.7421     0.6643 C.2     
   4 C4            -2.4599    -0.0813     0.8991 C.2     
   5 C5            -2.4300     1.2533     1.3492 C.2     
   6 C6            -1.2444     1.8714     1.5518 C.2     
   7 O7             1.0389    -0.5877     0.6938 O.2     
   8 C8            -1.2224    -2.0986     0.2058 C.1     
   9 N9            -1.2075    -3.1747    -0.1579 N.1     
  10 C10            1.1911     1.9503     1.5498 C.3     
  11 C11            1.6165     2.6603     0.2630 C.3     
  12 C12            2.9305     3.4065     0.5027 C.3     
  13 C13            3.3558     4.1165    -0.7842 C.3     
  14 C14           -3.7468    -0.7730     0.6776 C.ar    
  15 C15           -4.5979    -1.0306     1.7550 C.ar    
  16 C16           -5.7966    -1.6757     1.5446 C.ar    
  17 C17           -6.1598    -2.0700     0.2623 C.ar    
  18 C18           -5.3158    -1.8155    -0.8122 C.ar    
  19 C19           -4.1181    -1.1658    -0.6106 C.ar    
  20 O20           -7.3419    -2.7060     0.0589 O.3     
  21 C21           -8.4753    -1.9627     0.0745 C.ar    
  22 C22           -9.7107    -2.5946    -0.0224 C.ar    
  23 C23          -10.8616    -1.8327    -0.0060 C.ar    
  24 C24          -10.7370    -0.4404     0.1086 C.ar    
  25 C25           -9.4615     0.1195     0.2013 C.ar    
  26 N26           -8.3905    -0.6460     0.1871 N.ar    
  27 C27          -11.9005     0.3942     0.1298 C.1     
  28 N28          -12.8235     1.0562     0.1466 N.1     
  29 H29           -3.3534     1.7814     1.5359 H       
  30 H30           -1.2339     2.8946     1.8973 H       
  31 H31            1.0519     2.6862     2.3418 H       
  32 H32            1.9635     1.2402     1.8454 H       
  33 H33            1.7557     1.9244    -0.5289 H       
  34 H34            0.8441     3.3703    -0.0325 H       
  35 H35            2.7912     4.1423     1.2946 H       
  36 H36            3.7029     2.6964     0.7982 H       
  37 H37            4.2919     4.6481    -0.6134 H       
  38 H38            3.4951     3.3806    -1.5761 H       
  39 H39            2.5834     4.8265    -1.0797 H       
  40 H40           -4.3162    -0.7248     2.7518 H       
  41 H41           -6.4549    -1.8755     2.3771 H       
  42 H42           -5.6014    -2.1238    -1.8071 H       
  43 H43           -3.4628    -0.9684    -1.4461 H       
  44 H44           -9.7688    -3.6695    -0.1098 H       
  45 H45          -11.8338    -2.2972    -0.0800 H       
  46 H46           -9.3526     1.1904     0.2900 H       
@<TRIPOS>BOND
   1    1    2 am
   2    1   10 1
   3    1    6 1
   4    2    3 1
   5    2    7 2
   6    3    4 2
   7    3    8 1
   8    4    5 1
   9    4   14 1
  10    5    6 2
  11    5   29 1
  12    6   30 1
  13    8    9 3
  14   10   11 1
  15   10   31 1
  16   10   32 1
  17   11   12 1
  18   11   33 1
  19   11   34 1
  20   12   13 1
  21   12   35 1
  22   12   36 1
  23   13   37 1
  24   13   38 1
  25   13   39 1
  26   14   15 ar
  27   14   19 ar
  28   15   16 ar
  29   15   40 1
  30   16   17 ar
  31   16   41 1
  32   17   18 ar
  33   17   20 1
  34   18   19 ar
  35   18   42 1
  36   19   43 1
  37   20   21 1
  38   21   22 ar
  39   21   26 ar
  40   22   23 ar
  41   22   44 1
  42   23   24 ar
  43   23   45 1
  44   24   25 ar
  45   24   27 1
  46   25   26 ar
  47   25   46 1
  48   27   28 3

#	End of record

