#	Name: ASD01882860
#	Creating user name:	WinNT
#	Creation time:	15. 06. 2019 19:45

#	Modifying user name:	WinNT
#	Modification time:	15. 06. 2019 19:45

#	Program:	/corina/corina34_cracker 3.40 0067  02.08.2006

@<TRIPOS>MOLECULE
ASD01882860
  41   42    0    0    0
SMALL
NO_CHARGES


@<TRIPOS>ATOM
   1 C1            -0.0780     1.2536    -0.0416 C.ar    
   2 C2             0.0789    -0.1195     0.0071 C.ar    
   3 C3             1.3450    -0.6703     0.0432 C.ar    
   4 C4             2.4601     0.1553     0.0301 C.ar    
   5 C5             2.3001     1.5323    -0.0192 C.ar    
   6 C6             1.0314     2.0783    -0.0547 C.ar    
   7 C7            -1.1327    -1.0156     0.0213 C.3     
   8 C8            -1.1806    -1.8290    -1.2737 C.3     
   9 C9            -1.0502    -1.9658     1.2177 C.3     
  10 O10            3.7069    -0.3842     0.0660 O.3     
  11 C11            4.8084     0.5260     0.0498 C.3     
  12 C12           -1.4605     1.8516    -0.0867 C.3     
  13 C13           -1.7196     2.6349     1.2017 C.3     
  14 C14           -3.1232     3.2421     1.1559 C.3     
  15 C15           -3.2323     4.1845    -0.0445 C.3     
  16 C16           -2.9731     3.4012    -1.3330 C.3     
  17 C17           -1.5695     2.7940    -1.2871 C.3     
  18 H18            1.4670    -1.7427     0.0820 H       
  19 H19            3.1665     2.1770    -0.0292 H       
  20 H20            0.9063     3.1504    -0.0927 H       
  21 H21           -2.0336    -0.4074     0.1019 H       
  22 H22           -0.2797    -2.4373    -1.3542 H       
  23 H23           -2.0569    -2.4772    -1.2634 H       
  24 H24           -1.2394    -1.1521    -2.1259 H       
  25 H25           -1.0160    -1.3864     2.1402 H       
  26 H26           -1.9265    -2.6140     1.2279 H       
  27 H27           -0.1493    -2.5741     1.1371 H       
  28 H28            5.7430    -0.0339     0.0821 H       
  29 H29            4.7735     1.1224    -0.8619 H       
  30 H30            4.7489     1.1839     0.9168 H       
  31 H31           -2.1981     1.0548    -0.1821 H       
  32 H32           -1.6419     1.9636     2.0569 H       
  33 H33           -0.9820     3.4317     1.2972 H       
  34 H34           -3.8608     2.4453     1.0605 H       
  35 H35           -3.3078     3.8001     2.0739 H       
  36 H36           -4.2322     4.6170    -0.0771 H       
  37 H37           -2.4947     4.9813     0.0509 H       
  38 H38           -3.7108     2.6044    -1.4284 H       
  39 H39           -3.0508     4.0725    -2.1882 H       
  40 H40           -0.8319     3.5908    -1.1917 H       
  41 H41           -1.3849     2.2359    -2.2051 H       
@<TRIPOS>BOND
   1    1    2 ar
   2    1    6 ar
   3    1   12 1
   4    2    3 ar
   5    2    7 1
   6    3    4 ar
   7    3   18 1
   8    4    5 ar
   9    4   10 1
  10    5    6 ar
  11    5   19 1
  12    6   20 1
  13    7    8 1
  14    7    9 1
  15    7   21 1
  16    8   22 1
  17    8   23 1
  18    8   24 1
  19    9   25 1
  20    9   26 1
  21    9   27 1
  22   10   11 1
  23   11   28 1
  24   11   29 1
  25   11   30 1
  26   12   13 1
  27   12   17 1
  28   12   31 1
  29   13   14 1
  30   13   32 1
  31   13   33 1
  32   14   15 1
  33   14   34 1
  34   14   35 1
  35   15   16 1
  36   15   36 1
  37   15   37 1
  38   16   17 1
  39   16   38 1
  40   16   39 1
  41   17   40 1
  42   17   41 1

#	End of record

