#	Name: ASD01810913
#	Creating user name:	WinNT
#	Creation time:	15. 06. 2019 19:25

#	Modifying user name:	WinNT
#	Modification time:	15. 06. 2019 19:25

#	Program:	/corina/corina34_cracker 3.40 0067  02.08.2006

@<TRIPOS>MOLECULE
ASD01810913
  34   35    0    0    0
SMALL
NO_CHARGES


@<TRIPOS>ATOM
   1 C1             2.5426    -2.7448    -0.1038 C.2     
   2 C2             1.2422    -2.0466    -0.0528 C.ar    
   3 C3             1.1986    -0.6573     0.0935 C.ar    
   4 C4            -0.0153    -0.0034     0.1413 C.ar    
   5 C5            -1.1960    -0.7169     0.0450 C.ar    
   6 C6            -1.1662    -2.1063    -0.1020 C.ar    
   7 C7             0.0558    -2.7713    -0.1563 C.ar    
   8 O8             3.5751    -2.1051    -0.1233 O.2     
   9 O9             2.5839    -4.0912    -0.1231 O.3     
  10 C10            2.4803     0.1282     0.1997 C.3     
  11 N11           -4.5051    -3.3309    -0.2272 N.2     
  12 N12           -3.6463    -2.3863    -0.0771 N.2     
  13 C13           -2.4301    -2.8682    -0.2049 C.2     
  14 N14           -2.5551    -4.2086    -0.4518 N.pl3   
  15 C15           -3.8925    -4.4611    -0.4576 C.2     
  16 C16           -4.5463    -5.7994    -0.6867 C.3     
  17 C17           -5.4762    -6.1199     0.4853 C.3     
  18 O18           -6.0963    -7.3890     0.2680 O.3     
  19 C19           -6.9898    -7.7853     1.3104 C.3     
  20 Cl20          -2.7184     0.1151     0.1073 Cl      
  21 H21           -0.0435     1.0702     0.2548 H       
  22 H22            0.0844    -3.8445    -0.2739 H       
  23 H23            3.4581    -4.5032    -0.1566 H       
  24 H24            2.8723     0.3207    -0.7990 H       
  25 H25            2.2854     1.0755     0.7024 H       
  26 H26            3.2104    -0.4436     0.7726 H       
  27 H27           -1.8385    -4.8468    -0.5934 H       
  28 H28           -5.1237    -5.7682    -1.6106 H       
  29 H29           -3.7794    -6.5701    -0.7632 H       
  30 H30           -4.8989    -6.1511     1.4093 H       
  31 H31           -6.2432    -5.3492     0.5619 H       
  32 H32           -6.4438    -7.8510     2.2515 H       
  33 H33           -7.7881    -7.0492     1.4041 H       
  34 H34           -7.4189    -8.7582     1.0707 H       
@<TRIPOS>BOND
   1    1    2 1
   2    1    8 2
   3    1    9 1
   4    2    3 ar
   5    2    7 ar
   6    3    4 ar
   7    3   10 1
   8    4    5 ar
   9    4   21 1
  10    5    6 ar
  11    5   20 1
  12    6    7 ar
  13    6   13 1
  14    7   22 1
  15    9   23 1
  16   10   24 1
  17   10   25 1
  18   10   26 1
  19   11   12 1
  20   11   15 2
  21   12   13 2
  22   13   14 1
  23   14   15 1
  24   14   27 1
  25   15   16 1
  26   16   17 1
  27   16   28 1
  28   16   29 1
  29   17   18 1
  30   17   30 1
  31   17   31 1
  32   18   19 1
  33   19   32 1
  34   19   33 1
  35   19   34 1

#	End of record

