#	Name: ASD02560060
#	Creating user name:	WinNT
#	Creation time:	15. 06. 2019 20:24

#	Modifying user name:	WinNT
#	Modification time:	15. 06. 2019 20:24

#	Program:	/corina/corina34_cracker 3.40 0067  02.08.2006

@<TRIPOS>MOLECULE
ASD02560060
  38   40    0    0    0
SMALL
NO_CHARGES


@<TRIPOS>ATOM
   1 C1            -0.0553     1.3863    -0.0336 C.ar    
   2 C2            -0.0389     0.0042    -0.0409 C.ar    
   3 C3             1.1660    -0.6731    -0.0451 C.ar    
   4 C4             2.3564     0.0321    -0.0418 C.ar    
   5 C5             2.3406     1.4153    -0.0345 C.ar    
   6 C6             1.1344     2.0926    -0.0303 C.ar    
   7 Cl7            3.8695    -0.8188    -0.0465 Cl      
   8 C8             4.3252     3.7370    -1.8732 C.ar    
   9 C9             4.0688     2.4477    -1.4499 C.ar    
  10 C10            3.6368     2.1839    -0.0304 C.3     
  11 C11            4.7228     3.9368    -3.1973 C.ar    
  12 N12            4.8403     2.8850    -4.0010 N.ar    
  13 C13            4.5848     1.6639    -3.5557 C.ar    
  14 N14            4.2062     1.4452    -2.3053 N.ar    
  15 N15            4.7165     0.5886    -4.4195 N.pl3   
  16 C16            4.9988     0.8075    -5.7666 C.ar    
  17 C17            5.8047    -0.0892    -6.4615 C.ar    
  18 C18            6.0853     0.1237    -7.7923 C.ar    
  19 C19            5.5595     1.2422    -8.4456 C.ar    
  20 C20            4.7503     2.1410    -7.7444 C.ar    
  21 C21            4.4695     1.9191    -6.4151 C.ar    
  22 N22            4.9902     5.2128    -3.6659 N.pl3   
  23 Cl23           1.1136     3.8284    -0.0216 Cl      
  24 C24            5.8497     1.4671    -9.8298 C.1     
  25 N25            6.0798     1.6455   -10.9278 N.1     
  26 H26           -0.9970     1.9150    -0.0348 H       
  27 H27           -0.9678    -0.5466    -0.0431 H       
  28 H28            1.1782    -1.7530    -0.0505 H       
  29 H29            4.2165     4.5722    -1.1971 H       
  30 H30            3.4954     3.1320     0.4885 H       
  31 H31            4.4033     1.6010     0.4802 H       
  32 H32            4.6121    -0.3165    -4.0867 H       
  33 H33            6.2108    -0.9529    -5.9561 H       
  34 H34            6.7111    -0.5725    -8.3310 H       
  35 H35            4.3425     3.0062    -8.2460 H       
  36 H36            3.8441     2.6128    -5.8728 H       
  37 H37            4.9019     5.9755    -3.0732 H       
  38 H38            5.2659     5.3434    -4.5867 H       
@<TRIPOS>BOND
   1    1    2 ar
   2    1    6 ar
   3    1   26 1
   4    2    3 ar
   5    2   27 1
   6    3    4 ar
   7    3   28 1
   8    4    5 ar
   9    4    7 1
  10    5    6 ar
  11    5   10 1
  12    6   23 1
  13    8    9 ar
  14    8   11 ar
  15    8   29 1
  16    9   10 1
  17    9   14 ar
  18   10   30 1
  19   10   31 1
  20   11   12 ar
  21   11   22 1
  22   12   13 ar
  23   13   14 ar
  24   13   15 1
  25   15   16 1
  26   15   32 1
  27   16   17 ar
  28   16   21 ar
  29   17   18 ar
  30   17   33 1
  31   18   19 ar
  32   18   34 1
  33   19   20 ar
  34   19   24 1
  35   20   21 ar
  36   20   35 1
  37   21   36 1
  38   22   37 1
  39   22   38 1
  40   24   25 3

#	End of record

