#	Name: ASD01882710
#	Creating user name:	WinNT
#	Creation time:	15. 06. 2019 19:45

#	Modifying user name:	WinNT
#	Modification time:	15. 06. 2019 19:45

#	Program:	/corina/corina34_cracker 3.40 0067  02.08.2006

@<TRIPOS>MOLECULE
ASD01882710
  32   33    0    0    0
SMALL
NO_CHARGES


@<TRIPOS>ATOM
   1 N1            -0.0165     1.3692     0.0096 N.pl3   
   2 O2             1.1412    -0.7243    -0.0127 O.3     
   3 C3             0.0021    -0.0041     0.0020 C.2     
   4 N4            -1.0753    -0.7270     0.0089 N.2     
   5 C5            -0.6823    -2.1496     0.0076 C.3     
   6 C6             0.8153    -2.0697     0.3922 C.3     
   7 C7             1.6390    -3.0940    -0.3909 C.3     
   8 O8             3.0178    -2.9666    -0.0377 O.3     
   9 C9             3.8916    -3.8096    -0.6484 C.ar    
  10 C10            5.2454    -3.7409    -0.3525 C.ar    
  11 C11            6.1314    -4.5988    -0.9746 C.ar    
  12 C12            5.6702    -5.5252    -1.8919 C.ar    
  13 C13            4.3218    -5.5953    -2.1887 C.ar    
  14 C14            3.4307    -4.7439    -1.5642 C.ar    
  15 C15            6.6392    -6.4596    -2.5694 C.3     
  16 C16            7.6020    -4.5248    -0.6537 C.3     
  17 H17            0.8168     1.8655     0.0043 H       
  18 H18           -0.8631     1.8427     0.0162 H       
  19 H19           -1.2463    -2.7101     0.7532 H       
  20 H20           -0.8071    -2.5872    -0.9829 H       
  21 H21            0.9511    -2.1991     1.4659 H       
  22 H22            1.2935    -4.0992    -0.1495 H       
  23 H23            1.5198    -2.9156    -1.4596 H       
  24 H24            5.6062    -3.0171     0.3632 H       
  25 H25            3.9641    -6.3194    -2.9057 H       
  26 H26            2.3768    -4.8022    -1.7929 H       
  27 H27            6.7422    -7.3685    -1.9767 H       
  28 H28            6.2659    -6.7132    -3.5616 H       
  29 H29            7.6102    -5.9729    -2.6600 H       
  30 H30            7.8260    -5.1903     0.1800 H       
  31 H31            8.1801    -4.8285    -1.5265 H       
  32 H32            7.8637    -3.5020    -0.3826 H       
@<TRIPOS>BOND
   1    1    3 1
   2    1   17 1
   3    1   18 1
   4    2    3 1
   5    2    6 1
   6    3    4 2
   7    4    5 1
   8    5    6 1
   9    5   19 1
  10    5   20 1
  11    6    7 1
  12    6   21 1
  13    7    8 1
  14    7   22 1
  15    7   23 1
  16    8    9 1
  17    9   10 ar
  18    9   14 ar
  19   10   11 ar
  20   10   24 1
  21   11   12 ar
  22   11   16 1
  23   12   13 ar
  24   12   15 1
  25   13   14 ar
  26   13   25 1
  27   14   26 1
  28   15   27 1
  29   15   28 1
  30   15   29 1
  31   16   30 1
  32   16   31 1
  33   16   32 1

#	End of record

