#	Name: ASD01811488
#	Creating user name:	WinNT
#	Creation time:	15. 06. 2019 19:26

#	Modifying user name:	WinNT
#	Modification time:	15. 06. 2019 19:26

#	Program:	/corina/corina34_cracker 3.40 0067  02.08.2006

@<TRIPOS>MOLECULE
ASD01811488
  75   80    0    0    0
SMALL
NO_CHARGES


@<TRIPOS>ATOM
   1 C1             0.2936     1.3609     1.0189 C.3     
   2 C2             0.2381    -0.1263     0.7713 C.2     
   3 C3             1.3131    -0.8842     0.4557 C.2     
   4 C4             2.7178    -0.3512     0.3151 C.3     
   5 C5             2.6542     1.1704     0.1344 C.3     
   6 N6             1.7164     1.7348     1.1167 N.am    
   7 C7            -0.3956    -2.2058     0.5137 C.2     
   8 N8            -0.8438    -0.9501     0.8138 N.pl3   
   9 N9             0.9022    -2.1440     0.3015 N.2     
  10 C10            2.1463     2.5729     2.0807 C.2     
  11 O11            3.3225     2.8706     2.1468 O.2     
  12 O12            1.2724     3.0803     2.9704 O.3     
  13 C13           -1.2272    -3.4270     0.4401 C.ar    
  14 C14           -0.6741    -4.6236    -0.0207 C.ar    
  15 C15           -1.4488    -5.7643    -0.0900 C.ar    
  16 C16           -2.7743    -5.7307     0.2958 C.ar    
  17 C17           -3.3399    -4.5408     0.7585 C.ar    
  18 C18           -2.5619    -3.3872     0.8359 C.ar    
  19 C19            0.7715    -4.6698    -0.4439 C.3     
  20 C20            1.6552    -5.5297     0.4750 C.3     
  21 C21            2.3571    -6.0295    -0.7988 C.3     
  22 C22            1.0569    -5.6989    -1.5505 C.3     
  23 C23           -4.7596    -4.5061     1.1704 C.2     
  24 O24           -5.4196    -3.5009     0.9927 O.2     
  25 N25           -5.3219    -5.5890     1.7428 N.am    
  26 C26           -6.7582    -5.6119     2.0510 C.3     
  27 C27           -6.9396    -5.9711     3.5292 C.3     
  28 C28           -6.2125    -7.2852     3.8236 C.3     
  29 C29           -4.7168    -7.1154     3.5478 C.3     
  30 C30           -4.5112    -6.7713     2.0648 C.3     
  31 C31           -6.4173    -7.6593     5.2690 C.ar    
  32 C32           -7.0348    -8.8551     5.5900 C.ar    
  33 C33           -7.2254    -9.2038     6.9110 C.ar    
  34 C34           -6.7931    -8.3470     7.9252 C.ar    
  35 C35           -6.1703    -7.1419     7.5941 C.ar    
  36 C36           -5.9817    -6.8080     6.2690 C.ar    
  37 C37           -6.9881    -8.7023     9.2987 C.1     
  38 N38           -7.1427    -8.9841    10.3882 N.1     
  39 C39            1.8058     3.9761     3.9809 C.3     
  40 C40            0.6723     4.4474     4.8942 C.3     
  41 H41           -0.1737     1.8927     0.1901 H       
  42 H42           -0.2181     1.6012     1.9508 H       
  43 H43            3.2901    -0.5889     1.2117 H       
  44 H44            3.1943    -0.8027    -0.5551 H       
  45 H45            3.6450     1.5973     0.2899 H       
  46 H46            2.3103     1.4034    -0.8733 H       
  47 H47           -1.7572    -0.6954     1.0181 H       
  48 H48           -1.0163    -6.6870    -0.4479 H       
  49 H49           -3.3749    -6.6265     0.2392 H       
  50 H50           -2.9932    -2.4653     1.1972 H       
  51 H51            1.1847    -3.6819    -0.6475 H       
  52 H52            2.3023    -4.9460     1.1297 H       
  53 H53            1.1064    -6.3081     1.0050 H       
  54 H54            3.2045    -5.4138    -1.1005 H       
  55 H55            2.5916    -7.0938    -0.7792 H       
  56 H56            0.3445    -6.5235    -1.5741 H       
  57 H57            1.2210    -5.2517    -2.5309 H       
  58 H58           -7.1891    -4.6294     1.8582 H       
  59 H59           -7.2533    -6.3585     1.4301 H       
  60 H60           -6.5233    -5.1779     4.1501 H       
  61 H61           -8.0013    -6.0858     3.7480 H       
  62 H62           -6.6125    -8.0726     3.1848 H       
  63 H63           -4.3213    -6.3114     4.1686 H       
  64 H64           -4.1963    -8.0445     3.7800 H       
  65 H65           -4.8268    -7.6106     1.4450 H       
  66 H66           -3.4590    -6.5541     1.8811 H       
  67 H67           -7.3686    -9.5169     4.8045 H       
  68 H68           -7.7081   -10.1373     7.1601 H       
  69 H69           -5.8335    -6.4746     8.3737 H       
  70 H70           -5.4965    -5.8781     6.0115 H       
  71 H71            2.5550     3.4509     4.5732 H       
  72 H72            2.2645     4.8382     3.4966 H       
  73 H73           -0.0769     4.9727     4.3019 H       
  74 H74            0.2137     3.5854     5.3785 H       
  75 H75            1.0728     5.1200     5.6528 H       
@<TRIPOS>BOND
   1    1    2 1
   2    1    6 1
   3    1   41 1
   4    1   42 1
   5    2    3 2
   6    2    8 1
   7    3    4 1
   8    3    9 1
   9    4    5 1
  10    4   43 1
  11    4   44 1
  12    5    6 1
  13    5   45 1
  14    5   46 1
  15    6   10 am
  16    7    8 1
  17    7    9 2
  18    7   13 1
  19    8   47 1
  20   10   11 2
  21   10   12 1
  22   12   39 1
  23   13   14 ar
  24   13   18 ar
  25   14   15 ar
  26   14   19 1
  27   15   16 ar
  28   15   48 1
  29   16   17 ar
  30   16   49 1
  31   17   18 ar
  32   17   23 1
  33   18   50 1
  34   19   20 1
  35   19   22 1
  36   19   51 1
  37   20   21 1
  38   20   52 1
  39   20   53 1
  40   21   22 1
  41   21   54 1
  42   21   55 1
  43   22   56 1
  44   22   57 1
  45   23   24 2
  46   23   25 am
  47   25   26 1
  48   25   30 1
  49   26   27 1
  50   26   58 1
  51   26   59 1
  52   27   28 1
  53   27   60 1
  54   27   61 1
  55   28   29 1
  56   28   31 1
  57   28   62 1
  58   29   30 1
  59   29   63 1
  60   29   64 1
  61   30   65 1
  62   30   66 1
  63   31   32 ar
  64   31   36 ar
  65   32   33 ar
  66   32   67 1
  67   33   34 ar
  68   33   68 1
  69   34   35 ar
  70   34   37 1
  71   35   36 ar
  72   35   69 1
  73   36   70 1
  74   37   38 3
  75   39   40 1
  76   39   71 1
  77   39   72 1
  78   40   73 1
  79   40   74 1
  80   40   75 1

#	End of record

