#	Name: ASD03930254
#	Creating user name:	WinNT
#	Creation time:	15. 06. 2019 20:47

#	Modifying user name:	WinNT
#	Modification time:	15. 06. 2019 20:47

#	Program:	/corina/corina34_cracker 3.40 0067  02.08.2006

@<TRIPOS>MOLECULE
ASD03930254
  28   28    0    0    0
SMALL
NO_CHARGES


@<TRIPOS>ATOM
   1 C1            -0.0187     1.5258     0.0104 C.3     
   2 C2             0.0021    -0.0041     0.0020 C.3     
   3 C3             0.7182    -0.4975    -1.2568 C.3     
   4 N4             0.7381    -1.9623    -1.2648 N.pl3   
   5 C5             1.3426    -2.6471    -2.3224 C.ar    
   6 C6             1.9299    -1.9403    -3.3636 C.ar    
   7 C7             2.5271    -2.6197    -4.4075 C.ar    
   8 C8             2.5405    -4.0032    -4.4164 C.ar    
   9 Cl9            3.2925    -4.8539    -5.7296 Cl      
  10 C10            1.9560    -4.7102    -3.3801 C.ar    
  11 C11            1.3621    -4.0361    -2.3314 C.ar    
  12 S12            0.6240    -4.9370    -1.0091 S.o2    
  13 N13            1.4938    -4.6000     0.3592 N.am    
  14 O14           -0.6666    -4.3758    -0.8126 O.2     
  15 O15            0.8383    -6.3129    -1.2922 O.2     
  16 H16            1.0039     1.9031     0.0027 H       
  17 H17           -0.5459     1.8868    -0.8726 H       
  18 H18           -0.5289     1.8773     0.9072 H       
  19 H19            0.5293    -0.3651     0.8851 H       
  20 H20           -1.0205    -0.3814     0.0098 H       
  21 H21            0.1910    -0.1364    -2.1398 H       
  22 H22            1.7408    -0.1202    -1.2645 H       
  23 H23            0.3316    -2.4569    -0.5361 H       
  24 H24            1.9194    -0.8603    -3.3573 H       
  25 H25            2.9837    -2.0705    -5.2176 H       
  26 H26            1.9679    -5.7901    -3.3896 H       
  27 H27            2.2537    -3.9988     0.3151 H       
  28 H28            1.2434    -5.0040     1.2048 H       
@<TRIPOS>BOND
   1    1    2 1
   2    1   16 1
   3    1   17 1
   4    1   18 1
   5    2    3 1
   6    2   19 1
   7    2   20 1
   8    3    4 1
   9    3   21 1
  10    3   22 1
  11    4    5 1
  12    4   23 1
  13    5   11 ar
  14    5    6 ar
  15    6    7 ar
  16    6   24 1
  17    7    8 ar
  18    7   25 1
  19    8    9 1
  20    8   10 ar
  21   10   11 ar
  22   10   26 1
  23   11   12 1
  24   12   13 am
  25   12   14 2
  26   12   15 2
  27   13   27 1
  28   13   28 1

#	End of record

