#	Name: ASD01940215
#	Creating user name:	WinNT
#	Creation time:	15. 06. 2019 20:12

#	Modifying user name:	WinNT
#	Modification time:	15. 06. 2019 20:12

#	Program:	/corina/corina34_cracker 3.40 0067  02.08.2006

@<TRIPOS>MOLECULE
ASD01940215
  48   49    0    0    0
SMALL
NO_CHARGES


@<TRIPOS>ATOM
   1 I1             0.4081    -4.6341    -0.6082 I       
   2 F2             1.4683     1.8733     2.6599 F       
   3 C3             0.8160     2.5672     1.7016 C.ar    
   4 C4             1.0955     2.3326     0.3619 C.ar    
   5 C5             0.4195     3.0507    -0.6233 C.ar    
   6 C6            -0.5287     3.9958    -0.2612 C.ar    
   7 C7            -0.8026     4.2255     1.0746 C.ar    
   8 C8            -0.1367     3.5095     2.0548 C.ar    
   9 N9             2.0550     1.3767     0.0010 N.pl3   
  10 N10            0.6979     2.8185    -1.9769 N.am    
  11 C11            1.6879     0.0343    -0.1350 C.ar    
  12 C12            0.3588    -0.3412     0.0054 C.ar    
  13 C13           -0.0013    -1.6684    -0.1300 C.ar    
  14 C14            0.9604    -2.6234    -0.4048 C.ar    
  15 C15            2.2867    -2.2542    -0.5452 C.ar    
  16 C16            2.6530    -0.9275    -0.4172 C.ar    
  17 F17            3.9478    -0.5669    -0.5542 F       
  18 F18           -0.4125     3.7336     3.3582 F       
  19 S19            0.6810     4.0767    -3.0534 S.o2    
  20 O20            1.1638     3.5092    -4.2634 O.2     
  21 O21           -0.6382     4.5971    -2.9636 O.2     
  22 C22            0.8331     7.2862    -3.1261 C.3     
  23 C23            1.2417     8.5261    -2.3281 C.3     
  24 C24            1.6382     8.1118    -0.9097 C.3     
  25 C25            0.3717     7.7077    -4.5226 C.3     
  26 C26           -0.1538     6.4846    -5.2769 C.3     
  27 C27            1.8798     5.2619    -2.3833 C.3     
  28 O28            1.9510     6.4033    -3.2400 O.3     
  29 H29           -1.0534     4.5531    -1.0231 H       
  30 H30           -1.5412     4.9622     1.3539 H       
  31 H31            2.9737     1.6464    -0.1543 H       
  32 H32            0.9004     1.9207    -2.2833 H       
  33 H33           -0.3933     0.4035     0.2207 H       
  34 H34           -1.0353    -1.9603    -0.0207 H       
  35 H35            3.0353    -3.0025    -0.7594 H       
  36 H36            0.0181     6.7761    -2.6127 H       
  37 H37            2.0885     9.0091    -2.8157 H       
  38 H38            0.4035     9.2214    -2.2827 H       
  39 H39            0.8395     7.5155    -0.4686 H       
  40 H40            2.5542     7.5222    -0.9460 H       
  41 H41            1.8035     9.0027    -0.3038 H       
  42 H42           -0.4225     8.4491    -4.4345 H       
  43 H43            1.2114     8.1380    -5.0683 H       
  44 H44            0.6404     5.7433    -5.3650 H       
  45 H45           -0.9935     6.0544    -4.7312 H       
  46 H46           -0.4825     6.7849    -6.2718 H       
  47 H47            1.5645     5.5739    -1.3877 H       
  48 H48            2.8611     4.7912    -2.3228 H       
@<TRIPOS>BOND
   1    1   14 1
   2    2    3 1
   3    3    4 ar
   4    3    8 ar
   5    4    5 ar
   6    4    9 1
   7    5    6 ar
   8    5   10 1
   9    6    7 ar
  10    6   29 1
  11    7    8 ar
  12    7   30 1
  13    8   18 1
  14    9   11 1
  15    9   31 1
  16   10   19 am
  17   10   32 1
  18   11   12 ar
  19   11   16 ar
  20   12   13 ar
  21   12   33 1
  22   13   14 ar
  23   13   34 1
  24   14   15 ar
  25   15   16 ar
  26   15   35 1
  27   16   17 1
  28   19   20 2
  29   19   21 2
  30   19   27 1
  31   22   25 1
  32   22   28 1
  33   22   23 1
  34   22   36 1
  35   23   24 1
  36   23   37 1
  37   23   38 1
  38   24   39 1
  39   24   40 1
  40   24   41 1
  41   25   26 1
  42   25   42 1
  43   25   43 1
  44   26   44 1
  45   26   45 1
  46   26   46 1
  47   27   28 1
  48   27   47 1
  49   27   48 1

#	End of record

