#	Name: ASD01903218
#	Creating user name:	WinNT
#	Creation time:	15. 06. 2019 19:54

#	Modifying user name:	WinNT
#	Modification time:	15. 06. 2019 19:54

#	Program:	/corina/corina34_cracker 3.40 0067  02.08.2006

@<TRIPOS>MOLECULE
ASD01903218
  32   34    0    0    0
SMALL
NO_CHARGES


@<TRIPOS>ATOM
   1 S1            -0.0242     1.7576    -0.0300 S.3     
   2 C2             0.0013    -0.0032    -0.0095 C.2     
   3 N3             1.2320    -0.4153    -0.0138 N.2     
   4 C4             2.1769     0.5141    -0.0317 C.2     
   5 C5             1.7378     1.7832    -0.0433 C.2     
   6 N6            -1.1185    -0.8216     0.0087 N.pl3   
   7 C7            -2.3870    -0.2623     0.1288 C.ar    
   8 C8             3.6232     0.1750    -0.0379 C.2     
   9 C9             4.6408     0.8840    -0.7045 C.2     
  10 N10            5.7765     0.2799    -0.4724 N.2     
  11 N11            5.5308    -0.8298     0.3453 N.pl3   
  12 C12            4.2070    -0.8759     0.6059 C.2     
  13 N13           -2.5133     1.0402     0.3305 N.ar    
  14 C14           -3.6974     1.6102     0.4494 C.ar    
  15 C15           -4.8548     0.8623     0.3671 C.ar    
  16 C16           -4.7658    -0.5075     0.1563 C.ar    
  17 C17           -3.5112    -1.0759     0.0303 C.ar    
  18 C18           -3.7874     3.0970     0.6786 C.3     
  19 F19           -2.6931     3.7285     0.0779 F       
  20 F20           -4.9727     3.5844     0.1176 F       
  21 C21            2.6029     3.0169    -0.0641 C.3     
  22 H22           -1.0174    -1.7837    -0.0622 H       
  23 H23            4.5064     1.7723    -1.3039 H       
  24 H24            6.1969    -1.4553     0.6709 H       
  25 H25            3.7011    -1.6148     1.2097 H       
  26 H26           -5.8195     1.3375     0.4661 H       
  27 H27           -5.6564    -1.1146     0.0882 H       
  28 H28           -3.4055    -2.1380    -0.1344 H       
  29 H29           -3.7817     3.3006     1.7494 H       
  30 H30            2.8039     3.3023    -1.0967 H       
  31 H31            2.0866     3.8314     0.4440 H       
  32 H32            3.5440     2.8094     0.4452 H       
@<TRIPOS>BOND
   1    1    2 1
   2    1    5 1
   3    2    3 2
   4    2    6 1
   5    3    4 1
   6    4    5 2
   7    4    8 1
   8    5   21 1
   9    6    7 1
  10    6   22 1
  11    7   13 ar
  12    7   17 ar
  13    8    9 1
  14    8   12 2
  15    9   10 2
  16    9   23 1
  17   10   11 1
  18   11   12 1
  19   11   24 1
  20   12   25 1
  21   13   14 ar
  22   14   15 ar
  23   14   18 1
  24   15   16 ar
  25   15   26 1
  26   16   17 ar
  27   16   27 1
  28   17   28 1
  29   18   19 1
  30   18   20 1
  31   18   29 1
  32   21   30 1
  33   21   31 1
  34   21   32 1

#	End of record

