#	Name: ASD03731010
#	Creating user name:	WinNT
#	Creation time:	15. 06. 2019 20:45

#	Modifying user name:	WinNT
#	Modification time:	15. 06. 2019 20:45

#	Program:	/corina/corina34_cracker 3.40 0067  02.08.2006

@<TRIPOS>MOLECULE
ASD03731010
  48   54    0    0    0
SMALL
NO_CHARGES


@<TRIPOS>ATOM
   1 O1             0.1153     1.7889    -1.7087 O.3     
   2 C2             0.1444     0.3848    -2.0260 C.3     
   3 O3             1.4549     0.1878    -2.5885 O.3     
   4 C4             2.2411     1.1557    -2.0317 C.ar    
   5 C5             1.4169     2.1404    -1.4919 C.ar    
   6 C6             3.6159     1.2775    -1.9398 C.ar    
   7 C7             4.1855     2.3809    -1.3114 C.ar    
   8 C8             3.3521     3.3622    -0.7833 C.ar    
   9 C9             1.9807     3.2405    -0.8679 C.ar    
  10 O10            5.4988     2.6821    -1.1004 O.3     
  11 C11            4.2509     4.4224    -0.2053 C.3     
  12 C12            5.6226     4.0871    -0.8065 C.3     
  13 N13            3.5995     6.4642     0.5891 N.am    
  14 C14            3.8031     5.8082    -0.5708 C.2     
  15 C15            4.2750     4.3947     1.2942 C.ar    
  16 C16            4.5958     3.4296     2.2227 C.ar    
  17 C17            4.5180     3.7153     3.5741 C.ar    
  18 C18            4.1172     4.9720     3.9898 C.ar    
  19 C19            3.7939     5.9418     3.0638 C.ar    
  20 C20            3.8697     5.6632     1.7013 C.ar    
  21 O21            3.6541     6.2508    -1.6902 O.2     
  22 C22            3.1483     7.8554     0.6736 C.3     
  23 C23            0.9117     6.7995     0.8457 C.2     
  24 C24            1.6437     7.8917     0.7505 C.2     
  25 C25            0.8887     9.1341     0.7259 C.ar    
  26 C26           -0.4878     8.9077     0.8102 C.ar    
  27 S27           -0.7981     7.1793     0.9162 S.3     
  28 C28           -1.3729     9.9898     0.8012 C.ar    
  29 C29           -0.8964    11.2760     0.7098 C.ar    
  30 C30            0.4703    11.5102     0.6252 C.ar    
  31 C31            1.3564    10.4626     0.6324 C.ar    
  32 Cl32           1.0608    13.1386     0.5096 Cl      
  33 H33            0.0209    -0.2143    -1.1238 H       
  34 H34           -0.6266     0.1414    -2.7570 H       
  35 H35            4.2515     0.5110    -2.3580 H       
  36 H36            1.3451     4.0054    -0.4468 H       
  37 H37            6.4167     4.2623    -0.0807 H       
  38 H38            5.7963     4.6594    -1.7178 H       
  39 H39            4.9082     2.4489     1.8956 H       
  40 H40            4.7692     2.9587     4.3027 H       
  41 H41            4.0567     5.1951     5.0448 H       
  42 H42            3.4810     6.9205     3.3963 H       
  43 H43            3.5690     8.3203     1.5652 H       
  44 H44            3.4801     8.3993    -0.2108 H       
  45 H45            1.3142     5.7976     0.8723 H       
  46 H46           -2.4365     9.8144     0.8660 H       
  47 H47           -1.5865    12.1067     0.7034 H       
  48 H48            2.4170    10.6555     0.5669 H       
@<TRIPOS>BOND
   1    1    2 1
   2    1    5 1
   3    2    3 1
   4    2   33 1
   5    2   34 1
   6    3    4 1
   7    4    5 ar
   8    4    6 ar
   9    5    9 ar
  10    6    7 ar
  11    6   35 1
  12    7    8 ar
  13    7   10 1
  14    8    9 ar
  15    8   11 1
  16    9   36 1
  17   10   12 1
  18   11   12 1
  19   11   14 1
  20   11   15 1
  21   12   37 1
  22   12   38 1
  23   13   14 am
  24   13   20 1
  25   13   22 1
  26   14   21 2
  27   15   16 ar
  28   15   20 ar
  29   16   17 ar
  30   16   39 1
  31   17   18 ar
  32   17   40 1
  33   18   19 ar
  34   18   41 1
  35   19   20 ar
  36   19   42 1
  37   22   24 1
  38   22   43 1
  39   22   44 1
  40   23   24 2
  41   23   27 1
  42   23   45 1
  43   24   25 1
  44   25   26 ar
  45   25   31 ar
  46   26   27 1
  47   26   28 ar
  48   28   29 ar
  49   28   46 1
  50   29   30 ar
  51   29   47 1
  52   30   31 ar
  53   30   32 1
  54   31   48 1

#	End of record

