#	Name: ASD01230061
#	Creating user name:	WinNT
#	Creation time:	15. 06. 2019 19:11

#	Modifying user name:	WinNT
#	Modification time:	15. 06. 2019 19:11

#	Program:	/corina/corina34_cracker 3.40 0067  02.08.2006

@<TRIPOS>MOLECULE
ASD01230061
  34   36    0    0    0
SMALL
NO_CHARGES


@<TRIPOS>ATOM
   1 C1             0.0027     1.3667     0.0604 C.ar    
   2 C2             0.0181    -0.0315     0.0883 C.ar    
   3 C3            -1.1531    -0.7253     0.0850 C.ar    
   4 C4            -2.3908    -0.0558     0.0538 C.ar    
   5 C5            -2.4155     1.3403     0.0313 C.ar    
   6 C6            -1.2152     2.0446     0.0376 C.ar    
   7 N7            -3.5039    -0.8297     0.0434 N.2     
   8 C8            -4.5823    -0.6213     0.7083 C.2     
   9 C9            -4.7483     0.5877     1.5911 C.3     
  10 C10           -4.6811     1.8175     0.7213 C.2     
  11 N11           -3.5850     2.0904     0.0117 N.am    
  12 O12           -5.6339     2.5660     0.6658 O.2     
  13 C13            1.2701     2.1212     0.0613 C.2     
  14 C14           -5.6860    -1.5902     0.6054 C.ar    
  15 C15           -5.6135    -2.6410    -0.3154 C.ar    
  16 C16           -6.6477    -3.5501    -0.4122 C.ar    
  17 C17           -7.7601    -3.4297     0.3970 C.ar    
  18 C18           -7.8471    -2.3848     1.3214 C.ar    
  19 C19           -6.8054    -1.4664     1.4303 C.ar    
  20 O20            1.2540     3.3359     0.0371 O.2     
  21 O21            2.4458     1.4634     0.0891 O.3     
  22 C22           -9.0022    -2.2622     2.1590 C.1     
  23 N23           -9.9185    -2.1650     2.8234 N.1     
  24 H24            0.9593    -0.5608     0.1120 H       
  25 H25           -1.1323    -1.8049     0.1062 H       
  26 H26           -1.2272     3.1244     0.0167 H       
  27 H27           -5.7141     0.5456     2.0948 H       
  28 H28           -3.9480     0.6159     2.3306 H       
  29 H29           -3.6058     2.8726    -0.5616 H       
  30 H30           -4.7468    -2.7410    -0.9520 H       
  31 H31           -6.5866    -4.3595    -1.1246 H       
  32 H32           -8.5653    -4.1447     0.3152 H       
  33 H33           -6.8676    -0.6572     2.1428 H       
  34 H34            3.2497     2.0008     0.0885 H       
@<TRIPOS>BOND
   1    1    2 ar
   2    1   13 1
   3    1    6 ar
   4    2    3 ar
   5    2   24 1
   6    3    4 ar
   7    3   25 1
   8    4    5 ar
   9    4    7 1
  10    5    6 ar
  11    5   11 1
  12    6   26 1
  13    7    8 2
  14    8    9 1
  15    8   14 1
  16    9   10 1
  17    9   27 1
  18    9   28 1
  19   10   11 am
  20   10   12 2
  21   11   29 1
  22   13   20 2
  23   13   21 1
  24   14   15 ar
  25   14   19 ar
  26   15   16 ar
  27   15   30 1
  28   16   17 ar
  29   16   31 1
  30   17   18 ar
  31   17   32 1
  32   18   19 ar
  33   18   22 1
  34   19   33 1
  35   21   34 1
  36   22   23 3

#	End of record

