#	Name: ASD01916045
#	Creating user name:	WinNT
#	Creation time:	15. 06. 2019 20:06

#	Modifying user name:	WinNT
#	Modification time:	15. 06. 2019 20:06

#	Program:	/corina/corina34_cracker 3.40 0067  02.08.2006

@<TRIPOS>MOLECULE
ASD01916045
  47   49    0    0    0
SMALL
NO_CHARGES


@<TRIPOS>ATOM
   1 C1            -0.0464     1.4178    -0.4227 C.ar    
   2 C2            -0.0104     0.0255    -0.2598 C.ar    
   3 C3            -1.2080    -0.6521    -0.1407 C.ar    
   4 C4            -2.4044     0.0652    -0.1860 C.ar    
   5 C5            -3.6909    -0.6533    -0.0592 C.2     
   6 N6            -4.8369     0.0389     0.0960 N.am    
   7 O7            -3.7147    -1.8680    -0.0948 O.2     
   8 C8             1.1680     2.1657    -0.5511 C.1     
   9 C9             2.1636     2.7789    -0.6564 C.1     
  10 C10            3.3780     3.5268    -0.7849 C.ar    
  11 C11            3.3345     4.9141    -0.9469 C.ar    
  12 C12            5.7822     3.6009    -0.8676 C.ar    
  13 C13            4.5100     5.6287    -1.0702 C.ar    
  14 N14           -2.4034     1.3850    -0.3411 N.ar    
  15 C15           -1.2884     2.0661    -0.4638 C.ar    
  16 C16            4.6150     2.8725    -0.7430 C.ar    
  17 C17            5.7307     4.9732    -1.0339 C.ar    
  18 C18           -6.1363    -0.6456     0.0544 C.3     
  19 C19           -4.8102     1.4913     0.3160 C.3     
  20 C20           -5.6103     1.8130     1.5822 C.3     
  21 C21           -7.0164     1.2221     1.4561 C.3     
  22 C22           -6.9188    -0.2955     1.3240 C.3     
  23 C23           -6.9205    -0.1831    -1.1753 C.3     
  24 C24           -5.9172    -2.1582    -0.0160 C.3     
  25 O25           -7.7760     1.5479     2.6219 O.3     
  26 F26            4.6671     1.5323    -0.5806 F       
  27 F27            4.4699     6.9700    -1.2269 F       
  28 H28            0.9304    -0.5039    -0.2286 H       
  29 H29           -1.2185    -1.7246    -0.0143 H       
  30 H30            2.3840     5.4262    -0.9760 H       
  31 H31            6.7371     3.0972    -0.8400 H       
  32 H32           -1.3278     3.1382    -0.5883 H       
  33 H33            6.6465     5.5374    -1.1309 H       
  34 H34           -3.7795     1.8231     0.4410 H       
  35 H35           -5.2585     1.9986    -0.5382 H       
  36 H36           -5.1101     1.3801     2.4484 H       
  37 H37           -5.6796     2.8940     1.7040 H       
  38 H38           -7.5070     1.6369     0.5756 H       
  39 H39           -7.9205    -0.7201     1.2577 H       
  40 H40           -6.4069    -0.7044     2.1952 H       
  41 H41           -6.3563    -0.4217    -2.0769 H       
  42 H42           -7.8840    -0.6920    -1.2043 H       
  43 H43           -7.0798     0.8938    -1.1207 H       
  44 H44           -5.3198    -2.4789     0.8374 H       
  45 H45           -6.8814    -2.6662     0.0040 H       
  46 H46           -5.3945    -2.4070    -0.9395 H       
  47 H47           -7.8780     2.4977     2.7721 H       
@<TRIPOS>BOND
   1    1    2 ar
   2    1    8 1
   3    1   15 ar
   4    2    3 ar
   5    2   28 1
   6    3    4 ar
   7    3   29 1
   8    4   14 ar
   9    4    5 1
  10    5    6 am
  11    5    7 2
  12    6   19 1
  13    6   18 1
  14    8    9 3
  15    9   10 1
  16   10   11 ar
  17   10   16 ar
  18   11   13 ar
  19   11   30 1
  20   12   17 ar
  21   12   16 ar
  22   12   31 1
  23   13   27 1
  24   13   17 ar
  25   14   15 ar
  26   15   32 1
  27   16   26 1
  28   17   33 1
  29   18   23 1
  30   18   24 1
  31   18   22 1
  32   19   20 1
  33   19   34 1
  34   19   35 1
  35   20   21 1
  36   20   36 1
  37   20   37 1
  38   21   22 1
  39   21   25 1
  40   21   38 1
  41   22   39 1
  42   22   40 1
  43   23   41 1
  44   23   42 1
  45   23   43 1
  46   24   44 1
  47   24   45 1
  48   24   46 1
  49   25   47 1

#	End of record

