#	Name: ASD01410141
#	Creating user name:	WinNT
#	Creation time:	15. 06. 2019 19:16

#	Modifying user name:	WinNT
#	Modification time:	15. 06. 2019 19:16

#	Program:	/corina/corina34_cracker 3.40 0067  02.08.2006

@<TRIPOS>MOLECULE
ASD01410141
  70   75    0    0    0
SMALL
NO_CHARGES


@<TRIPOS>ATOM
   1 C1             0.0050     1.4329     0.0027 C.ar    
   2 C2             0.0092     0.0624     0.3239 C.ar    
   3 C3            -1.1711    -0.5713     0.6947 C.ar    
   4 C4            -2.3397     0.1319     0.7488 C.ar    
   5 C5            -2.3628     1.4965     0.4320 C.ar    
   6 C6            -1.1903     2.1494     0.0640 C.ar    
   7 N7             1.2790     1.7738    -0.3166 N.2     
   8 C8             2.0534     0.7209    -0.2145 C.2     
   9 N9             1.3137    -0.3625     0.1789 N.pl3   
  10 C10           -3.6342     2.2452     0.4936 C.2     
  11 N11           -4.7701     1.6157     0.8542 N.am    
  12 C12           -6.0313     2.3585     0.9153 C.3     
  13 C13            3.5060     0.7053    -0.4839 C.2     
  14 C14            4.3417    -0.4670    -0.7760 C.2     
  15 C15            5.5878     0.0013    -0.9512 C.2     
  16 O16            5.5817     1.3338    -0.7935 O.3     
  17 C17            4.3476     1.7752    -0.5190 C.2     
  18 C18            1.8147    -1.7206     0.4040 C.3     
  19 C19            1.4174    -2.1848     1.8067 C.3     
  20 C20            1.9407    -3.6032     2.0418 C.3     
  21 C21            1.3365    -4.5486     1.0015 C.3     
  22 C22            1.7338    -4.0844    -0.4012 C.3     
  23 C23            1.2105    -2.6660    -0.6363 C.3     
  24 O24           -3.6562     3.4293     0.2191 O.2     
  25 C25           -7.2021     1.3920     0.7251 C.3     
  26 C26           -6.1513     3.0351     2.2565 C.2     
  27 C27           -7.1505     0.8075    -0.6629 C.ar    
  28 C28           -6.4488    -0.3613    -0.8940 C.ar    
  29 C29           -6.4000    -0.8991    -2.1655 C.ar    
  30 C30           -7.0558    -0.2656    -3.2110 C.ar    
  31 C31           -7.7592     0.9070    -2.9766 C.ar    
  32 C32           -7.8097     1.4378    -1.7021 C.ar    
  33 O33           -7.0090    -0.7925    -4.4629 O.3     
  34 C34           -5.1748     3.0142     3.1640 C.2     
  35 S35           -5.7199     3.9166     4.5754 S.3     
  36 C36           -7.2135     4.2365     3.8072 C.2     
  37 N37           -7.2306     3.7018     2.6259 N.2     
  38 N38           -8.2525     4.9657     4.3639 N.pl3   
  39 C39           -8.1139     5.5284     5.7094 C.3     
  40 H40           -1.1635    -1.6230     0.9404 H       
  41 H41           -3.2529    -0.3672     1.0374 H       
  42 H42           -1.2071     3.2013    -0.1800 H       
  43 H43           -4.7525     0.6710     1.0732 H       
  44 H44           -6.0489     3.1102     0.1262 H       
  45 H45            4.0194    -1.4960    -0.8374 H       
  46 H46            6.4560    -0.5984    -1.1817 H       
  47 H47            4.0683     2.8043    -0.3477 H       
  48 H48            2.9009    -1.7269     0.3132 H       
  49 H49            1.8479    -1.5113     2.5478 H       
  50 H50            0.3312    -2.1786     1.8975 H       
  51 H51            3.0269    -3.6095     1.9510 H       
  52 H52            1.6577    -3.9339     3.0411 H       
  53 H53            1.7093    -5.5591     1.1690 H       
  54 H54            0.2503    -4.5424     1.0923 H       
  55 H55            2.8200    -4.0907    -0.4920 H       
  56 H56            1.3034    -4.7580    -1.1423 H       
  57 H57            0.1243    -2.6598    -0.5455 H       
  58 H58            1.4935    -2.3353    -1.6356 H       
  59 H59           -7.1340     0.5898     1.4599 H       
  60 H60           -8.1415     1.9284     0.8588 H       
  61 H61           -5.9381    -0.8539    -0.0798 H       
  62 H62           -5.8514    -1.8119    -2.3455 H       
  63 H63           -8.2706     1.4021    -3.7888 H       
  64 H64           -8.3571     2.3505    -1.5191 H       
  65 H65           -7.7229    -1.4159    -4.6542 H       
  66 H66           -4.2167     2.5283     3.0533 H       
  67 H67           -9.0714     5.1034     3.8626 H       
  68 H68           -7.9447     4.7232     6.4243 H       
  69 H69           -7.2686     6.2163     5.7302 H       
  70 H70           -9.0252     6.0644     5.9747 H       
@<TRIPOS>BOND
   1    1    2 ar
   2    1    7 1
   3    1    6 ar
   4    2    3 ar
   5    2    9 1
   6    3    4 ar
   7    3   40 1
   8    4    5 ar
   9    4   41 1
  10    5    6 ar
  11    5   10 1
  12    6   42 1
  13    7    8 2
  14    8    9 1
  15    8   13 1
  16    9   18 1
  17   10   11 am
  18   10   24 2
  19   11   12 1
  20   11   43 1
  21   12   25 1
  22   12   26 1
  23   12   44 1
  24   13   14 1
  25   13   17 2
  26   14   15 2
  27   14   45 1
  28   15   16 1
  29   15   46 1
  30   16   17 1
  31   17   47 1
  32   18   19 1
  33   18   23 1
  34   18   48 1
  35   19   20 1
  36   19   49 1
  37   19   50 1
  38   20   21 1
  39   20   51 1
  40   20   52 1
  41   21   22 1
  42   21   53 1
  43   21   54 1
  44   22   23 1
  45   22   55 1
  46   22   56 1
  47   23   57 1
  48   23   58 1
  49   25   27 1
  50   25   59 1
  51   25   60 1
  52   26   34 2
  53   26   37 1
  54   27   28 ar
  55   27   32 ar
  56   28   29 ar
  57   28   61 1
  58   29   30 ar
  59   29   62 1
  60   30   31 ar
  61   30   33 1
  62   31   32 ar
  63   31   63 1
  64   32   64 1
  65   33   65 1
  66   34   35 1
  67   34   66 1
  68   35   36 1
  69   36   37 2
  70   36   38 1
  71   38   39 1
  72   38   67 1
  73   39   68 1
  74   39   69 1
  75   39   70 1

#	End of record

