#	Name: ASD01913546
#	Creating user name:	WinNT
#	Creation time:	15. 06. 2019 20:01

#	Modifying user name:	WinNT
#	Modification time:	15. 06. 2019 20:01

#	Program:	/corina/corina34_cracker 3.40 0067  02.08.2006

@<TRIPOS>MOLECULE
ASD01913546
  34   36    0    0    0
SMALL
NO_CHARGES


@<TRIPOS>ATOM
   1 C1             0.8691     0.2447    -0.9901 C.ar    
   2 C2             0.1063    -0.0148     0.1440 C.ar    
   3 C3             0.5513     0.4455     1.3752 C.ar    
   4 N4             1.6796     1.1196     1.4733 N.ar    
   5 C5             2.4258     1.3824     0.4181 C.ar    
   6 C6             2.0487     0.9565    -0.8415 C.ar    
   7 C7            -0.9872    -2.0586    -0.0766 C.ar    
   8 C8             0.2436    -2.7079    -0.1095 C.ar    
   9 C9             0.2790    -4.0856    -0.2312 C.ar    
  10 N10           -0.8313    -4.7867    -0.3161 N.ar    
  11 C11           -2.0273    -4.2092    -0.2889 C.ar    
  12 C12           -2.1443    -2.8285    -0.1685 C.ar    
  13 C13           -3.2475    -5.0433    -0.3878 C.2     
  14 N14           -3.1411    -6.3818    -0.5047 N.am    
  15 O15           -1.0582    -0.7088     0.0475 O.3     
  16 C16           -4.2861    -7.1753    -0.4918 C.ar    
  17 O17           -4.3443    -4.5208    -0.3635 O.2     
  18 C18           -4.1642    -8.5598    -0.4955 C.ar    
  19 C19           -5.3096    -9.3372    -0.4826 C.ar    
  20 C20           -6.5421    -8.7003    -0.4664 C.ar    
  21 C21           -6.5897    -7.3182    -0.4636 C.ar    
  22 N22           -5.4802    -6.6033    -0.4707 N.ar    
  23 Cl23          -8.1278    -6.5135    -0.4434 Cl      
  24 H24            0.5519    -0.1039    -1.9618 H       
  25 H25           -0.0331     0.2496     2.2621 H       
  26 H26            3.3438     1.9381     0.5399 H       
  27 H27            2.6660     1.1762    -1.7000 H       
  28 H28            1.1611    -2.1423    -0.0409 H       
  29 H29            1.2320    -4.5931    -0.2575 H       
  30 H30           -3.1174    -2.3606    -0.1466 H       
  31 H31           -2.2674    -6.7926    -0.5977 H       
  32 H32           -3.1888    -9.0231    -0.5086 H       
  33 H33           -5.2452   -10.4152    -0.4854 H       
  34 H34           -7.4547    -9.2778    -0.4564 H       
@<TRIPOS>BOND
   1    1    2 ar
   2    1    6 ar
   3    1   24 1
   4    2    3 ar
   5    2   15 1
   6    3    4 ar
   7    3   25 1
   8    4    5 ar
   9    5    6 ar
  10    5   26 1
  11    6   27 1
  12    7    8 ar
  13    7   12 ar
  14    7   15 1
  15    8    9 ar
  16    8   28 1
  17    9   10 ar
  18    9   29 1
  19   10   11 ar
  20   11   12 ar
  21   11   13 1
  22   12   30 1
  23   13   14 am
  24   13   17 2
  25   14   16 1
  26   14   31 1
  27   16   18 ar
  28   16   22 ar
  29   18   19 ar
  30   18   32 1
  31   19   20 ar
  32   19   33 1
  33   20   21 ar
  34   20   34 1
  35   21   22 ar
  36   21   23 1

#	End of record

