#	Name: ASD01910058
#	Creating user name:	WinNT
#	Creation time:	15. 06. 2019 19:55

#	Modifying user name:	WinNT
#	Modification time:	15. 06. 2019 19:55

#	Program:	/corina/corina34_cracker 3.40 0067  02.08.2006

@<TRIPOS>MOLECULE
ASD01910058
  45   48    0    0    0
SMALL
NO_CHARGES


@<TRIPOS>ATOM
   1 C1            -0.0121     1.4753    -0.1558 C.2     
   2 N2             0.0285     0.1841    -0.4102 N.2     
   3 N3            -1.2864    -0.2948    -0.4691 N.pl3   
   4 C4            -2.1263     0.7530    -0.2412 C.2     
   5 C5            -1.3616     1.8582    -0.0385 C.2     
   6 C6             1.1621     2.3711    -0.0114 C.ar    
   7 C7             2.4516     1.8607    -0.1464 C.ar    
   8 C8             3.5402     2.6984    -0.0111 C.ar    
   9 C9             3.3528     4.0422     0.2580 C.ar    
  10 C10            2.0749     4.5540     0.3935 C.ar    
  11 C11            0.9790     3.7267     0.2540 C.ar    
  12 C12           -1.6703    -1.6186    -0.7189 C.ar    
  13 N13           -3.5186     0.7003    -0.2152 N.am    
  14 C14           -4.2310     1.8193     0.0234 C.2     
  15 C15           -5.7078     1.7633     0.0510 C.ar    
  16 C16           -6.4102     1.2480    -1.0395 C.ar    
  17 C17           -7.7887     1.1987    -1.0073 C.ar    
  18 C18           -8.4746     1.6587     0.1026 C.ar    
  19 C19           -7.7842     2.1708     1.1872 C.ar    
  20 C20           -6.4059     2.2205     1.1703 C.ar    
  21 O21           -3.6590     2.8746     0.2158 O.2     
  22 C22           -0.9323    -2.4034    -1.5952 C.ar    
  23 C23           -1.3134    -3.7083    -1.8394 C.ar    
  24 C24           -2.4285    -4.2333    -1.2124 C.ar    
  25 C25           -3.1654    -3.4543    -0.3393 C.ar    
  26 C26           -2.7862    -2.1506    -0.0865 C.ar    
  27 N27           -5.6691     2.7687     2.3311 N.pl3   
  28 O28           -6.2786     3.2853     3.2505 O.2     
  29 O29           -4.4534     2.7031     2.3671 O.2     
  30 H30           -1.7248     2.8541     0.1681 H       
  31 H31            2.5991     0.8116    -0.3562 H       
  32 H32            4.5401     2.3038    -0.1152 H       
  33 H33            4.2074     4.6941     0.3631 H       
  34 H34            1.9343     5.6039     0.6039 H       
  35 H35           -0.0183     4.1273     0.3599 H       
  36 H36           -3.9750    -0.1417    -0.3687 H       
  37 H37           -5.8759     0.8889    -1.9067 H       
  38 H38           -8.3335     0.8005    -1.8505 H       
  39 H39           -9.5536     1.6182     0.1226 H       
  40 H40           -8.3257     2.5285     2.0504 H       
  41 H41           -0.0615    -1.9938    -2.0854 H       
  42 H42           -0.7401    -4.3191    -2.5211 H       
  43 H43           -2.7247    -5.2539    -1.4054 H       
  44 H44           -4.0361    -3.8672     0.1485 H       
  45 H45           -3.3622    -1.5427     0.5955 H       
@<TRIPOS>BOND
   1    1    2 2
   2    1    6 1
   3    1    5 1
   4    2    3 1
   5    3    4 1
   6    3   12 1
   7    4    5 2
   8    4   13 1
   9    5   30 1
  10    6    7 ar
  11    6   11 ar
  12    7    8 ar
  13    7   31 1
  14    8    9 ar
  15    8   32 1
  16    9   10 ar
  17    9   33 1
  18   10   11 ar
  19   10   34 1
  20   11   35 1
  21   12   22 ar
  22   12   26 ar
  23   13   14 am
  24   13   36 1
  25   14   15 1
  26   14   21 2
  27   15   16 ar
  28   15   20 ar
  29   16   17 ar
  30   16   37 1
  31   17   18 ar
  32   17   38 1
  33   18   19 ar
  34   18   39 1
  35   19   20 ar
  36   19   40 1
  37   20   27 1
  38   22   23 ar
  39   22   41 1
  40   23   24 ar
  41   23   42 1
  42   24   25 ar
  43   24   43 1
  44   25   26 ar
  45   25   44 1
  46   26   45 1
  47   27   28 2
  48   27   29 2

#	End of record

