#	Name: ASD04560207
#	Creating user name:	WinNT
#	Creation time:	15. 06. 2019 20:49

#	Modifying user name:	WinNT
#	Modification time:	15. 06. 2019 20:49

#	Program:	/corina/corina34_cracker 3.40 0067  02.08.2006

@<TRIPOS>MOLECULE
ASD04560207
  33   35    0    0    0
SMALL
NO_CHARGES


@<TRIPOS>ATOM
   1 C1            -0.0189     1.3782     0.0235 C.ar    
   2 C2            -0.0009     0.0002     0.0452 C.ar    
   3 C3             1.2105    -0.6770     0.0565 C.ar    
   4 C4             2.3964     0.0131     0.0462 C.ar    
   5 C5             1.1755     2.0940     0.0129 C.ar    
   6 S6             1.4891     3.8276    -0.0147 S.3     
   7 C7             2.4027     1.4236     0.0241 C.ar    
   8 N8             3.4578     2.2625     0.0119 N.2     
   9 C9             3.2214     3.5282    -0.0092 C.2     
  10 N10            4.1942     4.5141    -0.0250 N.am    
  11 C11            5.4984     4.1741    -0.0190 C.2     
  12 N12            6.4450     5.1333    -0.0343 N.am    
  13 O13            5.8209     3.0020     0.0003 O.2     
  14 C14            7.7974     4.7837     0.0564 C.ar    
  15 C15            8.7173     5.6896     0.5682 C.ar    
  16 C16            8.2206     3.5285    -0.3597 C.ar    
  17 C17            9.5557     3.1859    -0.2691 C.ar    
  18 C18           10.4709     4.0922     0.2362 C.ar    
  19 C19           10.0508     5.3422     0.6566 C.ar    
  20 C20            8.2606     7.0508     1.0261 C.3     
  21 Cl21          -1.4925    -0.8878     0.0589 Cl      
  22 F22            9.3594     7.7771     1.4975 F       
  23 F23            7.6768     7.7323    -0.0472 F       
  24 F24            7.3216     6.9065     2.0531 F       
  25 Cl25          12.1479     3.6582     0.3498 Cl      
  26 H26           -0.9620     1.9043     0.0102 H       
  27 H27            1.2198    -1.7569     0.0738 H       
  28 H28            3.3315    -0.5273     0.0556 H       
  29 H29            3.9369     5.4492    -0.0404 H       
  30 H30            6.1891     6.0661    -0.1083 H       
  31 H31            7.5064     2.8205    -0.7535 H       
  32 H32            9.8854     2.2097    -0.5927 H       
  33 H33           10.7666     6.0463     1.0545 H       
@<TRIPOS>BOND
   1    1    2 ar
   2    1    5 ar
   3    1   26 1
   4    2    3 ar
   5    2   21 1
   6    3    4 ar
   7    3   27 1
   8    4    7 ar
   9    4   28 1
  10    5    7 ar
  11    5    6 1
  12    6    9 1
  13    7    8 1
  14    8    9 2
  15    9   10 1
  16   10   11 am
  17   10   29 1
  18   11   12 am
  19   11   13 2
  20   12   14 1
  21   12   30 1
  22   14   16 ar
  23   14   15 ar
  24   15   19 ar
  25   15   20 1
  26   16   17 ar
  27   16   31 1
  28   17   18 ar
  29   17   32 1
  30   18   19 ar
  31   18   25 1
  32   19   33 1
  33   20   22 1
  34   20   23 1
  35   20   24 1

#	End of record

