#	Name: ASD02508193
#	Creating user name:	WinNT
#	Creation time:	15. 06. 2019 20:23

#	Modifying user name:	WinNT
#	Modification time:	15. 06. 2019 20:23

#	Program:	/corina/corina34_cracker 3.40 0067  02.08.2006

@<TRIPOS>MOLECULE
ASD02508193
  50   53    0    0    0
SMALL
NO_CHARGES


@<TRIPOS>ATOM
   1 C1            -0.0168     1.3904     0.0097 C.ar    
   2 C2             0.0021    -0.0041     0.0020 C.ar    
   3 C3            -1.1922    -0.7077     0.0096 C.ar    
   4 C4            -2.3933    -0.0260     0.0248 C.ar    
   5 C5            -2.4110     1.3580     0.0319 C.ar    
   6 C6            -1.2261     2.0677     0.0299 C.ar    
   7 S7            -3.9102    -0.9224     0.0344 S.o2    
   8 N8            -4.6586    -0.6040     1.4770 N.am    
   9 C9            -5.5868     0.5289     1.6120 C.3     
  10 N10            1.3140     1.8071    -0.0008 N.am    
  11 C11            2.0846     0.7014    -0.0141 C.2     
  12 O12            1.3018    -0.3890    -0.0125 O.3     
  13 O13           -4.7245    -0.3441    -0.9763 O.2     
  14 O14           -3.5621    -2.2999     0.0585 O.2     
  15 C15            1.7879     3.1933     0.0021 C.3     
  16 O16            3.3005     0.6929    -0.0257 O.2     
  17 C17           -6.8916     0.0179     2.2320 C.3     
  18 N18           -6.5909    -0.6912     3.4829 N.3     
  19 C19           -3.7268     2.0925     0.0474 C.3     
  20 C20           -5.7637    -1.8798     3.2360 C.3     
  21 C21           -4.4174    -1.4502     2.6555 C.3     
  22 C22           -7.7586    -1.0282     4.1576 C.ar    
  23 N23           -8.9329    -0.6997     3.6413 N.ar    
  24 C24           -7.6832    -1.7125     5.3662 C.ar    
  25 C25           -8.8531    -2.0416     6.0271 C.ar    
  26 C26          -10.0634    -1.6739     5.4547 C.ar    
  27 C27          -10.0645    -1.0006     4.2493 C.ar    
  28 C28          -11.3629    -2.0119     6.1390 C.3     
  29 F29          -11.7225    -0.9684     6.9985 F       
  30 F30          -12.3635    -2.1901     5.1776 F       
  31 F31          -11.2089    -3.1911     6.8759 F       
  32 H32           -1.1834    -1.7877     0.0034 H       
  33 H33           -1.2417     3.1476     0.0359 H       
  34 H34           -5.1466     1.2878     2.2588 H       
  35 H35           -5.7904     0.9545     0.6294 H       
  36 H36            1.9152     3.5316     1.0305 H       
  37 H37            2.7426     3.2521    -0.5205 H       
  38 H38            1.0584     3.8277    -0.5014 H       
  39 H39           -7.5497     0.8613     2.4412 H       
  40 H40           -7.3824    -0.6632     1.5368 H       
  41 H41           -4.0348     2.2644     1.0788 H       
  42 H42           -3.6149     3.0493    -0.4626 H       
  43 H43           -4.4825     1.4951    -0.4627 H       
  44 H44           -5.6038    -2.4127     4.1733 H       
  45 H45           -6.2702    -2.5345     2.5268 H       
  46 H46           -3.8461    -2.3317     2.3646 H       
  47 H47           -3.8624    -0.8803     3.4007 H       
  48 H48           -6.7244    -1.9835     5.7829 H       
  49 H49           -8.8257    -2.5730     6.9669 H       
  50 H50          -11.0037    -0.7127     3.8005 H       
@<TRIPOS>BOND
   1    1    2 ar
   2    1   10 1
   3    1    6 ar
   4    2    3 ar
   5    2   12 1
   6    3    4 ar
   7    3   32 1
   8    4    5 ar
   9    4    7 1
  10    5    6 ar
  11    5   19 1
  12    6   33 1
  13    7    8 am
  14    7   13 2
  15    7   14 2
  16    8    9 1
  17    8   21 1
  18    9   17 1
  19    9   34 1
  20    9   35 1
  21   10   11 am
  22   10   15 1
  23   11   12 1
  24   11   16 2
  25   15   36 1
  26   15   37 1
  27   15   38 1
  28   17   18 1
  29   17   39 1
  30   17   40 1
  31   18   20 1
  32   18   22 1
  33   19   41 1
  34   19   42 1
  35   19   43 1
  36   20   21 1
  37   20   44 1
  38   20   45 1
  39   21   46 1
  40   21   47 1
  41   22   23 ar
  42   22   24 ar
  43   23   27 ar
  44   24   25 ar
  45   24   48 1
  46   25   26 ar
  47   25   49 1
  48   26   27 ar
  49   26   28 1
  50   27   50 1
  51   28   29 1
  52   28   30 1
  53   28   31 1

#	End of record

