#	Name: ASD06170300
#	Creating user name:	WinNT
#	Creation time:	15. 06. 2019 21:05

#	Modifying user name:	WinNT
#	Modification time:	15. 06. 2019 21:05

#	Program:	/corina/corina34_cracker 3.40 0067  02.08.2006

@<TRIPOS>MOLECULE
ASD06170300
  73   77    0    0    0
SMALL
NO_CHARGES


@<TRIPOS>ATOM
   1 N1             0.0099     0.9717    -0.1520 N.am    
   2 N2             0.2512    -0.3565     0.2118 N.pl3   
   3 C3             1.5731    -0.6105     0.1706 C.2     
   4 C4             2.2288     0.5407    -0.2197 C.2     
   5 C5             1.1911     1.5634    -0.4259 C.2     
   6 C6             3.6764     0.7109    -0.3937 C.2     
   7 O7             4.4280    -0.2237    -0.1873 O.2     
   8 N8             4.1731     1.9021    -0.7819 N.am    
   9 C9            -0.7808    -1.3277     0.5831 C.3     
  10 C10            2.2268    -1.9287     0.4961 C.3     
  11 C11            5.5571     2.1147    -0.7898 C.ar    
  12 C12            6.4233     1.0428    -0.9596 C.ar    
  13 C13            7.7897     1.2537    -0.9677 C.ar    
  14 C14            8.2948     2.5379    -0.8059 C.ar    
  15 C15            7.4286     3.6077    -0.6360 C.ar    
  16 C16            6.0635     3.3983    -0.6335 C.ar    
  17 O17            9.6387     2.7459    -0.8139 O.3     
  18 N18           11.5941     2.4915    -4.4358 N.ar    
  19 C19           12.2980     2.8705    -3.3629 C.ar    
  20 C20           11.6641     2.9709    -2.1004 C.ar    
  21 C21           10.2882     2.6650    -2.0009 C.ar    
  22 C22            9.6239     2.2796    -3.1527 C.ar    
  23 C23           10.3155     2.2054    -4.3544 C.ar    
  24 O24            1.3642     2.7162    -0.7751 O.2     
  25 C25           -1.2460     1.5828    -0.2254 C.ar    
  26 C26           -2.1756     1.3869     0.7876 C.ar    
  27 C27           12.4045     3.3677    -0.9767 C.ar    
  28 C28           13.7283     3.6543    -1.1047 C.ar    
  29 C29           14.3642     3.5590    -2.3464 C.ar    
  30 C30           13.6655     3.1726    -3.4673 C.ar    
  31 C31           16.3572     4.2470    -1.2492 C.3     
  32 O32           15.6868     3.8515    -2.4476 O.3     
  33 C33           -1.3473    -1.9782    -0.6806 C.3     
  34 C34           -2.4251    -2.9925    -0.2928 C.3     
  35 C35           -3.4147     1.9922     0.7123 C.ar    
  36 C36           -3.7303     2.7923    -0.3705 C.ar    
  37 C37           -2.8070     2.9895    -1.3808 C.ar    
  38 C38           -1.5640     2.3917    -1.3087 C.ar    
  39 F39            8.6334     0.2115    -1.1324 F       
  40 O40           -1.9195    -0.9721    -1.5187 O.3     
  41 C41           -2.9034    -3.7319    -1.5440 C.3     
  42 C42           -0.2233    -2.6915    -1.4347 C.3     
  43 H43            3.5718     2.6123    -1.0559 H       
  44 H44           -0.3443    -2.0951     1.2224 H       
  45 H45           -1.5815    -0.8195     1.1203 H       
  46 H46            2.2990    -2.5318    -0.4090 H       
  47 H47            3.2256    -1.7504     0.8945 H       
  48 H48            1.6287    -2.4574     1.2383 H       
  49 H49            6.0299     0.0448    -1.0849 H       
  50 H50            7.8218     4.6056    -0.5100 H       
  51 H51            5.3897     4.2325    -0.5056 H       
  52 H52            8.5719     2.0380    -3.1169 H       
  53 H53            9.7871     1.9036    -5.2467 H       
  54 H54           -1.9300     0.7615     1.6332 H       
  55 H55           11.9246     3.4458    -0.0123 H       
  56 H56           14.2947     3.9594    -0.2372 H       
  57 H57           14.1660     3.1020    -4.4217 H       
  58 H58           15.8880     5.1463    -0.8502 H       
  59 H59           16.2900     3.4453    -0.5137 H       
  60 H60           17.4050     4.4511    -1.4694 H       
  61 H61           -2.0112    -3.7090     0.4167 H       
  62 H62           -3.2660    -2.4719     0.1653 H       
  63 H63           -4.1381     1.8402     1.4997 H       
  64 H64           -4.7002     3.2640    -0.4274 H       
  65 H65           -3.0565     3.6150    -2.2252 H       
  66 H66           -0.8433     2.5461    -2.0981 H       
  67 H67           -2.6402    -0.4782    -1.1044 H       
  68 H68           -2.0624    -4.2526    -2.0021 H       
  69 H69           -3.6712    -4.4545    -1.2677 H       
  70 H70           -3.3172    -3.0154    -2.2535 H       
  71 H71            0.2132    -3.4590    -0.7955 H       
  72 H72           -0.6269    -3.1550    -2.3350 H       
  73 H73            0.5446    -1.9689    -1.7110 H       
@<TRIPOS>BOND
   1    1    2 1
   2    1    5 am
   3    1   25 1
   4    2    3 1
   5    2    9 1
   6    3    4 2
   7    3   10 1
   8    4    5 1
   9    4    6 1
  10    5   24 2
  11    6    7 2
  12    6    8 am
  13    8   11 1
  14    8   43 1
  15    9   33 1
  16    9   44 1
  17    9   45 1
  18   10   46 1
  19   10   47 1
  20   10   48 1
  21   11   12 ar
  22   11   16 ar
  23   12   13 ar
  24   12   49 1
  25   13   14 ar
  26   13   39 1
  27   14   15 ar
  28   14   17 1
  29   15   16 ar
  30   15   50 1
  31   16   51 1
  32   17   21 1
  33   18   19 ar
  34   18   23 ar
  35   19   20 ar
  36   19   30 ar
  37   20   21 ar
  38   20   27 ar
  39   21   22 ar
  40   22   23 ar
  41   22   52 1
  42   23   53 1
  43   25   26 ar
  44   25   38 ar
  45   26   35 ar
  46   26   54 1
  47   27   28 ar
  48   27   55 1
  49   28   29 ar
  50   28   56 1
  51   29   30 ar
  52   29   32 1
  53   30   57 1
  54   31   32 1
  55   31   58 1
  56   31   59 1
  57   31   60 1
  58   33   34 1
  59   33   40 1
  60   33   42 1
  61   34   41 1
  62   34   61 1
  63   34   62 1
  64   35   36 ar
  65   35   63 1
  66   36   37 ar
  67   36   64 1
  68   37   38 ar
  69   37   65 1
  70   38   66 1
  71   40   67 1
  72   41   68 1
  73   41   69 1
  74   41   70 1
  75   42   71 1
  76   42   72 1
  77   42   73 1

#	End of record

