#	Name: ASD00110007
#	Creating user name:	WinNT
#	Creation time:	15. 06. 2019 18:30

#	Modifying user name:	WinNT
#	Modification time:	15. 06. 2019 18:30

#	Program:	/corina/corina34_cracker 3.40 0067  02.08.2006

@<TRIPOS>MOLECULE
ASD00110007
  65   65    0    0    0
SMALL
NO_CHARGES


@<TRIPOS>ATOM
   1 C1             0.0696     1.8953    -0.0759 C.3     
   2 C2            -0.1065     0.3790    -0.1947 C.3     
   3 C3             0.5499    -0.3017     1.0086 C.3     
   4 N4             1.9771     0.0417     1.0485 N.3     
   5 C5             2.1708     1.4884     1.2098 C.3     
   6 C6             1.5628     2.2225     0.0125 C.3     
   7 C7             1.4950     1.9473     2.4762 C.2     
   8 N8             1.4730     3.2575     2.7916 N.am    
   9 C9             0.8160     3.7036     4.0226 C.3     
  10 C10           -0.5313     2.5778    -1.3064 C.3     
  11 O11            0.9710     1.1377     3.2116 O.2     
  12 C12            0.9335     5.2245     4.1411 C.3     
  13 C13            0.2474     5.6904     5.4268 C.3     
  14 O14            0.2548     7.1184     5.4801 O.3     
  15 O15            2.3134     5.5943     4.1766 O.3     
  16 C16           -2.0436     2.3472    -1.3299 C.3     
  17 C17           -2.6445     3.0296    -2.5604 C.3     
  18 C18           -4.1569     2.7990    -2.5839 C.3     
  19 C19           -4.7578     3.4814    -3.8144 C.3     
  20 C20           -6.2701     3.2508    -3.8379 C.3     
  21 C21           -6.8710     3.9332    -5.0684 C.3     
  22 C22           -8.3834     3.7026    -5.0919 C.3     
  23 C23           -8.9843     4.3850    -6.3224 C.3     
  24 C24          -10.4966     4.1544    -6.3459 C.3     
  25 C25          -11.0975     4.8368    -7.5764 C.3     
  26 H26           -0.4352     2.2514     0.8221 H       
  27 H27           -1.1690     0.1365    -0.2151 H       
  28 H28            0.3650     0.0287    -1.1129 H       
  29 H29            0.0687     0.0386     1.9255 H       
  30 H30            0.4388    -1.3824     0.9198 H       
  31 H31            2.4520    -0.4701     1.7768 H       
  32 H32            3.2369     1.7079     1.2672 H       
  33 H33            2.0606     1.9012    -0.9024 H       
  34 H34            1.6930     3.2971     0.1402 H       
  35 H35            1.8921     3.9050     2.2034 H       
  36 H36           -0.2365     3.4215     3.9956 H       
  37 H37            1.2960     3.2341     4.8813 H       
  38 H38           -0.3276     3.6477    -1.2643 H       
  39 H39           -0.0857     2.1583    -2.2084 H       
  40 H40            0.4535     5.6940     3.2824 H       
  41 H41           -0.7818     5.3317     5.4400 H       
  42 H42            0.7821     5.2919     6.2890 H       
  43 H43           -0.1650     7.4847     6.2705 H       
  44 H44            2.8042     5.2117     4.9167 H       
  45 H45           -2.2474     1.2772    -1.3721 H       
  46 H46           -2.4892     2.7666    -0.4279 H       
  47 H47           -2.4408     4.0996    -2.5183 H       
  48 H48           -2.1990     2.6101    -3.4624 H       
  49 H49           -4.3606     1.7290    -2.6261 H       
  50 H50           -4.6024     3.2184    -1.6819 H       
  51 H51           -4.5540     4.5514    -3.7723 H       
  52 H52           -4.3122     3.0619    -4.7164 H       
  53 H53           -6.4739     2.1808    -3.8801 H       
  54 H54           -6.7157     3.6702    -2.9359 H       
  55 H55           -6.6673     5.0032    -5.0263 H       
  56 H56           -6.4254     3.5137    -5.9704 H       
  57 H57           -8.5871     2.6326    -5.1341 H       
  58 H58           -8.8289     4.1220    -4.1899 H       
  59 H59           -8.7805     5.4550    -6.2803 H       
  60 H60           -8.5387     3.9655    -7.2244 H       
  61 H61          -10.7003     3.0844    -6.3881 H       
  62 H62          -10.9422     4.5738    -5.4439 H       
  63 H63          -10.8937     5.9068    -7.5343 H       
  64 H64          -10.6519     4.4174    -8.4784 H       
  65 H65          -12.1749     4.6725    -7.5932 H       
@<TRIPOS>BOND
   1    1    2 1
   2    1    6 1
   3    1   10 1
   4    1   26 1
   5    2    3 1
   6    2   27 1
   7    2   28 1
   8    3    4 1
   9    3   29 1
  10    3   30 1
  11    4    5 1
  12    4   31 1
  13    5    6 1
  14    5    7 1
  15    5   32 1
  16    6   33 1
  17    6   34 1
  18    7    8 am
  19    7   11 2
  20    8    9 1
  21    8   35 1
  22    9   12 1
  23    9   36 1
  24    9   37 1
  25   10   16 1
  26   10   38 1
  27   10   39 1
  28   12   13 1
  29   12   15 1
  30   12   40 1
  31   13   14 1
  32   13   41 1
  33   13   42 1
  34   14   43 1
  35   15   44 1
  36   16   17 1
  37   16   45 1
  38   16   46 1
  39   17   18 1
  40   17   47 1
  41   17   48 1
  42   18   19 1
  43   18   49 1
  44   18   50 1
  45   19   20 1
  46   19   51 1
  47   19   52 1
  48   20   21 1
  49   20   53 1
  50   20   54 1
  51   21   22 1
  52   21   55 1
  53   21   56 1
  54   22   23 1
  55   22   57 1
  56   22   58 1
  57   23   24 1
  58   23   59 1
  59   23   60 1
  60   24   25 1
  61   24   61 1
  62   24   62 1
  63   25   63 1
  64   25   64 1
  65   25   65 1

#	End of record

