#	Name: ASD01911181
#	Creating user name:	WinNT
#	Creation time:	15. 06. 2019 19:57

#	Modifying user name:	WinNT
#	Modification time:	15. 06. 2019 19:57

#	Program:	/corina/corina34_cracker 3.40 0067  02.08.2006

@<TRIPOS>MOLECULE
ASD01911181
  43   45    0    0    0
SMALL
NO_CHARGES


@<TRIPOS>ATOM
   1 C1            -0.0286     1.3988    -0.0224 C.ar    
   2 C2            -0.0026     0.0155    -0.0369 C.ar    
   3 C3            -1.1845    -0.6990    -0.0183 C.ar    
   4 C4            -2.3997    -0.0277     0.0149 C.ar    
   5 C5            -2.4230     1.3611     0.0295 C.ar    
   6 C6            -1.2383     2.0703     0.0161 C.ar    
   7 C7            -1.1554    -2.2056    -0.0347 C.3     
   8 N8            -3.5982    -0.7488     0.0333 N.am    
   9 C9            -4.6595    -0.2747     0.7155 C.2     
  10 C10           -5.9639    -0.9718     0.6340 C.ar    
  11 O11           -4.5462     0.7249     1.3975 O.2     
  12 C12           -7.0569    -0.4769     1.3414 C.ar    
  13 C13           -8.2711    -1.1402     1.2553 C.ar    
  14 C14           -8.3495    -2.2756     0.4644 C.ar    
  15 C15           -7.2211    -2.7116    -0.2120 C.ar    
  16 N16           -6.0828    -2.0601    -0.1169 N.ar    
  17 C17           -1.3028    -2.7030    -1.4741 C.3     
  18 Cl18           1.4588     2.2937    -0.0452 Cl      
  19 C19           -1.2737    -4.2096    -1.4904 C.2     
  20 O20           -1.1475    -4.8249    -0.4532 O.2     
  21 C21           -1.3984    -4.9342    -2.7653 C.ar    
  22 C22           -1.3718    -6.3324    -2.7846 C.ar    
  23 C23           -1.4898    -7.0040    -3.9830 C.ar    
  24 C24           -1.6337    -6.2981    -5.1648 C.ar    
  25 C25           -1.6604    -4.9144    -5.1540 C.ar    
  26 C26           -1.5499    -4.2283    -3.9630 C.ar    
  27 H27            0.9428    -0.5061    -0.0631 H       
  28 H28           -3.3667     1.8856     0.0553 H       
  29 H29           -1.2558     3.1501     0.0274 H       
  30 H30           -0.2078    -2.5552     0.3753 H       
  31 H31           -1.9769    -2.5915     0.5690 H       
  32 H32           -3.6655    -1.5900    -0.4449 H       
  33 H33           -6.9597     0.4109     1.9487 H       
  34 H34           -9.1362    -0.7806     1.7926 H       
  35 H35           -9.2806    -2.8155     0.3764 H       
  36 H36           -7.2786    -3.5960    -0.8292 H       
  37 H37           -2.2504    -2.3534    -1.8840 H       
  38 H38           -0.4813    -2.3171    -2.0777 H       
  39 H39           -1.2589    -6.8845    -1.8633 H       
  40 H40           -1.4694    -8.0837    -3.9996 H       
  41 H41           -1.7252    -6.8299    -6.1003 H       
  42 H42           -1.7727    -4.3706    -6.0804 H       
  43 H43           -1.5709    -3.1486    -3.9562 H       
@<TRIPOS>BOND
   1    1    2 ar
   2    1   18 1
   3    1    6 ar
   4    2    3 ar
   5    2   27 1
   6    3    7 1
   7    3    4 ar
   8    4    5 ar
   9    4    8 1
  10    5    6 ar
  11    5   28 1
  12    6   29 1
  13    7   17 1
  14    7   30 1
  15    7   31 1
  16    8    9 am
  17    8   32 1
  18    9   10 1
  19    9   11 2
  20   10   12 ar
  21   10   16 ar
  22   12   13 ar
  23   12   33 1
  24   13   14 ar
  25   13   34 1
  26   14   15 ar
  27   14   35 1
  28   15   16 ar
  29   15   36 1
  30   17   19 1
  31   17   37 1
  32   17   38 1
  33   19   20 2
  34   19   21 1
  35   21   22 ar
  36   21   26 ar
  37   22   23 ar
  38   22   39 1
  39   23   24 ar
  40   23   40 1
  41   24   25 ar
  42   24   41 1
  43   25   26 ar
  44   25   42 1
  45   26   43 1

#	End of record

