#	Name: ASD01230766
#	Creating user name:	WinNT
#	Creation time:	15. 06. 2019 19:15

#	Modifying user name:	WinNT
#	Modification time:	15. 06. 2019 19:15

#	Program:	/corina/corina34_cracker 3.40 0067  02.08.2006

@<TRIPOS>MOLECULE
ASD01230766
  30   32    0    0    0
SMALL
NO_CHARGES


@<TRIPOS>ATOM
   1 C1            -0.0166     1.3736     0.0096 C.2     
   2 C2             0.0021    -0.0041     0.0020 C.2     
   3 C3            -1.2146    -0.7002     0.0083 C.2     
   4 C4            -2.3849    -0.0394     0.0105 C.2     
   5 N5            -2.4623     1.3312     0.0009 N.pl3   
   6 C6            -1.3175     2.0758     0.0320 C.2     
   7 C7            -3.8098     1.9045    -0.0497 C.3     
   8 C8            -3.8783     3.1902     0.7794 C.3     
   9 S9            -2.6220     4.3262     0.1115 S.o2    
  10 N10           -1.2620     3.3847     0.0817 N.am    
  11 C11            1.2497     2.1409     0.0016 C.ar    
  12 C12            2.0222     2.2303     1.1619 C.ar    
  13 O13           -2.8867     4.6253    -1.2522 O.2     
  14 O14           -2.3214     5.3523     1.0475 O.2     
  15 C15            1.6782     2.7721    -1.1663 C.ar    
  16 C16            2.8604     3.4862    -1.1686 C.ar    
  17 C17            3.6220     3.5760    -0.0117 C.ar    
  18 C18            3.2036     2.9473     1.1489 C.ar    
  19 F19            4.7781     4.2749    -0.0194 F       
  20 F20            3.2765     4.0980    -2.2989 F       
  21 F21            1.6150     1.6173     2.2949 F       
  22 H22            0.9399    -0.5395    -0.0090 H       
  23 H23           -1.2115    -1.7802     0.0110 H       
  24 H24           -3.3019    -0.6099     0.0199 H       
  25 H25           -4.0660     2.1300    -1.0849 H       
  26 H26           -4.5230     1.1821     0.3474 H       
  27 H27           -4.8684     3.6374     0.6903 H       
  28 H28           -3.6619     2.9701     1.8248 H       
  29 H29            1.0868     2.7023    -2.0672 H       
  30 H30            3.7997     3.0202     2.0465 H       
@<TRIPOS>BOND
   1    1    2 2
   2    1   11 1
   3    1    6 1
   4    2    3 1
   5    2   22 1
   6    3    4 2
   7    3   23 1
   8    4    5 1
   9    4   24 1
  10    5    6 1
  11    5    7 1
  12    6   10 2
  13    7    8 1
  14    7   25 1
  15    7   26 1
  16    8    9 1
  17    8   27 1
  18    8   28 1
  19    9   10 am
  20    9   13 2
  21    9   14 2
  22   11   12 ar
  23   11   15 ar
  24   12   21 1
  25   12   18 ar
  26   15   16 ar
  27   15   29 1
  28   16   17 ar
  29   16   20 1
  30   17   18 ar
  31   17   19 1
  32   18   30 1

#	End of record

