#	Name: ASD03240796
#	Creating user name:	WinNT
#	Creation time:	15. 06. 2019 20:35

#	Modifying user name:	WinNT
#	Modification time:	15. 06. 2019 20:35

#	Program:	/corina/corina34_cracker 3.40 0067  02.08.2006

@<TRIPOS>MOLECULE
ASD03240796
  76   83    0    0    0
SMALL
NO_CHARGES


@<TRIPOS>ATOM
   1 N1            -0.0216     1.4829     0.0257 N.3     
   2 C2            -0.0043     0.0146     0.0117 C.3     
   3 C3             0.6995    -0.5007     1.2691 C.3     
   4 C4             2.1297     0.0448     1.3073 C.3     
   5 C5             2.0851     1.5750     1.2723 C.3     
   6 C6             1.3410     2.0301     0.0148 C.3     
   7 C7             2.8086    -0.4103     2.5734 C.2     
   8 O8             2.2087    -1.1030     3.3680 O.2     
   9 N9             4.0825    -0.0476     2.8228 N.am    
  10 C10           -0.8100     2.0108    -1.0957 C.3     
  11 C11           -1.0116     3.4932    -0.9141 C.ar    
  12 C12           -0.0930     4.3831    -1.4417 C.ar    
  13 C13           -0.2723     5.7415    -1.2792 C.ar    
  14 C14           -1.3825     6.2169    -0.5813 C.ar    
  15 C15           -2.3051     5.3146    -0.0517 C.ar    
  16 C16           -2.1175     3.9587    -0.2255 C.ar    
  17 C17            0.2909    11.9264     0.2569 C.2     
  18 N18           -0.9237    12.5037     0.2637 N.2     
  19 C19           -2.0224    11.8103     0.1116 C.2     
  20 C20           -1.9292    10.3635    -0.0723 C.ar    
  21 C21           -0.6517     9.7636    -0.0781 C.ar    
  22 N22            0.4520    10.5775     0.0904 N.pl3   
  23 C23           -3.0676     9.5686    -0.2403 C.ar    
  24 C24           -2.8871     8.1993    -0.4083 C.ar    
  25 C25           -1.5807     7.6736    -0.4028 C.ar    
  26 N26           -0.5257     8.4584    -0.2414 N.ar    
  27 N27            1.8239    10.3009     0.1320 N.2     
  28 C28            2.4761    11.4238     0.3152 C.2     
  29 C29            1.5616    12.4657     0.4044 C.2     
  30 C30           -4.0554     7.3049    -0.5904 C.ar    
  31 C31           -5.1333     7.3738     0.2908 C.ar    
  32 C32           -6.2183     6.5391     0.1161 C.ar    
  33 C33           -6.2373     5.6350    -0.9307 C.ar    
  34 C34           -5.1703     5.5619    -1.8081 C.ar    
  35 C35           -4.0827     6.3959    -1.6469 C.ar    
  36 C36            3.9734    11.5608     0.4178 C.3     
  37 S37            6.8739    -1.4686     7.8365 S.3     
  38 C38            8.2198    -1.6109     6.7972 C.2     
  39 N39            7.9062    -1.3497     5.5846 N.2     
  40 C40            6.6272    -1.0186     5.3230 C.ar    
  41 C41            5.8417    -1.0221     6.4811 C.ar    
  42 C42            6.0185    -0.6879     4.0960 C.ar    
  43 C43            4.6772    -0.3756     4.0483 C.ar    
  44 C44            3.9082    -0.3833     5.2102 C.ar    
  45 C45            4.4868    -0.7046     6.4162 C.ar    
  46 H46           -1.0275    -0.3605    -0.0113 H       
  47 H47            0.5299    -0.3339    -0.8722 H       
  48 H48            0.1579    -0.1641     2.1531 H       
  49 H49            0.7260    -1.5902     1.2507 H       
  50 H50            2.6832    -0.3233     0.4435 H       
  51 H51            1.5652     1.9442     2.1563 H       
  52 H52            3.1014     1.9684     1.2562 H       
  53 H53            1.8690     1.6722    -0.8691 H       
  54 H54            1.2950     3.1189    -0.0060 H       
  55 H55            4.5876     0.4405     2.1539 H       
  56 H56           -0.2798     1.8281    -2.0304 H       
  57 H57           -1.7793     1.5131    -1.1246 H       
  58 H58            0.7663     4.0137    -1.9816 H       
  59 H59            0.4456     6.4352    -1.6912 H       
  60 H60           -3.1665     5.6767     0.4900 H       
  61 H61           -2.8333     3.2593     0.1805 H       
  62 H62           -2.9848    12.3002     0.1216 H       
  63 H63           -4.0560    10.0039    -0.2389 H       
  64 H64            1.7970    13.5084     0.5588 H       
  65 H65           -5.1192     8.0787     1.1088 H       
  66 H66           -7.0540     6.5915     0.7982 H       
  67 H67           -7.0884     4.9835    -1.0634 H       
  68 H68           -5.1905     4.8539    -2.6234 H       
  69 H69           -3.2521     6.3411    -2.3351 H       
  70 H70            4.3919    11.7267    -0.5749 H       
  71 H71            4.2176    12.4061     1.0610 H       
  72 H72            4.3935    10.6486     0.8414 H       
  73 H73            9.2121    -1.8865     7.1223 H       
  74 H74            6.6056    -0.6785     3.1895 H       
  75 H75            2.8576    -0.1374     5.1639 H       
  76 H76            3.8889    -0.7101     7.3156 H       
@<TRIPOS>BOND
   1    1    2 1
   2    1    6 1
   3    1   10 1
   4    2    3 1
   5    2   46 1
   6    2   47 1
   7    3    4 1
   8    3   48 1
   9    3   49 1
  10    4    5 1
  11    4    7 1
  12    4   50 1
  13    5    6 1
  14    5   51 1
  15    5   52 1
  16    6   53 1
  17    6   54 1
  18    7    8 2
  19    7    9 am
  20    9   43 1
  21    9   55 1
  22   10   11 1
  23   10   56 1
  24   10   57 1
  25   11   12 ar
  26   11   16 ar
  27   12   13 ar
  28   12   58 1
  29   13   14 ar
  30   13   59 1
  31   14   15 ar
  32   14   25 1
  33   15   16 ar
  34   15   60 1
  35   16   61 1
  36   17   18 1
  37   17   22 1
  38   17   29 2
  39   18   19 2
  40   19   20 1
  41   19   62 1
  42   20   21 ar
  43   20   23 ar
  44   21   22 1
  45   21   26 ar
  46   22   27 1
  47   23   24 ar
  48   23   63 1
  49   24   25 ar
  50   24   30 1
  51   25   26 ar
  52   27   28 2
  53   28   29 1
  54   28   36 1
  55   29   64 1
  56   30   31 ar
  57   30   35 ar
  58   31   32 ar
  59   31   65 1
  60   32   33 ar
  61   32   66 1
  62   33   34 ar
  63   33   67 1
  64   34   35 ar
  65   34   68 1
  66   35   69 1
  67   36   70 1
  68   36   71 1
  69   36   72 1
  70   37   38 1
  71   37   41 1
  72   38   39 2
  73   38   73 1
  74   39   40 1
  75   40   41 ar
  76   40   42 ar
  77   41   45 ar
  78   42   43 ar
  79   42   74 1
  80   43   44 ar
  81   44   45 ar
  82   44   75 1
  83   45   76 1

#	End of record

