#	Name: ASD01140637
#	Creating user name:	WinNT
#	Creation time:	15. 06. 2019 19:01

#	Modifying user name:	WinNT
#	Modification time:	15. 06. 2019 19:01

#	Program:	/corina/corina34_cracker 3.40 0067  02.08.2006

@<TRIPOS>MOLECULE
ASD01140637
  35   37    0    0    0
SMALL
NO_CHARGES


@<TRIPOS>ATOM
   1 C1            -0.0006     1.3395    -0.1885 C.2     
   2 C2             0.0225    -0.0191    -0.1308 C.2     
   3 C3             1.2493    -0.6890     0.0219 C.2     
   4 C4             2.4012     0.0118     0.1111 C.2     
   5 C5             1.2095     2.0568    -0.0940 C.2     
   6 N6             1.4768     3.3546    -0.1200 N.2     
   7 N7             2.3907     1.3771     0.0549 N.pl3   
   8 C8             3.3885     2.3088     0.1189 C.2     
   9 C9             2.8009     3.5330     0.0078 C.2     
  10 C10            3.5043     4.8397     0.0255 C.ar    
  11 C11            4.7012     4.9982    -0.6702 C.ar    
  12 C12            5.3529     6.2145    -0.6517 C.ar    
  13 C13            4.8195     7.2781     0.0570 C.ar    
  14 C14            3.6282     7.1258     0.7514 C.ar    
  15 C15            2.9667     5.9126     0.7331 C.ar    
  16 C16            4.8614     2.0338     0.2807 C.3     
  17 N17            5.4532     1.7560    -1.0304 N.am    
  18 C18            6.7686     1.4806    -1.1312 C.2     
  19 C19            7.3773     1.1948    -2.4799 C.3     
  20 O20            7.4625     1.4627    -0.1367 O.2     
  21 F21            1.2765    -2.0385     0.0801 F       
  22 F22            5.4613     8.4668     0.0726 F       
  23 F23            3.1115     8.1660     1.4415 F       
  24 H24           -0.9369     1.8639    -0.3100 H       
  25 H25           -0.8972    -0.5808    -0.2015 H       
  26 H26            3.3385    -0.5118     0.2282 H       
  27 H27            5.1187     4.1697    -1.2231 H       
  28 H28            6.2808     6.3370    -1.1907 H       
  29 H29            2.0367     5.7953     1.2696 H       
  30 H30            5.3473     2.9043     0.7215 H       
  31 H31            5.0005     1.1712     0.9323 H       
  32 H32            4.8982     1.7703    -1.8258 H       
  33 H33            7.7243     2.1265    -2.9267 H       
  34 H34            8.2195     0.5130    -2.3613 H       
  35 H35            6.6286     0.7381    -3.1271 H       
@<TRIPOS>BOND
   1    1    2 2
   2    1    5 1
   3    1   24 1
   4    2    3 1
   5    2   25 1
   6    3    4 2
   7    3   21 1
   8    4    7 1
   9    4   26 1
  10    5    7 1
  11    5    6 2
  12    6    9 1
  13    7    8 1
  14    8    9 2
  15    8   16 1
  16    9   10 1
  17   10   11 ar
  18   10   15 ar
  19   11   12 ar
  20   11   27 1
  21   12   13 ar
  22   12   28 1
  23   13   14 ar
  24   13   22 1
  25   14   15 ar
  26   14   23 1
  27   15   29 1
  28   16   17 1
  29   16   30 1
  30   16   31 1
  31   17   18 am
  32   17   32 1
  33   18   19 1
  34   18   20 2
  35   19   33 1
  36   19   34 1
  37   19   35 1

#	End of record

