#	Name: ASD01811221
#	Creating user name:	WinNT
#	Creation time:	15. 06. 2019 19:26

#	Modifying user name:	WinNT
#	Modification time:	15. 06. 2019 19:26

#	Program:	/corina/corina34_cracker 3.40 0067  02.08.2006

@<TRIPOS>MOLECULE
ASD01811221
  58   61    0    0    0
SMALL
NO_CHARGES


@<TRIPOS>ATOM
   1 C1            -7.2209     1.8212    -3.5886 C.1     
   2 C2            -6.2587     2.6470    -2.9231 C.ar    
   3 C3            -5.1232     2.0750    -2.3459 C.ar    
   4 C4            -4.2004     2.8764    -1.7063 C.ar    
   5 C5            -4.3982     4.2440    -1.6357 C.ar    
   6 C6            -5.5213     4.8174    -2.2051 C.ar    
   7 C7            -6.4488     4.0286    -2.8536 C.ar    
   8 N8            -7.9842     1.1661    -4.1166 N.1     
   9 N9            -2.3686     7.5862    -0.0138 N.am    
  10 C10           -1.7670     6.9944    -1.2165 C.3     
  11 C11           -2.8205     6.1356    -1.9232 C.3     
  12 C12           -3.3859     5.1130    -0.9349 C.3     
  13 C13           -4.0598     5.8440     0.2286 C.3     
  14 C14           -3.0204     6.6994     0.9597 C.3     
  15 C15           -2.3186     8.9167     0.1954 C.2     
  16 C16           -2.9927     9.5060     1.3721 C.ar    
  17 C17           -3.9383    10.5208     1.2019 C.ar    
  18 C18           -4.5695    11.0732     2.2989 C.ar    
  19 C19           -4.2723    10.6285     3.5713 C.ar    
  20 C20           -3.3272     9.6133     3.7574 C.ar    
  21 C21           -2.6906     9.0470     2.6514 C.ar    
  22 O22           -1.7195     9.6323    -0.5834 O.2     
  23 C23           -4.2698    11.0140    -0.1829 C.3     
  24 C24           -4.9664    11.2375     4.7623 C.3     
  25 C25           -4.7947    12.7624     4.8620 C.3     
  26 C26           -6.2685    12.8209     5.2972 C.3     
  27 C27           -6.4644    11.5000     4.5345 C.3     
  28 C28           -3.0098     9.1400     5.1144 C.2     
  29 O29           -3.6413     9.5527     6.0636 O.2     
  30 C30           -1.8999     8.1424     5.3240 C.3     
  31 Br31          -1.7439     7.7286     7.2397 Br      
  32 H32           -4.9680     1.0075    -2.3997 H       
  33 H33           -3.3217     2.4353    -1.2594 H       
  34 H34           -5.6697     5.8855    -2.1460 H       
  35 H35           -7.3226     4.4779    -3.3018 H       
  36 H36           -1.4329     7.7871    -1.8858 H       
  37 H37           -0.9188     6.3717    -0.9321 H       
  38 H38           -3.6259     6.7738    -2.2868 H       
  39 H39           -2.3613     5.6144    -2.7631 H       
  40 H40           -2.5762     4.4913    -0.5527 H       
  41 H41           -4.8535     6.4849    -0.1553 H       
  42 H42           -4.4826     5.1152     0.9201 H       
  43 H43           -2.2743     6.0527     1.4215 H       
  44 H44           -3.5132     7.2976     1.7261 H       
  45 H45           -5.2991    11.8574     2.1606 H       
  46 H46           -1.9640     8.2596     2.7878 H       
  47 H47           -5.0285    10.3692    -0.6264 H       
  48 H48           -4.6492    12.0342    -0.1241 H       
  49 H49           -3.3715    10.9955    -0.8000 H       
  50 H50           -4.7503    10.7120     5.6925 H       
  51 H51           -4.0972    13.0733     5.6397 H       
  52 H52           -4.6032    13.2439     3.9031 H       
  53 H53           -6.4098    12.7284     6.3740 H       
  54 H54           -6.8177    13.6587     4.8676 H       
  55 H55           -6.7293    11.6363     3.4860 H       
  56 H56           -7.1148    10.7917     5.0479 H       
  57 H57           -2.1230     7.2293     4.7721 H       
  58 H58           -0.9606     8.5633     4.9655 H       
@<TRIPOS>BOND
   1    1    2 1
   2    1    8 3
   3    2    3 ar
   4    2    7 ar
   5    3    4 ar
   6    3   32 1
   7    4    5 ar
   8    4   33 1
   9    5    6 ar
  10    5   12 1
  11    6    7 ar
  12    6   34 1
  13    7   35 1
  14    9   10 1
  15    9   14 1
  16    9   15 am
  17   10   11 1
  18   10   36 1
  19   10   37 1
  20   11   12 1
  21   11   38 1
  22   11   39 1
  23   12   13 1
  24   12   40 1
  25   13   14 1
  26   13   41 1
  27   13   42 1
  28   14   43 1
  29   14   44 1
  30   15   16 1
  31   15   22 2
  32   16   17 ar
  33   16   21 ar
  34   17   18 ar
  35   17   23 1
  36   18   19 ar
  37   18   45 1
  38   19   20 ar
  39   19   24 1
  40   20   21 ar
  41   20   28 1
  42   21   46 1
  43   23   47 1
  44   23   48 1
  45   23   49 1
  46   24   25 1
  47   24   27 1
  48   24   50 1
  49   25   26 1
  50   25   51 1
  51   25   52 1
  52   26   27 1
  53   26   53 1
  54   26   54 1
  55   27   55 1
  56   27   56 1
  57   28   29 2
  58   28   30 1
  59   30   31 1
  60   30   57 1
  61   30   58 1

#	End of record

