#	Name: ASD01914114
#	Creating user name:	WinNT
#	Creation time:	15. 06. 2019 20:02

#	Modifying user name:	WinNT
#	Modification time:	15. 06. 2019 20:02

#	Program:	/corina/corina34_cracker 3.40 0067  02.08.2006

@<TRIPOS>MOLECULE
ASD01914114
  45   46    0    0    0
SMALL
NO_CHARGES


@<TRIPOS>ATOM
   1 C1            -0.0158     1.3136     0.0093 C.ar    
   2 N2             0.0021    -0.0041     0.0020 N.ar    
   3 C3             2.3404     0.0462    -0.0201 C.ar    
   4 C4             2.2778     1.4357    -0.0120 C.ar    
   5 O5             3.5373    -0.5977    -0.0355 O.3     
   6 C6             1.1465    -0.6674    -0.0125 C.ar    
   7 N7             1.0936     2.0250     0.0025 N.ar    
   8 C8             3.5055    -2.0263    -0.0429 C.3     
   9 C9             4.9147    -2.5601    -0.0598 C.ar    
  10 N10            5.1144    -3.8641    -0.0688 N.ar    
  11 C11            6.3251    -4.3822    -0.0836 C.ar    
  12 C12            7.4500    -3.5569    -0.0899 C.ar    
  13 C13            7.2701    -2.1683    -0.0807 C.ar    
  14 C14            5.9776    -1.6746    -0.0713 C.ar    
  15 C15            8.8090    -4.1387    -0.1056 C.2     
  16 N16            8.9691    -5.4769    -0.1139 N.am    
  17 C17           10.3159    -6.0534    -0.1295 C.3     
  18 O18            9.7820    -3.4101    -0.1110 O.2     
  19 C19           10.2759    -7.4590     0.4734 C.3     
  20 C20            9.7710    -7.3813     1.9156 C.3     
  21 C21           10.8207    -6.1311    -1.5717 C.3     
  22 C22            9.3343    -8.3404    -0.3498 C.3     
  23 C23           11.6823    -8.0611     0.4571 C.3     
  24 H24           -0.9669     1.8253     0.0165 H       
  25 H25            3.1830     2.0249    -0.0171 H       
  26 H26            1.1537    -1.7474    -0.0180 H       
  27 H27            2.9925    -2.3829     0.8503 H       
  28 H28            2.9748    -2.3733    -0.9295 H       
  29 H29            6.4482    -5.4551    -0.0906 H       
  30 H30            8.1184    -1.4998    -0.0851 H       
  31 H31            5.8005    -0.6093    -0.0640 H       
  32 H32            8.1927    -6.0583    -0.1097 H       
  33 H33           10.9867    -5.4255     0.4569 H       
  34 H34            8.7690    -6.9523     1.9271 H       
  35 H35            9.7425    -8.3827     2.3450 H       
  36 H36           10.4418    -6.7534     2.5020 H       
  37 H37           10.1499    -6.7590    -2.1581 H       
  38 H38           10.8492    -5.1297    -2.0012 H       
  39 H39           11.8227    -6.5601    -1.5832 H       
  40 H40            9.6940    -8.3958    -1.3772 H       
  41 H41            9.3058    -9.3418     0.0797 H       
  42 H42            8.3323    -7.9114    -0.3382 H       
  43 H43           12.3531    -7.4333     1.0435 H       
  44 H44           11.6538    -9.0626     0.8866 H       
  45 H45           12.0420    -8.1165    -0.5703 H       
@<TRIPOS>BOND
   1    1    2 ar
   2    1    7 ar
   3    1   24 1
   4    2    6 ar
   5    3    4 ar
   6    3    5 1
   7    3    6 ar
   8    4    7 ar
   9    4   25 1
  10    5    8 1
  11    6   26 1
  12    8    9 1
  13    8   27 1
  14    8   28 1
  15    9   10 ar
  16    9   14 ar
  17   10   11 ar
  18   11   12 ar
  19   11   29 1
  20   12   13 ar
  21   12   15 1
  22   13   14 ar
  23   13   30 1
  24   14   31 1
  25   15   16 am
  26   15   18 2
  27   16   17 1
  28   16   32 1
  29   17   19 1
  30   17   21 1
  31   17   33 1
  32   19   22 1
  33   19   23 1
  34   19   20 1
  35   20   34 1
  36   20   35 1
  37   20   36 1
  38   21   37 1
  39   21   38 1
  40   21   39 1
  41   22   40 1
  42   22   41 1
  43   22   42 1
  44   23   43 1
  45   23   44 1
  46   23   45 1

#	End of record

