#	Name: ASD01910417
#	Creating user name:	WinNT
#	Creation time:	15. 06. 2019 19:55

#	Modifying user name:	WinNT
#	Modification time:	15. 06. 2019 19:55

#	Program:	/corina/corina34_cracker 3.40 0067  02.08.2006

@<TRIPOS>MOLECULE
ASD01910417
  44   46    0    0    0
SMALL
NO_CHARGES


@<TRIPOS>ATOM
   1 C1            -0.3744     1.4024     0.9173 C.ar    
   2 C2            -0.4134     0.1439     0.3470 C.ar    
   3 C3             0.7612    -0.5371     0.0892 C.ar    
   4 C4             1.9818     0.0433     0.4033 C.ar    
   5 C5             2.0188     1.3097     0.9771 C.ar    
   6 C6             0.8397     1.9853     1.2322 C.ar    
   7 N7             3.1739    -0.6448     0.1436 N.am    
   8 C8             3.2081    -1.9895     0.2283 C.2     
   9 O9             4.3250    -2.6577    -0.1167 O.3     
  10 O10            2.2309    -2.5988     0.6162 O.2     
  11 C11            4.7561    -4.5163     1.3998 C.3     
  12 C12            4.2901    -4.1046    -0.0002 C.3     
  13 C13            5.2203    -4.7238    -1.0458 C.3     
  14 C14            5.1592    -6.2497    -0.9457 C.3     
  15 C15            5.6351    -6.6857     0.4437 C.3     
  16 N16            4.8392    -5.9820     1.4586 N.am    
  17 C17            4.1972    -6.6680     2.4248 C.2     
  18 O18            3.6099    -6.0711     3.3062 O.2     
  19 C19            4.2071    -8.1451     2.4130 C.ar    
  20 C20            5.4006    -8.8362     2.1931 C.ar    
  21 C21            5.4042   -10.2145     2.1830 C.ar    
  22 C22            4.2257   -10.9149     2.3906 C.ar    
  23 C23            3.0378   -10.2338     2.6089 C.ar    
  24 C24            3.0241    -8.8556     2.6272 C.ar    
  25 F25            4.2347   -12.2658     2.3797 F       
  26 F26            3.2048     1.8788     1.2847 F       
  27 H27           -1.2941     1.9337     1.1133 H       
  28 H28           -1.3633    -0.3082     0.1027 H       
  29 H29            0.7291    -1.5205    -0.3561 H       
  30 H30            0.8668     2.9689     1.6774 H       
  31 H31            3.9749    -0.1535    -0.0973 H       
  32 H32            5.7377    -4.0863     1.5993 H       
  33 H33            4.0414    -4.1607     2.1421 H       
  34 H34            3.2722    -4.4587    -0.1636 H       
  35 H35            4.9056    -4.4124    -2.0418 H       
  36 H36            6.2420    -4.3888    -0.8668 H       
  37 H37            4.1332    -6.5836    -1.1001 H       
  38 H38            5.8041    -6.6903    -1.7060 H       
  39 H39            5.5005    -7.7616     0.5551 H       
  40 H40            6.6884    -6.4327     0.5652 H       
  41 H41            6.3190    -8.2916     2.0309 H       
  42 H42            6.3266   -10.7498     2.0127 H       
  43 H43            2.1226   -10.7841     2.7697 H       
  44 H44            2.0984    -8.3260     2.7977 H       
@<TRIPOS>BOND
   1    1    2 ar
   2    1    6 ar
   3    1   27 1
   4    2    3 ar
   5    2   28 1
   6    3    4 ar
   7    3   29 1
   8    4    5 ar
   9    4    7 1
  10    5    6 ar
  11    5   26 1
  12    6   30 1
  13    7    8 am
  14    7   31 1
  15    8    9 1
  16    8   10 2
  17    9   12 1
  18   11   12 1
  19   11   16 1
  20   11   32 1
  21   11   33 1
  22   12   13 1
  23   12   34 1
  24   13   14 1
  25   13   35 1
  26   13   36 1
  27   14   15 1
  28   14   37 1
  29   14   38 1
  30   15   16 1
  31   15   39 1
  32   15   40 1
  33   16   17 am
  34   17   18 2
  35   17   19 1
  36   19   20 ar
  37   19   24 ar
  38   20   21 ar
  39   20   41 1
  40   21   22 ar
  41   21   42 1
  42   22   23 ar
  43   22   25 1
  44   23   24 ar
  45   23   43 1
  46   24   44 1

#	End of record

