#	Name: ASD01913782
#	Creating user name:	WinNT
#	Creation time:	15. 06. 2019 20:02

#	Modifying user name:	WinNT
#	Modification time:	15. 06. 2019 20:02

#	Program:	/corina/corina34_cracker 3.40 0067  02.08.2006

@<TRIPOS>MOLECULE
ASD01913782
  44   46    0    0    0
SMALL
NO_CHARGES


@<TRIPOS>ATOM
   1 C1            -0.0063     1.3622     0.1897 C.ar    
   2 C2            -0.0012     0.0013    -0.0608 C.ar    
   3 C3             1.1895    -0.6594    -0.3070 C.ar    
   4 C4             2.3809     0.0354    -0.3047 C.ar    
   5 C5             2.3836     1.4100    -0.0530 C.ar    
   6 C6             1.1772     2.0703     0.1952 C.ar    
   7 C7             3.6166     2.1382    -0.0485 C.1     
   8 C8             4.6274     2.7352    -0.0448 C.1     
   9 C9             5.8604     3.4634    -0.0403 C.ar    
  10 C10            5.8715     4.8436     0.2116 C.ar    
  11 C11            8.2483     4.7810    -0.0487 C.ar    
  12 N12            8.2060     3.4770    -0.2773 N.ar    
  13 C13            7.0708     2.8096    -0.2809 C.ar    
  14 C14            7.0850     5.5015     0.2052 C.ar    
  15 N15            9.4756     5.4396    -0.0561 N.am    
  16 C16            9.6468     6.7686    -0.0560 C.2     
  17 O17           10.9293     7.1489    -0.0632 O.3     
  18 C18           11.7855     5.9701    -0.0693 C.3     
  19 C19           10.7951     4.7897    -0.0589 C.3     
  20 O20            8.7217     7.5563    -0.0498 O.2     
  21 C21           12.6488     5.9407    -1.3321 C.3     
  22 C22           13.5531     7.1746    -1.3606 C.3     
  23 C23           13.5108     4.6766    -1.3314 C.3     
  24 C24           11.7459     5.9415    -2.5673 C.3     
  25 H25           -0.9398     1.8720     0.3770 H       
  26 H26           -0.9311    -0.5480    -0.0638 H       
  27 H27            1.1859    -1.7218    -0.5010 H       
  28 H28            3.3095    -0.4816    -0.4967 H       
  29 H29            1.1717     3.1325     0.3902 H       
  30 H30            4.9532     5.3781     0.4053 H       
  31 H31            7.0759     1.7465    -0.4713 H       
  32 H32            7.1311     6.5637     0.3947 H       
  33 H33           12.4112     5.9476     0.8230 H       
  34 H34           10.9309     4.1838     0.8370 H       
  35 H35           10.9150     4.1814    -0.9555 H       
  36 H36           14.1963     7.1740    -0.4806 H       
  37 H37           14.1681     7.1536    -2.2602 H       
  38 H38           12.9390     8.0751    -1.3611 H       
  39 H39           12.8666     3.7976    -1.3111 H       
  40 H40           14.1258     4.6557    -2.2310 H       
  41 H41           14.1541     4.6760    -0.4514 H       
  42 H42           11.1318     6.8421    -2.5678 H       
  43 H43           12.3609     5.9206    -3.4670 H       
  44 H44           11.1017     5.0625    -2.5470 H       
@<TRIPOS>BOND
   1    1    2 ar
   2    1    6 ar
   3    1   25 1
   4    2    3 ar
   5    2   26 1
   6    3    4 ar
   7    3   27 1
   8    4    5 ar
   9    4   28 1
  10    5    6 ar
  11    5    7 1
  12    6   29 1
  13    7    8 3
  14    8    9 1
  15    9   10 ar
  16    9   13 ar
  17   10   14 ar
  18   10   30 1
  19   11   12 ar
  20   11   15 1
  21   11   14 ar
  22   12   13 ar
  23   13   31 1
  24   14   32 1
  25   15   16 am
  26   15   19 1
  27   16   17 1
  28   16   20 2
  29   17   18 1
  30   18   19 1
  31   18   21 1
  32   18   33 1
  33   19   34 1
  34   19   35 1
  35   21   22 1
  36   21   23 1
  37   21   24 1
  38   22   36 1
  39   22   37 1
  40   22   38 1
  41   23   39 1
  42   23   40 1
  43   23   41 1
  44   24   42 1
  45   24   43 1
  46   24   44 1

#	End of record

