#	Name: ASD01915109
#	Creating user name:	WinNT
#	Creation time:	15. 06. 2019 20:04

#	Modifying user name:	WinNT
#	Modification time:	15. 06. 2019 20:04

#	Program:	/corina/corina34_cracker 3.40 0067  02.08.2006

@<TRIPOS>MOLECULE
ASD01915109
  47   49    0    0    0
SMALL
NO_CHARGES


@<TRIPOS>ATOM
   1 C1            -0.0179     1.4721     0.0101 C.2     
   2 C2             0.0021    -0.0041     0.0020 C.ar    
   3 C3             1.2223    -0.6862    -0.0133 C.ar    
   4 C4             1.2416    -2.0518    -0.0208 C.ar    
   5 C5             0.0396    -2.7682    -0.0127 C.ar    
   6 C6            -1.1814    -2.0848     0.0031 C.ar    
   7 C7            -1.1992    -0.7192     0.0155 C.ar    
   8 O8             1.0266     2.0942     0.0035 O.2     
   9 N9            -1.1942     2.1300     0.0193 N.am    
  10 C10           -1.2140     3.5948     0.0273 C.3     
  11 C11           -2.6633     4.0852     0.0369 C.3     
  12 C12           -3.3480     3.6783    -1.2695 C.3     
  13 C13           -2.6849     5.5862     0.1690 C.ar    
  14 C14           -3.3172     6.1761     1.2474 C.ar    
  15 C15           -3.3371     7.5530     1.3686 C.ar    
  16 C16           -2.7242     8.3400     0.4115 C.ar    
  17 C17           -2.0911     7.7500    -0.6665 C.ar    
  18 C18           -2.0675     6.3730    -0.7853 C.ar    
  19 C19            0.0590    -4.2000    -0.0211 C.1     
  20 C20            0.0749    -5.3739    -0.0279 C.1     
  21 C21            0.0943    -6.8057    -0.0363 C.ar    
  22 C22           -1.1044    -7.5244    -0.0282 C.ar    
  23 C23           -1.0778    -8.9032    -0.0363 C.ar    
  24 C24            0.1319    -9.5753    -0.0519 C.ar    
  25 C25            1.3228    -8.8705    -0.0594 C.ar    
  26 C26            1.3120    -7.4914    -0.0583 C.ar    
  27 H27            2.1500    -0.1332    -0.0195 H       
  28 H28            2.1843    -2.5786    -0.0334 H       
  29 H29           -2.1095    -2.6371     0.0093 H       
  30 H30           -2.1414    -0.1916     0.0318 H       
  31 H31           -2.0275     1.6336     0.0205 H       
  32 H32           -0.7010     3.9603     0.9169 H       
  33 H33           -0.7094     3.9700    -0.8630 H       
  34 H34           -3.1924     3.6387     0.8788 H       
  35 H35           -3.3324     2.5926    -1.3650 H       
  36 H36           -4.3805     4.0276    -1.2627 H       
  37 H37           -2.8189     4.1248    -2.1114 H       
  38 H38           -3.7960     5.5613     1.9952 H       
  39 H39           -3.8317     8.0139     2.2108 H       
  40 H40           -2.7403     9.4157     0.5058 H       
  41 H41           -1.6126     8.3649    -1.4144 H       
  42 H42           -1.5697     5.9120    -1.6256 H       
  43 H43           -2.0492    -7.0012    -0.0153 H       
  44 H44           -2.0032    -9.4599    -0.0301 H       
  45 H45            0.1465   -10.6551    -0.0578 H       
  46 H46            2.2630    -9.4018    -0.0712 H       
  47 H47            2.2422    -6.9427    -0.0694 H       
@<TRIPOS>BOND
   1    1    2 1
   2    1    8 2
   3    1    9 am
   4    2    3 ar
   5    2    7 ar
   6    3    4 ar
   7    3   27 1
   8    4    5 ar
   9    4   28 1
  10    5    6 ar
  11    5   19 1
  12    6    7 ar
  13    6   29 1
  14    7   30 1
  15    9   10 1
  16    9   31 1
  17   10   11 1
  18   10   32 1
  19   10   33 1
  20   11   12 1
  21   11   13 1
  22   11   34 1
  23   12   35 1
  24   12   36 1
  25   12   37 1
  26   13   14 ar
  27   13   18 ar
  28   14   15 ar
  29   14   38 1
  30   15   16 ar
  31   15   39 1
  32   16   17 ar
  33   16   40 1
  34   17   18 ar
  35   17   41 1
  36   18   42 1
  37   19   20 3
  38   20   21 1
  39   21   22 ar
  40   21   26 ar
  41   22   23 ar
  42   22   43 1
  43   23   24 ar
  44   23   44 1
  45   24   25 ar
  46   24   45 1
  47   25   26 ar
  48   25   46 1
  49   26   47 1

#	End of record

