#	Name: ASD02038772
#	Creating user name:	WinNT
#	Creation time:	15. 06. 2019 20:17

#	Modifying user name:	WinNT
#	Modification time:	15. 06. 2019 20:17

#	Program:	/corina/corina34_cracker 3.40 0067  02.08.2006

@<TRIPOS>MOLECULE
ASD02038772
  42   44    0    0    0
SMALL
NO_CHARGES


@<TRIPOS>ATOM
   1 C1            -1.2847    -0.8282     0.4556 C.2     
   2 C2            -0.0542    -0.0230     0.3004 C.2     
   3 N3             1.1377    -0.6350     0.1543 N.am    
   4 C4             1.2277    -2.0944     0.2451 C.3     
   5 C5             1.1988    -2.6867    -1.1403 C.ar    
   6 C6             2.3432     0.1591    -0.0952 C.3     
   7 O7            -0.1176     1.1909     0.3046 O.2     
   8 N8            -1.3541    -2.1717     0.4786 N.2     
   9 C9            -2.6134    -2.4931     0.6324 C.2     
  10 N10           -3.3199    -1.3498     0.7042 N.pl3   
  11 N11           -2.5040    -0.3578     0.6013 N.2     
  12 C12            2.3813    -3.0171    -1.7754 C.ar    
  13 C13           -0.0104    -2.9046    -1.7735 C.ar    
  14 C14           -0.0378    -3.4488    -3.0442 C.ar    
  15 C15            1.1439    -3.7751    -3.6821 C.ar    
  16 C16            2.3546    -3.5611    -3.0470 C.ar    
  17 C17            2.1445     1.0109    -1.3527 C.3     
  18 C18            3.3770     1.8948    -1.5609 C.3     
  19 O19            3.5807     2.7064    -0.4025 O.3     
  20 C20            3.8190     1.9644     0.7953 C.3     
  21 C21            2.6042     1.0833     1.0982 C.3     
  22 Cl22           3.8395    -3.9702    -3.8479 Cl      
  23 C23           -4.7713    -1.2500     0.8763 C.3     
  24 H24            2.1592    -2.3710     0.7391 H       
  25 H25            0.3842    -2.4754     0.8208 H       
  26 H26            3.1953    -0.5059    -0.2362 H       
  27 H27           -3.0133    -3.4946     0.6908 H       
  28 H28            3.3259    -2.8502    -1.2791 H       
  29 H29           -0.9342    -2.6501    -1.2752 H       
  30 H30           -0.9829    -3.6192    -3.5383 H       
  31 H31            1.1224    -4.2008    -4.6744 H       
  32 H32            2.0131     0.3597    -2.2168 H       
  33 H33            1.2620     1.6392    -1.2314 H       
  34 H34            4.2523     1.2657    -1.7225 H       
  35 H35            3.2231     2.5341    -2.4302 H       
  36 H36            4.7001     1.3362     0.6645 H       
  37 H37            3.9835     2.6538     1.6233 H       
  38 H38            1.7310     1.7130     1.2690 H       
  39 H39            2.8016     0.4837     1.9868 H       
  40 H40           -5.0095    -1.2141     1.9393 H       
  41 H41           -5.1331    -0.3430     0.3920 H       
  42 H42           -5.2512    -2.1187     0.4255 H       
@<TRIPOS>BOND
   1    1    2 1
   2    1    8 1
   3    1   11 2
   4    2    3 am
   5    2    7 2
   6    3    4 1
   7    3    6 1
   8    4    5 1
   9    4   24 1
  10    4   25 1
  11    5   12 ar
  12    5   13 ar
  13    6   17 1
  14    6   21 1
  15    6   26 1
  16    8    9 2
  17    9   10 1
  18    9   27 1
  19   10   11 1
  20   10   23 1
  21   12   16 ar
  22   12   28 1
  23   13   14 ar
  24   13   29 1
  25   14   15 ar
  26   14   30 1
  27   15   16 ar
  28   15   31 1
  29   16   22 1
  30   17   18 1
  31   17   32 1
  32   17   33 1
  33   18   19 1
  34   18   34 1
  35   18   35 1
  36   19   20 1
  37   20   21 1
  38   20   36 1
  39   20   37 1
  40   21   38 1
  41   21   39 1
  42   23   40 1
  43   23   41 1
  44   23   42 1

#	End of record

