#	Name: ASD01940105
#	Creating user name:	WinNT
#	Creation time:	15. 06. 2019 20:11

#	Modifying user name:	WinNT
#	Modification time:	15. 06. 2019 20:11

#	Program:	/corina/corina34_cracker 3.40 0067  02.08.2006

@<TRIPOS>MOLECULE
ASD01940105
  32   33    0    0    0
SMALL
NO_CHARGES


@<TRIPOS>ATOM
   1 Br1            2.7884    -4.3936    -1.5692 Br      
   2 F2             1.9014     1.6020     2.2881 F       
   3 C3             1.0632     2.1527     1.3830 C.ar    
   4 C4             1.3885     2.1341     0.0332 C.ar    
   5 C5             0.5204     2.7036    -0.8969 C.ar    
   6 C6            -0.6637     3.2861    -0.4704 C.ar    
   7 C7            -0.9824     3.3017     0.8750 C.ar    
   8 C8            -0.1247     2.7316     1.8002 C.ar    
   9 N9             2.5867     1.5446    -0.3929 N.pl3   
  10 N10            0.8438     2.6881    -2.2603 N.am    
  11 C11            2.6336     0.1742    -0.6642 C.ar    
  12 C12            1.4782    -0.5916    -0.5806 C.ar    
  13 C13            1.5274    -1.9457    -0.8499 C.ar    
  14 C14            2.7261    -2.5396    -1.2022 C.ar    
  15 C15            3.8798    -1.7799    -1.2861 C.ar    
  16 C16            3.8361    -0.4241    -1.0241 C.ar    
  17 Cl17           5.2835     0.5286    -1.1296 Cl      
  18 F18           -0.4437     2.7447     3.1129 F       
  19 S19            0.4278     3.9684    -3.2246 S.o2    
  20 O20            0.9937     3.6530    -4.4894 O.2     
  21 O21           -0.9786     4.0882    -3.0606 O.2     
  22 C22            1.2784     5.3887    -2.4831 C.3     
  23 Cl23           3.0570     5.0932    -2.4870 Cl      
  24 Cl24           0.9138     6.8735    -3.4387 Cl      
  25 H25           -1.3373     3.7281    -1.1896 H       
  26 H26           -1.9052     3.7560     1.2046 H       
  27 H27            3.3834     2.0876    -0.4993 H       
  28 H28            1.3114     1.9273    -2.6392 H       
  29 H29            0.5420    -0.1290    -0.3050 H       
  30 H30            0.6289    -2.5414    -0.7849 H       
  31 H31            4.8142    -2.2465    -1.5611 H       
  32 H32            0.9346     5.5232    -1.4575 H       
@<TRIPOS>BOND
   1    1   14 1
   2    2    3 1
   3    3    4 ar
   4    3    8 ar
   5    4    5 ar
   6    4    9 1
   7    5    6 ar
   8    5   10 1
   9    6    7 ar
  10    6   25 1
  11    7    8 ar
  12    7   26 1
  13    8   18 1
  14    9   11 1
  15    9   27 1
  16   10   19 am
  17   10   28 1
  18   11   12 ar
  19   11   16 ar
  20   12   13 ar
  21   12   29 1
  22   13   14 ar
  23   13   30 1
  24   14   15 ar
  25   15   16 ar
  26   15   31 1
  27   16   17 1
  28   19   20 2
  29   19   21 2
  30   19   22 1
  31   22   23 1
  32   22   24 1
  33   22   32 1

#	End of record

