#	Name: ASD08710066
#	Creating user name:	WinNT
#	Creation time:	15. 06. 2019 21:19

#	Modifying user name:	WinNT
#	Modification time:	15. 06. 2019 21:19

#	Program:	/corina/corina34_cracker 3.40 0067  02.08.2006

@<TRIPOS>MOLECULE
ASD08710066
  58   60    0    0    0
SMALL
NO_CHARGES


@<TRIPOS>ATOM
   1 N1            -0.1510     1.5094    -0.3559 N.am    
   2 C2            -0.0293     0.0484    -0.4580 C.3     
   3 C3             0.2381    -0.3200    -1.9226 C.3     
   4 N4             1.3352     0.5189    -2.4251 N.am    
   5 C5             1.2135     1.9800    -2.3230 C.3     
   6 C6             0.9461     2.3484    -0.8584 C.3     
   7 S7             2.6846    -0.1698    -3.0938 S.o2    
   8 O8             3.7290     0.7849    -2.9633 O.2     
   9 O9             2.7656    -1.4871    -2.5673 O.2     
  10 C10            2.3809    -0.3420    -4.8208 C.ar    
  11 C11            2.7237     0.6796    -5.6871 C.ar    
  12 C12            2.4867     0.5470    -7.0416 C.ar    
  13 C13            1.9041    -0.6125    -7.5324 C.ar    
  14 C14            1.5610    -1.6361    -6.6611 C.ar    
  15 C15            1.8053    -1.5009    -5.3082 C.ar    
  16 O16            1.6694    -0.7451    -8.8644 O.3     
  17 C17            1.0669    -1.9660    -9.2986 C.3     
  18 F18           -0.1791    -2.1167    -8.6805 F       
  19 F19            0.8980    -1.9348   -10.6870 F       
  20 F20            1.8919    -3.0418    -8.9532 F       
  21 C21           -1.3301    -0.6090     0.0076 C.3     
  22 C22           -1.2514     2.0701     0.1837 C.2     
  23 O23           -2.2017     1.3747     0.4867 O.2     
  24 C24           -0.1324     4.2487     0.6486 C.ar    
  25 C25           -1.3030     3.5276     0.4067 C.ar    
  26 C26           -2.5292     4.2090     0.3783 C.ar    
  27 C27           -2.5299     5.5614     0.5899 C.ar    
  28 C28           -1.3231     6.2172     0.8256 C.ar    
  29 N29           -0.1774     5.5494     0.8472 N.ar    
  30 N30           -1.3200     7.5852     1.0396 N.3     
  31 C31            0.0499     8.0812     1.2683 C.3     
  32 C32           -0.3000     9.2889     0.3875 C.3     
  33 C33           -1.3128     8.3202    -0.2389 C.3     
  34 H34            0.7990    -0.2939     0.1624 H       
  35 H35            0.5206    -1.3706    -1.9898 H       
  36 H36           -0.6596    -0.1414    -2.5145 H       
  37 H37            2.1402     2.4483    -2.6547 H       
  38 H38            0.3853     2.3223    -2.9434 H       
  39 H39            0.6636     3.3990    -0.7912 H       
  40 H40            1.8438     2.1698    -0.2665 H       
  41 H41            3.1769     1.5822    -5.3045 H       
  42 H42            2.7543     1.3454    -7.7178 H       
  43 H43            1.1073    -2.5397    -7.0407 H       
  44 H44            1.5428    -2.2994    -4.6300 H       
  45 H45           -2.1587    -0.2450    -0.5998 H       
  46 H46           -1.2490    -1.6907    -0.0992 H       
  47 H47           -1.5091    -0.3595     1.0534 H       
  48 H48            0.8171     3.7349     0.6773 H       
  49 H49           -3.4516     3.6785     0.1932 H       
  50 H50           -3.4571     6.1151     0.5741 H       
  51 H51            0.2486     8.3445     2.3072 H       
  52 H52            0.8208     7.4405     0.8403 H       
  53 H53           -0.7529    10.1197     0.9287 H       
  54 H54            0.4995     9.5962    -0.2866 H       
  55 H55           -0.9055     7.7432    -1.0692 H       
  56 H56           -2.2690     8.7860    -0.4775 H       
  57 Cl57           8.7290    15.1197     7.3072 Cl      
  58 H58            8.7290    16.4897     7.3072 H       
@<TRIPOS>BOND
   1    1    2 1
   2    1    6 1
   3    1   22 am
   4    2    3 1
   5    2   21 1
   6    2   34 1
   7    3    4 1
   8    3   35 1
   9    3   36 1
  10    4    5 1
  11    4    7 am
  12    5    6 1
  13    5   37 1
  14    5   38 1
  15    6   39 1
  16    6   40 1
  17    7    8 2
  18    7    9 2
  19    7   10 1
  20   10   11 ar
  21   10   15 ar
  22   11   12 ar
  23   11   41 1
  24   12   13 ar
  25   12   42 1
  26   13   14 ar
  27   13   16 1
  28   14   15 ar
  29   14   43 1
  30   15   44 1
  31   16   17 1
  32   17   18 1
  33   17   19 1
  34   17   20 1
  35   21   45 1
  36   21   46 1
  37   21   47 1
  38   22   23 2
  39   22   25 1
  40   24   25 ar
  41   24   29 ar
  42   24   48 1
  43   25   26 ar
  44   26   27 ar
  45   26   49 1
  46   27   28 ar
  47   27   50 1
  48   28   29 ar
  49   28   30 1
  50   30   31 1
  51   30   33 1
  52   31   32 1
  53   31   51 1
  54   31   52 1
  55   32   33 1
  56   32   53 1
  57   32   54 1
  58   33   55 1
  59   33   56 1
  60   57   58 1

#	End of record

