#	Name: ASD09740462
#	Creating user name:	WinNT
#	Creation time:	15. 06. 2019 21:23

#	Modifying user name:	WinNT
#	Modification time:	15. 06. 2019 21:23

#	Program:	/corina/corina34_cracker 3.40 0067  02.08.2006

@<TRIPOS>MOLECULE
ASD09740462
  78   82    0    0    0
SMALL
NO_CHARGES


@<TRIPOS>ATOM
   1 N1            -0.0881     1.3324    -0.0174 N.2     
   2 C2            -0.1188     0.0237    -0.0593 C.2     
   3 C3             1.0833     1.8984     0.0655 C.2     
   4 S4             2.3288     0.6531     0.0969 S.3     
   5 C5             1.0838    -0.5899    -0.0109 C.2     
   6 C6             1.3277     3.3544     0.1232 C.ar    
   7 C7             0.2556     4.2423     0.0902 C.ar    
   8 C8             2.6356     3.8408     0.2166 C.ar    
   9 C9             2.8693     5.1976     0.2711 C.ar    
  10 C10            1.8085     6.0918     0.2337 C.ar    
  11 C11            0.4922     5.6152     0.1449 C.ar    
  12 O12            2.0444     7.4267     0.2882 O.3     
  13 C13            3.3956     7.8384     0.5043 C.3     
  14 C14            4.1356     7.8824    -0.8341 C.3     
  15 C15            3.4092     9.2298     1.1405 C.3     
  16 C16           -0.6043     6.5355     0.1061 C.1     
  17 N17           -1.4741     7.2656     0.0753 N.1     
  18 C18            1.3152    -2.0492    -0.0421 C.ar    
  19 C19            2.2439    -2.5919    -0.9357 C.ar    
  20 C20            2.4555    -3.9546    -0.9595 C.ar    
  21 C21            1.7475    -4.7799    -0.0989 C.ar    
  22 C22            0.8278    -4.2486     0.7854 C.ar    
  23 C23            0.6119    -2.8864     0.8238 C.ar    
  24 C24            3.1293    -1.9167    -1.9608 C.3     
  25 C25            4.2142    -2.9590    -2.3059 C.3     
  26 C26            3.4987    -4.2927    -2.0033 C.3     
  27 N27            2.8571    -4.8115    -3.2138 N.am    
  28 S28            3.3803    -6.2325    -3.8841 S.o2    
  29 O29            2.5617    -6.4001    -5.0336 O.2     
  30 O30            4.7865    -6.0667    -4.0040 O.2     
  31 C31            2.9918    -7.4913    -2.6371 C.3     
  32 C32            3.5421    -8.8451    -3.0903 C.3     
  33 N33            3.2275    -9.8645    -2.0804 N.3     
  34 C34            3.5265   -11.2119    -2.5818 C.3     
  35 C35            3.0529   -12.2528    -1.5649 C.3     
  36 C36            3.7641   -12.0153    -0.2298 C.3     
  37 C37            3.4758   -10.5889     0.2464 C.3     
  38 C38            3.9371    -9.5962    -0.8231 C.3     
  39 C39            3.2499   -13.0147     0.8083 C.3     
  40 C40            4.0359   -12.8619     2.0850 C.2     
  41 O41            3.7573   -13.6409     3.1420 O.3     
  42 O42            4.9170   -12.0382     2.1572 O.2     
  43 H43           -1.0444    -0.5286    -0.1277 H       
  44 H44           -0.7555     3.8688     0.0222 H       
  45 H45            3.4655     3.1504     0.2465 H       
  46 H46            3.8817     5.5666     0.3436 H       
  47 H47            3.8894     7.1299     1.1693 H       
  48 H48            5.1663     8.1965    -0.6693 H       
  49 H49            4.1259     6.8911    -1.2874 H       
  50 H50            3.6418     8.5909    -1.4992 H       
  51 H51            2.8820     9.1984     2.0940 H       
  52 H52            4.4399     9.5438     1.3054 H       
  53 H53            2.9154     9.9383     0.4754 H       
  54 H54            1.9159    -5.8465    -0.1202 H       
  55 H55            0.2812    -4.9001     1.4512 H       
  56 H56           -0.1067    -2.4708     1.5147 H       
  57 H57            2.5525    -1.6625    -2.8501 H       
  58 H58            3.5853    -1.0223    -1.5363 H       
  59 H59            4.4901    -2.8973    -3.3586 H       
  60 H60            5.0885    -2.8345    -1.6670 H       
  61 H61            4.2071    -5.0208    -1.6080 H       
  62 H62            2.1259    -4.3226    -3.6227 H       
  63 H63            3.4473    -7.2138    -1.6865 H       
  64 H64            1.9108    -7.5608    -2.5154 H       
  65 H65            3.0865    -9.1226    -4.0409 H       
  66 H66            4.6230    -8.7756    -3.2120 H       
  67 H67            3.0114   -11.3694    -3.5294 H       
  68 H68            4.6014   -11.3134    -2.7317 H       
  69 H69            1.9759   -12.1610    -1.4248 H       
  70 H70            3.2891   -13.2522    -1.9302 H       
  71 H71            4.8383   -12.1453    -0.3611 H       
  72 H72            2.4053   -10.4709     0.4149 H       
  73 H73            4.0140   -10.3995     1.1751 H       
  74 H74            5.0100    -9.7052    -0.9812 H       
  75 H75            3.7201    -8.5802    -0.4933 H       
  76 H76            2.1952   -12.8231     1.0058 H       
  77 H77            3.3698   -14.0287     0.4270 H       
  78 H78            4.2883   -13.5062     3.9388 H       
@<TRIPOS>BOND
   1    1    2 1
   2    1    3 2
   3    2    5 2
   4    2   43 1
   5    3    4 1
   6    3    6 1
   7    4    5 1
   8    5   18 1
   9    6    7 ar
  10    6    8 ar
  11    7   11 ar
  12    7   44 1
  13    8    9 ar
  14    8   45 1
  15    9   10 ar
  16    9   46 1
  17   10   11 ar
  18   10   12 1
  19   11   16 1
  20   12   13 1
  21   13   14 1
  22   13   15 1
  23   13   47 1
  24   14   48 1
  25   14   49 1
  26   14   50 1
  27   15   51 1
  28   15   52 1
  29   15   53 1
  30   16   17 3
  31   18   19 ar
  32   18   23 ar
  33   19   20 ar
  34   19   24 1
  35   20   21 ar
  36   20   26 1
  37   21   22 ar
  38   21   54 1
  39   22   23 ar
  40   22   55 1
  41   23   56 1
  42   24   25 1
  43   24   57 1
  44   24   58 1
  45   25   26 1
  46   25   59 1
  47   25   60 1
  48   26   27 1
  49   26   61 1
  50   27   28 am
  51   27   62 1
  52   28   29 2
  53   28   30 2
  54   28   31 1
  55   31   32 1
  56   31   63 1
  57   31   64 1
  58   32   33 1
  59   32   65 1
  60   32   66 1
  61   33   34 1
  62   33   38 1
  63   34   35 1
  64   34   67 1
  65   34   68 1
  66   35   36 1
  67   35   69 1
  68   35   70 1
  69   36   37 1
  70   36   39 1
  71   36   71 1
  72   37   38 1
  73   37   72 1
  74   37   73 1
  75   38   74 1
  76   38   75 1
  77   39   40 1
  78   39   76 1
  79   39   77 1
  80   40   41 1
  81   40   42 2
  82   41   78 1

#	End of record

