#	Name: ASD05842012
#	Creating user name:	WinNT
#	Creation time:	15. 06. 2019 21:03

#	Modifying user name:	WinNT
#	Modification time:	15. 06. 2019 21:03

#	Program:	/corina/corina34_cracker 3.40 0067  02.08.2006

@<TRIPOS>MOLECULE
ASD05842012
  46   48    0    0    0
SMALL
NO_CHARGES


@<TRIPOS>ATOM
   1 C1             0.0379     1.7895    -0.0082 C.ar    
   2 C2             0.2067     0.4261    -0.1590 C.ar    
   3 C3            -0.8972    -0.4021    -0.2426 C.ar    
   4 C4            -2.1696     0.1334    -0.1750 C.ar    
   5 C5            -2.3385     1.4972    -0.0232 C.ar    
   6 C6            -1.2348     2.3246     0.0647 C.ar    
   7 C7             1.2412     2.6922     0.0828 C.3     
   8 N8             1.6230     3.1367    -1.2643 N.3     
   9 C9             2.7953     4.0206    -1.2145 C.3     
  10 C10            3.1620     4.4617    -2.6328 C.3     
  11 C11            4.3646     5.3685    -2.5818 C.ar    
  12 C12            5.6368     4.8347    -2.6674 C.ar    
  13 C13            6.7399     5.6664    -2.6205 C.ar    
  14 C14            6.5708     7.0320    -2.4884 C.ar    
  15 C15            5.2985     7.5659    -2.4037 C.ar    
  16 C16            4.1953     6.7345    -2.4550 C.ar    
  17 C17           -3.7258     2.0812     0.0501 C.3     
  18 C18           -4.4136     1.9104    -1.2799 C.ar    
  19 Cl19          -4.6696     1.2295     1.3286 Cl      
  20 C20           -4.7142     3.0183    -2.0499 C.ar    
  21 C21           -5.3452     2.8616    -3.2698 C.ar    
  22 C22           -5.6752     1.5970    -3.7199 C.ar    
  23 C23           -5.3738     0.4889    -2.9503 C.ar    
  24 C24           -4.7389     0.6453    -1.7323 C.ar    
  25 H25            1.2009     0.0076    -0.2119 H       
  26 H26           -0.7653    -1.4674    -0.3612 H       
  27 H27           -3.0320    -0.5134    -0.2410 H       
  28 H28           -1.3667     3.3900     0.1833 H       
  29 H29            0.9989     3.5598     0.6966 H       
  30 H30            2.0705     2.1478     0.5345 H       
  31 H31            1.7902     2.3482    -1.8713 H       
  32 H32            2.5638     4.8973    -0.6097 H       
  33 H33            3.6353     3.4853    -0.7718 H       
  34 H34            3.3935     3.5849    -3.2376 H       
  35 H35            2.3219     4.9969    -3.0755 H       
  36 H36            5.7690     3.7678    -2.7705 H       
  37 H37            7.7339     5.2493    -2.6866 H       
  38 H38            7.4326     7.6818    -2.4510 H       
  39 H39            5.1664     8.6328    -2.3002 H       
  40 H40            3.2013     7.1516    -2.3888 H       
  41 H41           -3.6611     3.1420     0.2921 H       
  42 H42           -4.4563     4.0064    -1.6983 H       
  43 H43           -5.5806     3.7273    -3.8711 H       
  44 H44           -6.1688     1.4746    -4.6727 H       
  45 H45           -5.6319    -0.4991    -3.3018 H       
  46 H46           -4.5034    -0.2204    -1.1310 H       
@<TRIPOS>BOND
   1    1    2 ar
   2    1    7 1
   3    1    6 ar
   4    2    3 ar
   5    2   25 1
   6    3    4 ar
   7    3   26 1
   8    4    5 ar
   9    4   27 1
  10    5    6 ar
  11    5   17 1
  12    6   28 1
  13    7    8 1
  14    7   29 1
  15    7   30 1
  16    8    9 1
  17    8   31 1
  18    9   10 1
  19    9   32 1
  20    9   33 1
  21   10   11 1
  22   10   34 1
  23   10   35 1
  24   11   12 ar
  25   11   16 ar
  26   12   13 ar
  27   12   36 1
  28   13   14 ar
  29   13   37 1
  30   14   15 ar
  31   14   38 1
  32   15   16 ar
  33   15   39 1
  34   16   40 1
  35   17   18 1
  36   17   19 1
  37   17   41 1
  38   18   20 ar
  39   18   24 ar
  40   20   21 ar
  41   20   42 1
  42   21   22 ar
  43   21   43 1
  44   22   23 ar
  45   22   44 1
  46   23   24 ar
  47   23   45 1
  48   24   46 1

#	End of record

