#	Name: ASD03320140
#	Creating user name:	WinNT
#	Creation time:	15. 06. 2019 20:36

#	Modifying user name:	WinNT
#	Modification time:	15. 06. 2019 20:36

#	Program:	/corina/corina34_cracker 3.40 0067  02.08.2006

@<TRIPOS>MOLECULE
ASD03320140
  46   48    0    0    0
SMALL
NO_CHARGES


@<TRIPOS>ATOM
   1 N1            -0.0153     1.2803     0.0091 N.pl3   
   2 N2             0.0021    -0.0041     0.0020 N.2     
   3 C3             1.2312    -0.4538    -0.0121 C.2     
   4 C4             2.0897     0.6477    -0.0144 C.2     
   5 C5             1.2639     1.7563    -0.0006 C.2     
   6 O6             3.0471     3.7785    -0.0067 O.3     
   7 B7             1.7086     3.2620     0.0033 Du      
   8 O8             0.8656     4.4228     0.0170 O.3     
   9 C9             1.5131     5.3551    -0.8741 C.3     
  10 C10            2.9921     4.9183    -0.8903 C.3     
  11 C11            3.8861     6.0435    -0.3651 C.3     
  12 C12            3.4141     4.5169    -2.3051 C.3     
  13 C13            0.9125     5.2556    -2.2778 C.3     
  14 C14            1.3845     6.7822    -0.3378 C.3     
  15 C15           -1.2240     2.1081     0.0195 C.3     
  16 C16           -1.8635     2.0954    -1.3714 C.3     
  17 C17           -3.1581     2.9134    -1.3370 C.3     
  18 C18           -4.0866     2.3345    -0.2650 C.3     
  19 C19           -3.3612     2.3379     1.0831 C.3     
  20 O20           -2.1511     1.5858     0.9734 O.3     
  21 C21            1.6462    -1.9025    -0.0234 C.3     
  22 H22            3.1696     0.6360    -0.0248 H       
  23 H23            4.9196     5.6993    -0.3283 H       
  24 H24            3.8134     6.9050    -1.0289 H       
  25 H25            3.5620     6.3278     0.6360 H       
  26 H26            2.7577     3.7266    -2.6695 H       
  27 H27            3.3425     5.3817    -2.9647 H       
  28 H28            4.4426     4.1564    -2.2890 H       
  29 H29           -0.1463     5.5116    -2.2390 H       
  30 H30            1.4292     5.9467    -2.9439 H       
  31 H31            1.0268     4.2378    -2.6507 H       
  32 H32            1.8310     6.8389     0.6549 H       
  33 H33            1.9001     7.4701    -1.0080 H       
  34 H34            0.3307     7.0544    -0.2783 H       
  35 H35           -0.9617     3.1310     0.2897 H       
  36 H36           -1.1745     2.5342    -2.0931 H       
  37 H37           -2.0889     1.0686    -1.6593 H       
  38 H38           -2.9273     3.9515    -1.0976 H       
  39 H39           -3.6476     2.8624    -2.3096 H       
  40 H40           -4.9874     2.9442    -0.1955 H       
  41 H41           -4.3569     1.3125    -0.5306 H       
  42 H42           -3.1271     3.3638     1.3673 H       
  43 H43           -4.0016     1.8876     1.8416 H       
  44 H44            1.7367    -2.2465    -1.0538 H       
  45 H45            2.6065    -2.0093     0.4810 H       
  46 H46            0.8955    -2.4995     0.4943 H       
@<TRIPOS>BOND
   1    1    2 1
   2    1    5 1
   3    1   15 1
   4    2    3 2
   5    3    4 1
   6    3   21 1
   7    4    5 2
   8    4   22 1
   9    5    7 1
  10    6    7 1
  11    6   10 1
  12    7    8 1
  13    8    9 1
  14    9   10 1
  15    9   13 1
  16    9   14 1
  17   10   11 1
  18   10   12 1
  19   11   23 1
  20   11   24 1
  21   11   25 1
  22   12   26 1
  23   12   27 1
  24   12   28 1
  25   13   29 1
  26   13   30 1
  27   13   31 1
  28   14   32 1
  29   14   33 1
  30   14   34 1
  31   15   16 1
  32   15   20 1
  33   15   35 1
  34   16   17 1
  35   16   36 1
  36   16   37 1
  37   17   18 1
  38   17   38 1
  39   17   39 1
  40   18   19 1
  41   18   40 1
  42   18   41 1
  43   19   20 1
  44   19   42 1
  45   19   43 1
  46   21   44 1
  47   21   45 1
  48   21   46 1

#	End of record

