#	Name: ASD09900031
#	Creating user name:	WinNT
#	Creation time:	15. 06. 2019 21:24

#	Modifying user name:	WinNT
#	Modification time:	15. 06. 2019 21:24

#	Program:	/corina/corina34_cracker 3.40 0067  02.08.2006

@<TRIPOS>MOLECULE
ASD09900031
  29   30    0    0    0
SMALL
NO_CHARGES


@<TRIPOS>ATOM
   1 C1            -0.0179     1.4716     0.0101 C.ar    
   2 C2             0.0021    -0.0041     0.0020 C.2     
   3 O3            -1.0425    -0.6263     0.0086 O.2     
   4 N4             1.1783    -0.6620    -0.0127 N.am    
   5 C5             1.1981    -2.1268    -0.0208 C.3     
   6 C6             1.0656    -2.6308    -1.4593 C.3     
   7 C7             2.5180    -2.6223     0.5736 C.3     
   8 C8             1.1887     2.1855     0.0024 C.ar    
   9 C9             1.1832     3.5478     0.0098 C.ar    
  10 C10           -0.0314     4.2413     0.0247 C.ar    
  11 C11           -1.2506     3.5344     0.0321 C.ar    
  12 C12           -1.2358     2.1481     0.0196 C.ar    
  13 C13           -0.3880     5.6597     0.0356 C.2     
  14 C14           -1.7307     5.7282     0.0483 C.2     
  15 N15           -2.2623     4.4703     0.0463 N.pl3   
  16 H16            2.0116    -0.1656    -0.0180 H       
  17 H17            0.3670    -2.5048     0.5746 H       
  18 H18            1.0804    -3.7207    -1.4653 H       
  19 H19            0.1253    -2.2778    -1.8828 H       
  20 H20            1.8967    -2.2529    -2.0547 H       
  21 H21            2.6124    -2.2632     1.5984 H       
  22 H22            2.5328    -3.7121     0.5676 H       
  23 H23            3.3492    -2.2443    -0.0218 H       
  24 H24            2.1279     1.6524    -0.0090 H       
  25 H25            2.1161     4.0919     0.0046 H       
  26 H26           -2.1637     1.5954     0.0214 H       
  27 H27            0.2976     6.4942     0.0344 H       
  28 H28           -2.3044     6.6433     0.0581 H       
  29 H29           -3.2105     4.2659     0.0542 H       
@<TRIPOS>BOND
   1    1    2 1
   2    1    8 ar
   3    1   12 ar
   4    2    3 2
   5    2    4 am
   6    4    5 1
   7    4   16 1
   8    5    6 1
   9    5    7 1
  10    5   17 1
  11    6   18 1
  12    6   19 1
  13    6   20 1
  14    7   21 1
  15    7   22 1
  16    7   23 1
  17    8    9 ar
  18    8   24 1
  19    9   10 ar
  20    9   25 1
  21   10   13 1
  22   10   11 ar
  23   11   12 ar
  24   11   15 1
  25   12   26 1
  26   13   14 2
  27   13   27 1
  28   14   15 1
  29   14   28 1
  30   15   29 1

#	End of record

