#	Name: ASD00843229
#	Creating user name:	WinNT
#	Creation time:	15. 06. 2019 18:46

#	Modifying user name:	WinNT
#	Modification time:	15. 06. 2019 18:46

#	Program:	/corina/corina34_cracker 3.40 0067  02.08.2006

@<TRIPOS>MOLECULE
ASD00843229
  86   91    0    0    0
SMALL
NO_CHARGES


@<TRIPOS>ATOM
   1 N1             1.0001     1.1646    -0.3305 N.ar    
   2 C2             1.1625    -0.1218    -0.5906 C.ar    
   3 C3             1.0318    -1.0696     0.4166 C.ar    
   4 C4             0.7287    -0.6506     1.7001 C.ar    
   5 C5             0.5662     0.7086     1.9319 C.ar    
   6 C6             0.7107     1.5945     0.8831 C.ar    
   7 C7             1.2172    -2.5345     0.1154 C.3     
   8 C8             0.8814    -3.3725     1.3307 C.2     
   9 C9             0.3526    -2.9488    -1.0769 C.3     
  10 C10           -1.0824    -2.5728    -0.8116 C.2     
  11 N11           -2.0480    -2.9486    -1.6735 N.am    
  12 O12           -1.3684    -1.9320     0.1776 O.2     
  13 C13           -3.4364    -2.4972    -1.4954 C.3     
  14 C14           -3.9276    -1.9001    -2.8184 C.3     
  15 N15           -3.7254    -2.8762    -3.8975 N.3     
  16 C16           -2.2992    -3.1720    -4.0881 C.3     
  17 C17           -1.7400    -3.8162    -2.8206 C.3     
  18 C18           -4.3386    -2.4120    -5.1490 C.3     
  19 C19           -4.0023    -3.3908    -6.2775 C.3     
  20 C20           -4.6937    -2.9351    -7.5644 C.3     
  21 N21           -6.1458    -2.8867    -7.3508 N.3     
  22 C22           -6.4965    -1.9183    -6.3040 C.3     
  23 C23           -5.8589    -2.3437    -4.9794 C.3     
  24 C24           -6.8525    -2.5870    -8.6033 C.3     
  25 O25           -0.1932    -3.4320     1.8900 O.2     
  26 N26            1.9974    -4.0375     1.6735 N.am    
  27 C27            2.6733    -2.8402    -0.1511 C.ar    
  28 C28            3.0670    -3.7478     0.8246 C.ar    
  29 C29            3.5613    -2.4021    -1.1074 C.ar    
  30 C30            4.8657    -2.8671    -1.1040 C.ar    
  31 C31            5.2710    -3.7726    -0.1363 C.ar    
  32 C32            4.3800    -4.2126     0.8238 C.ar    
  33 Cl33           5.9892    -2.3182    -2.3082 Cl      
  34 F34            6.5432    -4.2272    -0.1316 F       
  35 C35            1.6729    -6.6838     2.3563 C.ar    
  36 C36            2.6595    -7.5193     1.8670 C.ar    
  37 C37            0.3574    -7.1079     2.3806 C.ar    
  38 C38            0.0286    -8.3674     1.9157 C.ar    
  39 C39            1.0151    -9.2028     1.4260 C.ar    
  40 C40            2.3306    -8.7787     1.4016 C.ar    
  41 H41            0.7581   -10.1869     1.0627 H       
  42 H42            3.6873    -7.1880     1.8480 H       
  43 C43           -8.3556    -2.7891    -8.4016 C.3     
  44 O44            1.4590    -0.5198    -1.8533 O.3     
  45 C45            1.5366     0.4983    -2.8531 C.3     
  46 C46            1.9684    -0.1241    -4.1824 C.3     
  47 F47            3.1825    -0.7973    -4.0095 F       
  48 F48            0.9913    -1.0278    -4.6134 F       
  49 S49            2.0931    -5.0811     2.9557 S.o2    
  50 O50            3.4640    -5.1377     3.3256 O.2     
  51 O51            1.0600    -4.7059     3.8563 O.2     
  52 H52            0.6207    -1.3646     2.5032 H       
  53 H53            0.3289     1.0689     2.9220 H       
  54 H54            0.5857     2.6529     1.0582 H       
  55 H55            0.7021    -2.4379    -1.9741 H       
  56 H56            0.4250    -4.0268    -1.2212 H       
  57 H57           -4.0645    -3.3445    -1.2205 H       
  58 H58           -3.4774    -1.7386    -0.7138 H       
  59 H59           -4.9881    -1.6612    -2.7382 H       
  60 H60           -3.3656    -0.9926    -3.0389 H       
  61 H61           -2.1786    -3.8554    -4.9286 H       
  62 H62           -1.7598    -2.2467    -4.2908 H       
  63 H63           -0.6603    -3.9322    -2.9145 H       
  64 H64           -2.2041    -4.7909    -2.6699 H       
  65 H65           -3.9542    -1.4229    -5.3981 H       
  66 H66           -2.9235    -3.4116    -6.4317 H       
  67 H67           -4.3516    -4.3882    -6.0103 H       
  68 H68           -4.3337    -1.9434    -7.8386 H       
  69 H69           -4.4679    -3.6378    -8.3665 H       
  70 H70           -6.1280    -0.9314    -6.5840 H       
  71 H71           -7.5800    -1.8826    -6.1906 H       
  72 H72           -6.2374    -3.3246    -4.6918 H       
  73 H73           -6.1065    -1.6164    -4.2062 H       
  74 H74           -6.6601    -1.5533    -8.8906 H       
  75 H75           -6.4984    -3.2545    -9.3889 H       
  76 H76            3.2410    -1.6967    -1.8599 H       
  77 H77            4.7024    -4.9181     1.5753 H       
  78 H78           -0.4133    -6.4552     2.7632 H       
  79 H79           -0.9991    -8.6990     1.9353 H       
  80 H80            3.1014    -9.4315     1.0193 H       
  81 H81           -8.8800    -2.5667    -9.3310 H       
  82 H82           -8.5480    -3.8228    -8.1142 H       
  83 H83           -8.7098    -2.1216    -7.6160 H       
  84 H84            0.5594     0.9664    -2.9715 H       
  85 H85            2.2653     1.2502    -2.5502 H       
  86 H86            2.0914     0.6612    -4.9283 H       
@<TRIPOS>BOND
   1    1    2 ar
   2    1    6 ar
   3    2    3 ar
   4    2   44 1
   5    3    4 ar
   6    3    7 1
   7    4    5 ar
   8    4   52 1
   9    5    6 ar
  10    5   53 1
  11    6   54 1
  12    7    8 1
  13    7    9 1
  14    7   27 1
  15    8   25 2
  16    8   26 am
  17    9   10 1
  18    9   55 1
  19    9   56 1
  20   10   11 am
  21   10   12 2
  22   11   13 1
  23   11   17 1
  24   13   14 1
  25   13   57 1
  26   13   58 1
  27   14   15 1
  28   14   59 1
  29   14   60 1
  30   15   16 1
  31   15   18 1
  32   16   17 1
  33   16   61 1
  34   16   62 1
  35   17   63 1
  36   17   64 1
  37   18   19 1
  38   18   23 1
  39   18   65 1
  40   19   20 1
  41   19   66 1
  42   19   67 1
  43   20   21 1
  44   20   68 1
  45   20   69 1
  46   21   22 1
  47   21   24 1
  48   22   23 1
  49   22   70 1
  50   22   71 1
  51   23   72 1
  52   23   73 1
  53   24   43 1
  54   24   74 1
  55   24   75 1
  56   26   49 am
  57   26   28 1
  58   27   28 ar
  59   27   29 ar
  60   28   32 ar
  61   29   30 ar
  62   29   76 1
  63   30   31 ar
  64   30   33 1
  65   31   32 ar
  66   31   34 1
  67   32   77 1
  68   35   36 ar
  69   35   37 ar
  70   35   49 1
  71   36   42 1
  72   36   40 ar
  73   37   38 ar
  74   37   78 1
  75   38   39 ar
  76   38   79 1
  77   39   40 ar
  78   39   41 1
  79   40   80 1
  80   43   81 1
  81   43   82 1
  82   43   83 1
  83   44   45 1
  84   45   46 1
  85   45   84 1
  86   45   85 1
  87   46   47 1
  88   46   48 1
  89   46   86 1
  90   49   50 2
  91   49   51 2

#	End of record

