#	Name: ASD08150429
#	Creating user name:	WinNT
#	Creation time:	15. 06. 2019 21:16

#	Modifying user name:	WinNT
#	Modification time:	15. 06. 2019 21:16

#	Program:	/corina/corina34_cracker 3.40 0067  02.08.2006

@<TRIPOS>MOLECULE
ASD08150429
  40   44    0    0    0
SMALL
NO_CHARGES


@<TRIPOS>ATOM
   1 N1             1.0195     3.1391    -1.6360 N.am    
   2 C2             1.4642     2.5416    -2.7586 C.2     
   3 C3             2.6712     1.8135    -2.7614 C.2     
   4 C4             3.4061     1.7048    -1.6253 C.2     
   5 C5             2.9416     2.3325    -0.4425 C.ar    
   6 C6             3.6656     2.2512     0.7625 C.ar    
   7 N7             3.2347     2.8312     1.8520 N.ar    
   8 C8             2.0905     3.5311     1.8880 C.ar    
   9 C9             1.2977     3.6659     0.7219 C.ar    
  10 C10            1.7356     3.0494    -0.4736 C.ar    
  11 C11            0.1064     4.3967     0.7702 C.ar    
  12 C12           -0.2863     4.9828     1.9623 C.ar    
  13 C13            0.5033     4.8451     3.1121 C.ar    
  14 C14            1.6647     4.1379     3.0809 C.ar    
  15 O15            0.8136     2.6315    -3.7859 O.2     
  16 C16           -1.5487     5.7604     2.0221 C.2     
  17 C17           -0.1801     3.8612    -1.6604 C.ar    
  18 C18           -0.1678     5.2199    -1.9460 C.ar    
  19 C19           -1.3530     5.9306    -1.9695 C.ar    
  20 C20           -2.5525     5.2875    -1.7082 C.ar    
  21 C21           -2.5658     3.9325    -1.4232 C.ar    
  22 C22           -1.3842     3.2180    -1.4045 C.ar    
  23 Cl23          -1.3390     7.6296    -2.3258 Cl      
  24 C24           -2.7103     5.4886     1.3727 C.2     
  25 F25           -3.7101     5.9836    -1.7310 F       
  26 O26           -3.6075     6.4317     1.6949 O.3     
  27 C27           -3.0745     7.3251     2.5421 C.2     
  28 C28           -1.8023     6.9783     2.8000 C.2     
  29 H29            3.0123     1.3403    -3.6703 H       
  30 H30            4.3313     1.1477    -1.6226 H       
  31 H31            4.5936     1.6993     0.7871 H       
  32 H32           -0.5026     4.5037    -0.1152 H       
  33 H33            0.1855     5.3072     4.0351 H       
  34 H34            2.2606     4.0418     3.9765 H       
  35 H35            0.7670     5.7210    -2.1493 H       
  36 H36           -3.5015     3.4331    -1.2199 H       
  37 H37           -1.3955     2.1611    -1.1822 H       
  38 H38           -2.8820     4.6544     0.7087 H       
  39 H39           -3.5868     8.1822     2.9537 H       
  40 H40           -1.1059     7.4946     3.4441 H       
@<TRIPOS>BOND
   1    1    2 am
   2    1   10 1
   3    1   17 1
   4    2    3 1
   5    2   15 2
   6    3    4 2
   7    3   29 1
   8    4    5 1
   9    4   30 1
  10    5    6 ar
  11    5   10 ar
  12    6    7 ar
  13    6   31 1
  14    7    8 ar
  15    8    9 ar
  16    8   14 ar
  17    9   10 ar
  18    9   11 ar
  19   11   12 ar
  20   11   32 1
  21   12   13 ar
  22   12   16 1
  23   13   14 ar
  24   13   33 1
  25   14   34 1
  26   16   24 2
  27   16   28 1
  28   17   18 ar
  29   17   22 ar
  30   18   19 ar
  31   18   35 1
  32   19   20 ar
  33   19   23 1
  34   20   21 ar
  35   20   25 1
  36   21   22 ar
  37   21   36 1
  38   22   37 1
  39   24   26 1
  40   24   38 1
  41   26   27 1
  42   27   28 2
  43   27   39 1
  44   28   40 1

#	End of record

