#	Name: ASD01912384
#	Creating user name:	WinNT
#	Creation time:	15. 06. 2019 19:59

#	Modifying user name:	WinNT
#	Modification time:	15. 06. 2019 19:59

#	Program:	/corina/corina34_cracker 3.40 0067  02.08.2006

@<TRIPOS>MOLECULE
ASD01912384
  43   45    0    0    0
SMALL
NO_CHARGES


@<TRIPOS>ATOM
   1 C1             0.7089     1.4274     1.3444 C.ar    
   2 C2             0.7872     0.0343     1.4606 C.ar    
   3 C3             2.0196    -0.5510     1.7002 C.ar    
   4 C4             3.1325     0.2707     1.8161 C.ar    
   5 C5             2.9834     1.6400     1.6904 C.ar    
   6 N6             1.8019     2.1756     1.4626 N.ar    
   7 C7            -0.5555     2.0501     1.0909 C.1     
   8 C8            -1.5920     2.5606     0.8830 C.1     
   9 C9            -2.8564     3.1833     0.6294 C.2     
  10 N10           -3.2410     7.2121     1.1928 N.3     
  11 C11           -4.4197     6.3389     1.2564 C.3     
  12 C12           -4.2597     5.1934     0.2502 C.3     
  13 C13           -2.9358     4.5087     0.5181 C.2     
  14 C14           -1.7053     5.3806     0.6558 C.3     
  15 C15           -2.0277     6.5142     1.6362 C.3     
  16 C16           -3.4428     8.3755     1.9263 C.ar    
  17 C17           -2.9164     9.5793     1.4685 C.ar    
  18 C18           -3.1251    10.7291     2.2081 C.ar    
  19 C19           -3.8561    10.6364     3.3853 C.ar    
  20 C20           -4.3492     9.4093     3.7801 C.ar    
  21 N21           -4.1388     8.3291     3.0517 N.ar    
  22 N22           -2.2085     9.6244     0.3140 N.pl3   
  23 O23           -1.6633    10.6591    -0.0260 O.2     
  24 O24           -2.1174     8.6303    -0.3838 O.2     
  25 C25            2.1494    -2.0466     1.8326 C.3     
  26 F26           -0.3222    -0.7274     1.3412 F       
  27 H27            4.1069    -0.1558     2.0032 H       
  28 H28            3.8488     2.2797     1.7805 H       
  29 H29           -3.7455     2.5787     0.5284 H       
  30 H30           -4.5146     5.9290     2.2619 H       
  31 H31           -5.3124     6.9149     1.0125 H       
  32 H32           -5.0742     4.4797     0.3732 H       
  33 H33           -4.2689     5.5914    -0.7645 H       
  34 H34           -0.8755     4.7874     1.0399 H       
  35 H35           -1.4405     5.7987    -0.3153 H       
  36 H36           -1.1948     7.2166     1.6664 H       
  37 H37           -2.1900     6.0994     2.6310 H       
  38 H38           -2.7283    11.6777     1.8778 H       
  39 H39           -4.0365    11.5157     3.9860 H       
  40 H40           -4.9178     9.3326     4.6951 H       
  41 H41            2.3415    -2.4828     0.8524 H       
  42 H42            2.9759    -2.2816     2.5032 H       
  43 H43            1.2246    -2.4570     2.2380 H       
@<TRIPOS>BOND
   1    1    2 ar
   2    1    6 ar
   3    1    7 1
   4    2    3 ar
   5    2   26 1
   6    3    4 ar
   7    3   25 1
   8    4    5 ar
   9    4   27 1
  10    5    6 ar
  11    5   28 1
  12    7    8 3
  13    8    9 1
  14    9   13 2
  15    9   29 1
  16   10   11 1
  17   10   15 1
  18   10   16 1
  19   11   12 1
  20   11   30 1
  21   11   31 1
  22   12   13 1
  23   12   32 1
  24   12   33 1
  25   13   14 1
  26   14   15 1
  27   14   34 1
  28   14   35 1
  29   15   36 1
  30   15   37 1
  31   16   17 ar
  32   16   21 ar
  33   17   18 ar
  34   17   22 1
  35   18   19 ar
  36   18   38 1
  37   19   20 ar
  38   19   39 1
  39   20   21 ar
  40   20   40 1
  41   22   23 2
  42   22   24 2
  43   25   41 1
  44   25   42 1
  45   25   43 1

#	End of record

