#	Name: ASD04880506
#	Creating user name:	WinNT
#	Creation time:	15. 06. 2019 20:53

#	Modifying user name:	WinNT
#	Modification time:	15. 06. 2019 20:53

#	Program:	/corina/corina34_cracker 3.40 0067  02.08.2006

@<TRIPOS>MOLECULE
ASD04880506
  40   43    0    0    0
SMALL
NO_CHARGES


@<TRIPOS>ATOM
   1 C1            -0.0144     1.2119     0.0087 C.2     
   2 O2             0.0433    -0.0026     0.0315 O.2     
   3 N3             1.1187     1.9395    -0.0483 N.am    
   4 N4             1.1863     3.3238    -0.1911 N.2     
   5 C5             2.3904     3.7919    -0.2195 C.2     
   6 C6             3.3767     2.6538    -0.0847 C.3     
   7 C7             2.4857     1.4018     0.0365 C.3     
   8 C8             2.7451     5.2062    -0.3614 C.2     
   9 C9             1.8526     6.2328    -0.4834 C.2     
  10 C10            2.4221     7.4748    -0.6037 C.2     
  11 C11            3.7836     7.4828    -0.5819 C.2     
  12 S12            4.3845     5.8412    -0.3928 S.3     
  13 C13            4.6283     8.6893    -0.6939 C.ar    
  14 C14            6.0198     8.5770    -0.6591 C.ar    
  15 C15            6.8025     9.7079    -0.7641 C.ar    
  16 C16            6.2120    10.9515    -0.9037 C.ar    
  17 C17            4.8338    11.0700    -0.9385 C.ar    
  18 C18            4.0391     9.9468    -0.8408 C.ar    
  19 C19           -1.3273     1.8900     0.0373 C.ar    
  20 C20           -2.5036     1.1439    -0.0542 C.ar    
  21 C21           -3.7274     1.7844    -0.0268 C.ar    
  22 C22           -3.7873     3.1641     0.0912 C.ar    
  23 C23           -2.6243     3.9073     0.1817 C.ar    
  24 C24           -1.3962     3.2786     0.1617 C.ar    
  25 F25           -4.8675     1.0650    -0.1156 F       
  26 H26            4.0115     2.5914    -0.9685 H       
  27 H27            3.9816     2.7766     0.8137 H       
  28 H28            2.6444     0.9074     0.9948 H       
  29 H29            2.6792     0.7147    -0.7873 H       
  30 H30            0.7836     6.0789    -0.4854 H       
  31 H31            1.8363     8.3761    -0.7079 H       
  32 H32            6.4820     7.6071    -0.5498 H       
  33 H33            7.8788     9.6226    -0.7370 H       
  34 H34            6.8296    11.8337    -0.9856 H       
  35 H35            4.3793    12.0437    -1.0474 H       
  36 H36            2.9636    10.0402    -0.8733 H       
  37 H37           -2.4571     0.0688    -0.1465 H       
  38 H38           -4.7459     3.6610     0.1122 H       
  39 H39           -2.6778     4.9821     0.2731 H       
  40 H40           -0.4895     3.8605     0.2378 H       
@<TRIPOS>BOND
   1    1    2 2
   2    1    3 am
   3    1   19 1
   4    3    4 1
   5    3    7 1
   6    4    5 2
   7    5    6 1
   8    5    8 1
   9    6    7 1
  10    6   26 1
  11    6   27 1
  12    7   28 1
  13    7   29 1
  14    8    9 2
  15    8   12 1
  16    9   10 1
  17    9   30 1
  18   10   11 2
  19   10   31 1
  20   11   12 1
  21   11   13 1
  22   13   14 ar
  23   13   18 ar
  24   14   15 ar
  25   14   32 1
  26   15   16 ar
  27   15   33 1
  28   16   17 ar
  29   16   34 1
  30   17   18 ar
  31   17   35 1
  32   18   36 1
  33   19   20 ar
  34   19   24 ar
  35   20   21 ar
  36   20   37 1
  37   21   22 ar
  38   21   25 1
  39   22   23 ar
  40   22   38 1
  41   23   24 ar
  42   23   39 1
  43   24   40 1

#	End of record

