#	Name: ASD00170104
#	Creating user name:	WinNT
#	Creation time:	15. 06. 2019 18:31

#	Modifying user name:	WinNT
#	Modification time:	15. 06. 2019 18:31

#	Program:	/corina/corina34_cracker 3.40 0067  02.08.2006

@<TRIPOS>MOLECULE
ASD00170104
  35   37    0    0    0
SMALL
NO_CHARGES


@<TRIPOS>ATOM
   1 C1            -0.0342     1.3437    -0.0677 C.2     
   2 C2            -0.0074     0.0062    -0.0876 C.2     
   3 C3            -1.3327    -0.5855     0.0179 C.2     
   4 C4            -2.3272     0.3564     0.1154 C.2     
   5 S5            -1.6794     1.9319     0.0884 S.3     
   6 N6            -3.6714     0.0656     0.2265 N.pl3   
   7 Br7            1.4950     2.4499    -0.1839 Br      
   8 C8            -1.5713    -1.9834     0.0199 C.2     
   9 O9            -1.7716    -2.5685    -1.0293 O.2     
  10 C10            1.2383    -0.7877    -0.2053 C.ar    
  11 C11            2.1928    -0.7471     0.8104 C.ar    
  12 C12            3.3507    -1.4889     0.6953 C.ar    
  13 C13            3.5656    -2.2714    -0.4251 C.ar    
  14 C14            2.6223    -2.3157    -1.4361 C.ar    
  15 C15            1.4580    -1.5828    -1.3297 C.ar    
  16 C16           -1.5769    -2.7311     1.2966 C.ar    
  17 C17           -1.9187    -4.0841     1.3148 C.ar    
  18 C18           -1.9215    -4.7757     2.5086 C.ar    
  19 C19           -1.5866    -4.1307     3.6860 C.ar    
  20 C20           -1.2472    -2.7894     3.6748 C.ar    
  21 C21           -1.2349    -2.0878     2.4870 C.ar    
  22 N22            4.8111    -3.0646    -0.5430 N.pl3   
  23 O23            5.6434    -3.0270     0.3454 O.2     
  24 O24            5.0028    -3.7543    -1.5284 O.2     
  25 H25           -3.9758    -0.8532     0.1619 H       
  26 H26           -4.3120     0.7798     0.3692 H       
  27 H27            2.0264    -0.1360     1.6852 H       
  28 H28            4.0907    -1.4582     1.4813 H       
  29 H29            2.7958    -2.9281    -2.3086 H       
  30 H30            0.7221    -1.6184    -2.1194 H       
  31 H31           -2.1807    -4.5886     0.3965 H       
  32 H32           -2.1861    -5.8226     2.5241 H       
  33 H33           -1.5903    -4.6766     4.6179 H       
  34 H34           -0.9875    -2.2916     4.5973 H       
  35 H35           -0.9699    -1.0409     2.4795 H       
@<TRIPOS>BOND
   1    1    2 2
   2    1    7 1
   3    1    5 1
   4    2    3 1
   5    2   10 1
   6    3    4 2
   7    3    8 1
   8    4    5 1
   9    4    6 1
  10    6   25 1
  11    6   26 1
  12    8    9 2
  13    8   16 1
  14   10   11 ar
  15   10   15 ar
  16   11   12 ar
  17   11   27 1
  18   12   13 ar
  19   12   28 1
  20   13   14 ar
  21   13   22 1
  22   14   15 ar
  23   14   29 1
  24   15   30 1
  25   16   17 ar
  26   16   21 ar
  27   17   18 ar
  28   17   31 1
  29   18   19 ar
  30   18   32 1
  31   19   20 ar
  32   19   33 1
  33   20   21 ar
  34   20   34 1
  35   21   35 1
  36   22   23 2
  37   22   24 2

#	End of record

