#	Name: ASD01913074
#	Creating user name:	WinNT
#	Creation time:	15. 06. 2019 20:00

#	Modifying user name:	WinNT
#	Modification time:	15. 06. 2019 20:00

#	Program:	/corina/corina34_cracker 3.40 0067  02.08.2006

@<TRIPOS>MOLECULE
ASD01913074
  35   37    0    0    0
SMALL
NO_CHARGES


@<TRIPOS>ATOM
   1 N1            -0.0169     1.3964     0.0097 N.2     
   2 N2             0.0021    -0.0041     0.0020 N.pl3   
   3 C3             1.2273     1.8293     0.0002 C.2     
   4 C4             2.0824     0.7137    -0.0140 C.2     
   5 C5             1.3052    -0.4069    -0.0126 C.2     
   6 C6             1.7878    -1.8059    -0.0243 C.ar    
   7 C7             1.6527     3.2498     0.0037 C.ar    
   8 C8             0.8759    -2.8614    -0.0213 C.ar    
   9 C9             3.1566    -2.0743    -0.0442 C.ar    
  10 C10            0.6949     4.2641     0.0188 C.ar    
  11 C11            1.0883     5.5830     0.0217 C.ar    
  12 C12            2.4482     5.9060     0.0099 C.ar    
  13 C13            3.4067     4.8887    -0.0047 C.ar    
  14 C14            3.0104     3.5707    -0.0023 C.ar    
  15 C15            2.8715     7.3196     0.0125 C.2     
  16 O16            4.1826     7.6302     0.0012 O.3     
  17 C17            3.6003    -3.3808    -0.0554 C.ar    
  18 C18            2.6909    -4.4233    -0.0471 C.ar    
  19 C19            1.3322    -4.1635    -0.0327 C.ar    
  20 O20            2.0379     8.2033     0.0249 O.2     
  21 C21            4.5258     9.0411     0.0045 C.3     
  22 H22           -0.7746    -0.5851     0.0063 H       
  23 H23            3.1621     0.7394    -0.0242 H       
  24 H24           -0.1851    -2.6599    -0.0097 H       
  25 H25            3.8674    -1.2613    -0.0510 H       
  26 H26           -0.3558     4.0142     0.0279 H       
  27 H27            0.3466     6.3680     0.0327 H       
  28 H28            4.4578     5.1368    -0.0142 H       
  29 H29            3.7508     2.7844    -0.0136 H       
  30 H30            4.6597    -3.5899    -0.0712 H       
  31 H31            3.0432    -5.4442    -0.0560 H       
  32 H32            0.6271    -4.9816    -0.0263 H       
  33 H33            4.1037     9.5198    -0.8791 H       
  34 H34            4.1211     9.5113     0.9007 H       
  35 H35            5.6102     9.1512    -0.0056 H       
@<TRIPOS>BOND
   1    1    2 1
   2    1    3 2
   3    2    5 1
   4    2   22 1
   5    3    4 1
   6    3    7 1
   7    4    5 2
   8    4   23 1
   9    5    6 1
  10    6    8 ar
  11    6    9 ar
  12    7   10 ar
  13    7   14 ar
  14    8   19 ar
  15    8   24 1
  16    9   17 ar
  17    9   25 1
  18   10   11 ar
  19   10   26 1
  20   11   12 ar
  21   11   27 1
  22   12   13 ar
  23   12   15 1
  24   13   14 ar
  25   13   28 1
  26   14   29 1
  27   15   16 1
  28   15   20 2
  29   16   21 1
  30   17   18 ar
  31   17   30 1
  32   18   19 ar
  33   18   31 1
  34   19   32 1
  35   21   33 1
  36   21   34 1
  37   21   35 1

#	End of record

