#	Name: ASD03331398
#	Creating user name:	WinNT
#	Creation time:	15. 06. 2019 20:39

#	Modifying user name:	WinNT
#	Modification time:	15. 06. 2019 20:39

#	Program:	/corina/corina34_cracker 3.40 0067  02.08.2006

@<TRIPOS>MOLECULE
ASD03331398
  57   59    0    0    0
SMALL
NO_CHARGES


@<TRIPOS>ATOM
   1 C1            -0.5379     0.6471     0.6048 C.3     
   2 O2            -0.5804    -0.7665     0.3931 O.3     
   3 C3            -0.0302    -1.1951    -0.8615 C.3     
   4 C4             1.3271    -0.5651    -1.0093 C.2     
   5 C5             1.7611     0.4706    -0.2441 C.2     
   6 C6             0.9133     1.0958     0.8343 C.3     
   7 C7             2.3787    -0.8624    -1.8880 C.2     
   8 N8             3.3588    -0.0168    -1.6110 N.2     
   9 N9             3.0109     0.7693    -0.6494 N.pl3   
  10 C10            2.3906    -1.9159    -2.9225 C.2     
  11 O11            1.4182    -2.6296    -3.0746 O.2     
  12 N12            3.4795    -2.0862    -3.6983 N.am    
  13 C13            3.4914    -3.1315    -4.7247 C.3     
  14 C14            2.8443    -2.5973    -6.0041 C.3     
  15 C15            4.9141    -3.5366    -5.0126 C.2     
  16 C16            3.8128     1.7830    -0.1075 C.ar    
  17 C17            3.8578     1.9734     1.2669 C.ar    
  18 C18            4.6481     2.9731     1.8003 C.ar    
  19 C19            5.3960     3.7854     0.9658 C.ar    
  20 C20            5.3535     3.5974    -0.4080 C.ar    
  21 C21            4.5676     2.5943    -0.9445 C.ar    
  22 F22            6.1678     4.7627     1.4896 F       
  23 C23            3.6072    -1.3607    -6.4835 C.3     
  24 C24            2.8900    -3.6765    -7.0877 C.3     
  25 C25            1.3888    -2.2205    -5.7205 C.3     
  26 N26            5.1704    -4.7137    -5.6171 N.am    
  27 O27            5.8284    -2.8035    -4.7005 O.2     
  28 C28            6.5549    -5.1510    -5.8116 C.3     
  29 F29            6.0840     4.3911    -1.2214 F       
  30 C30            6.5666    -6.5093    -6.5157 C.3     
  31 O31            6.0263    -6.3686    -7.8311 O.3     
  32 H32           -0.9406     1.1568    -0.2706 H       
  33 H33           -1.1382     0.9008     1.4785 H       
  34 H34            0.0640    -2.2810    -0.8712 H       
  35 H35           -0.6773    -0.8729    -1.6774 H       
  36 H36            0.9785     2.1821     0.7726 H       
  37 H37            1.2536     0.7593     1.8137 H       
  38 H38            4.2553    -1.5167    -3.5770 H       
  39 H39            2.9322    -3.9967    -4.3686 H       
  40 H40            3.2747     1.3401     1.9191 H       
  41 H41            4.6821     3.1211     2.8696 H       
  42 H42            4.5340     2.4474    -2.0139 H       
  43 H43            4.6441    -1.6291    -6.6855 H       
  44 H44            3.1462    -0.9801    -7.3949 H       
  45 H45            3.5747    -0.5918    -5.7115 H       
  46 H46            2.3445    -4.5566    -6.7471 H       
  47 H47            2.4311    -3.2951    -7.9999 H       
  48 H48            3.9268    -3.9466    -7.2880 H       
  49 H49            1.3563    -1.4516    -4.9486 H       
  50 H50            0.9279    -1.8399    -6.6320 H       
  51 H51            0.8454    -3.1014    -5.3790 H       
  52 H52            4.4381    -5.2712    -5.9233 H       
  53 H53            7.0843    -4.4203    -6.4230 H       
  54 H54            7.0475    -5.2395    -4.8432 H       
  55 H55            7.5910    -6.8759    -6.5810 H       
  56 H56            5.9626    -7.2177    -5.9487 H       
  57 H57            6.0028    -7.1925    -8.3369 H       
@<TRIPOS>BOND
   1    1    2 1
   2    1    6 1
   3    1   32 1
   4    1   33 1
   5    2    3 1
   6    3    4 1
   7    3   34 1
   8    3   35 1
   9    4    5 2
  10    4    7 1
  11    5    6 1
  12    5    9 1
  13    6   36 1
  14    6   37 1
  15    7    8 2
  16    7   10 1
  17    8    9 1
  18    9   16 1
  19   10   11 2
  20   10   12 am
  21   12   13 1
  22   12   38 1
  23   13   14 1
  24   13   15 1
  25   13   39 1
  26   14   23 1
  27   14   24 1
  28   14   25 1
  29   15   26 am
  30   15   27 2
  31   16   17 ar
  32   16   21 ar
  33   17   18 ar
  34   17   40 1
  35   18   19 ar
  36   18   41 1
  37   19   20 ar
  38   19   22 1
  39   20   21 ar
  40   20   29 1
  41   21   42 1
  42   23   43 1
  43   23   44 1
  44   23   45 1
  45   24   46 1
  46   24   47 1
  47   24   48 1
  48   25   49 1
  49   25   50 1
  50   25   51 1
  51   26   28 1
  52   26   52 1
  53   28   30 1
  54   28   53 1
  55   28   54 1
  56   30   31 1
  57   30   55 1
  58   30   56 1
  59   31   57 1

#	End of record

