#	Name: ASD01814025
#	Creating user name:	WinNT
#	Creation time:	15. 06. 2019 19:31

#	Modifying user name:	WinNT
#	Modification time:	15. 06. 2019 19:31

#	Program:	/corina/corina34_cracker 3.40 0067  02.08.2006

@<TRIPOS>MOLECULE
ASD01814025
  61   65    0    0    0
SMALL
NO_CHARGES


@<TRIPOS>ATOM
   1 C1            -0.0167     1.3820     0.0096 C.ar    
   2 C2             0.0021    -0.0041     0.0020 C.ar    
   3 C3             1.1959    -0.6932    -0.0127 C.ar    
   4 C4             2.4016     0.0019    -0.0205 C.ar    
   5 C5             2.3831     1.4075    -0.0132 C.ar    
   6 C6             1.1665     2.0939     0.0022 C.ar    
   7 N7             3.6010    -0.6771    -0.0346 N.pl3   
   8 C8             4.7870    -0.0549    -0.0418 C.2     
   9 C9             4.8957     1.3208    -0.0358 C.2     
  10 C10            3.6666     2.1313    -0.0216 C.2     
  11 F11            1.1476     3.4448     0.0091 F       
  12 O12            3.7090     3.3491    -0.0163 O.2     
  13 C13            6.2161     1.9660    -0.0431 C.2     
  14 O14            6.3092     3.3109    -0.0372 O.3     
  15 O15            7.2244     1.2870    -0.0544 O.2     
  16 C16            3.5775    -2.1419    -0.0418 C.3     
  17 C17            3.5567    -2.6371    -1.4649 C.ar    
  18 C18            4.7453    -2.8829    -2.1274 C.ar    
  19 C19            4.7296    -3.3372    -3.4316 C.ar    
  20 C20            3.5184    -3.5470    -4.0776 C.ar    
  21 C21            2.3265    -3.2992    -3.4096 C.ar    
  22 C22            2.3489    -2.8500    -2.1037 C.ar    
  23 N23            3.4991    -4.0069    -5.3993 N.am    
  24 C24            2.2908    -4.2692    -6.1961 C.3     
  25 C25            2.8427    -4.7474    -7.5530 C.3     
  26 O26            4.2888    -4.7048    -7.3803 O.3     
  27 C27            4.5783    -4.2744    -6.1471 C.2     
  28 O28            5.7159    -4.1454    -5.7399 O.2     
  29 C29            2.3794    -6.1756    -7.8471 C.3     
  30 O30            2.8050    -6.5540    -9.1578 O.3     
  31 C31            2.4722    -7.8036    -9.5782 C.ar    
  32 C32            2.8537    -8.2354   -10.8398 C.ar    
  33 C33            2.5156    -9.5048   -11.2669 C.ar    
  34 C34            1.7950   -10.3477   -10.4339 C.ar    
  35 C35            1.4142    -9.9163    -9.1719 C.ar    
  36 C36            1.7561    -8.6484    -8.7432 C.ar    
  37 O37            1.4614   -11.5970   -10.8547 O.3     
  38 C38            0.7187   -12.4112    -9.9450 C.3     
  39 H39           -0.9604     1.9071     0.0170 H       
  40 H40           -0.9295    -0.5505     0.0080 H       
  41 H41            1.1956    -1.7731    -0.0177 H       
  42 H42            5.6884    -0.6497    -0.0521 H       
  43 H43            7.1990     3.6894    -0.0423 H       
  44 H44            4.4661    -2.5220     0.4622 H       
  45 H45            2.6865    -2.4935     0.4783 H       
  46 H46            5.6870    -2.7192    -1.6245 H       
  47 H47            5.6583    -3.5287    -3.9485 H       
  48 H48            1.3829    -3.4611    -3.9095 H       
  49 H49            1.4222    -2.6571    -1.5837 H       
  50 H50            1.6878    -5.0494    -5.7316 H       
  51 H51            1.7082    -3.3564    -6.3199 H       
  52 H52            2.5331    -4.0723    -8.3507 H       
  53 H53            2.8123    -6.8562    -7.1140 H       
  54 H54            1.2920    -6.2239    -7.7901 H       
  55 H55            3.4149    -7.5790   -11.4884 H       
  56 H56            2.8121    -9.8408   -12.2496 H       
  57 H57            0.8531   -10.5726    -8.5233 H       
  58 H58            1.4596    -8.3125    -7.7606 H       
  59 H59            1.2955   -12.5542    -9.0313 H       
  60 H60           -0.2250   -11.9210    -9.7059 H       
  61 H61            0.5190   -13.3795   -10.4039 H       
@<TRIPOS>BOND
   1    1    2 ar
   2    1    6 ar
   3    1   39 1
   4    2    3 ar
   5    2   40 1
   6    3    4 ar
   7    3   41 1
   8    4    5 ar
   9    4    7 1
  10    5    6 ar
  11    5   10 1
  12    6   11 1
  13    7    8 1
  14    7   16 1
  15    8    9 2
  16    8   42 1
  17    9   10 1
  18    9   13 1
  19   10   12 2
  20   13   14 1
  21   13   15 2
  22   14   43 1
  23   16   17 1
  24   16   44 1
  25   16   45 1
  26   17   18 ar
  27   17   22 ar
  28   18   19 ar
  29   18   46 1
  30   19   20 ar
  31   19   47 1
  32   20   21 ar
  33   20   23 1
  34   21   22 ar
  35   21   48 1
  36   22   49 1
  37   23   24 1
  38   23   27 am
  39   24   25 1
  40   24   50 1
  41   24   51 1
  42   25   26 1
  43   25   29 1
  44   25   52 1
  45   26   27 1
  46   27   28 2
  47   29   30 1
  48   29   53 1
  49   29   54 1
  50   30   31 1
  51   31   32 ar
  52   31   36 ar
  53   32   33 ar
  54   32   55 1
  55   33   34 ar
  56   33   56 1
  57   34   35 ar
  58   34   37 1
  59   35   36 ar
  60   35   57 1
  61   36   58 1
  62   37   38 1
  63   38   59 1
  64   38   60 1
  65   38   61 1

#	End of record

