#	Name: ASD03092147
#	Creating user name:	WinNT
#	Creation time:	15. 06. 2019 20:32

#	Modifying user name:	WinNT
#	Modification time:	15. 06. 2019 20:32

#	Program:	/corina/corina34_cracker 3.40 0067  02.08.2006

@<TRIPOS>MOLECULE
ASD03092147
  59   62    0    0    0
SMALL
NO_CHARGES


@<TRIPOS>ATOM
   1 C1            -0.0173     1.4025     0.0078 C.ar    
   2 C2             0.0054    -0.0035    -0.0071 C.ar    
   3 C3             1.2155    -0.6513    -0.0037 C.ar    
   4 N4             2.3486     0.0397    -0.0241 N.ar    
   5 C5             2.3766     1.3593    -0.0222 C.ar    
   6 C6             1.1935     2.0909     0.0006 C.ar    
   7 C7            -1.3174    -0.7231    -0.0591 C.3     
   8 C8             1.3138    -2.1534     0.0571 C.3     
   9 C9             0.4103    -2.7965    -0.9974 C.3     
  10 C10           -1.2286    -2.0978     0.6020 C.3     
  11 O11           -0.8528    -3.0558    -0.3915 O.3     
  12 C12           -1.3035     2.1370     0.0247 C.2     
  13 O13           -2.2676     1.6874    -0.5628 O.2     
  14 N14           -1.4046     3.3038     0.6915 N.am    
  15 C15           -2.5790     4.0500     0.6161 C.ar    
  16 N16           -3.5600     3.6671    -0.1873 N.ar    
  17 C17           -2.7291     5.1998     1.3901 C.ar    
  18 C18           -3.9164     5.9063     1.2789 C.ar    
  19 C19           -4.8817     5.4263     0.4049 C.ar    
  20 N20           -4.6572     4.3259    -0.2854 N.ar    
  21 N21            3.5979     2.0232    -0.0426 N.3     
  22 C22            3.6562     3.0157    -1.1069 C.3     
  23 C23            4.7186     1.0936    -0.0642 C.3     
  24 C24            6.0583     1.8194    -0.0457 C.3     
  25 O25            6.0815     2.9327    -0.9148 O.3     
  26 C26            4.9711     3.7920    -1.0590 C.3     
  27 C27            6.3956     2.2329     1.3922 C.3     
  28 C28            5.1171     4.5600    -2.3890 C.3     
  29 C29            4.9119     4.8260     0.0703 C.3     
  30 C30            7.1447     0.8241    -0.5070 C.3     
  31 H31            1.2135     3.1707     0.0122 H       
  32 H32           -2.0688    -0.1263     0.4580 H       
  33 H33           -1.6158    -0.8464    -1.1002 H       
  34 H34            2.3461    -2.4534    -0.1232 H       
  35 H35            1.0092    -2.4935     1.0469 H       
  36 H36            0.2829    -2.1154    -1.8388 H       
  37 H37            0.8529    -3.7310    -1.3420 H       
  38 H38           -0.4782    -2.0763     1.3923 H       
  39 H39           -2.1984    -2.3660     1.0211 H       
  40 H40           -0.6598     3.6242     1.2240 H       
  41 H41           -1.9451     5.5294     2.0556 H       
  42 H42           -4.0855     6.8037     1.8556 H       
  43 H43           -5.8185     5.9520     0.2935 H       
  44 H44            3.5668     2.5215    -2.0796 H       
  45 H45            2.8221     3.7179    -1.0038 H       
  46 H46            4.6589     0.4270     0.8045 H       
  47 H47            4.6603     0.4707    -0.9652 H       
  48 H48            6.4548     1.3447     2.0213 H       
  49 H49            7.3539     2.7521     1.4056 H       
  50 H50            5.6179     2.8957     1.7716 H       
  51 H51            4.2782     5.2459    -2.5065 H       
  52 H52            6.0496     5.1244    -2.3822 H       
  53 H53            5.1268     3.8524    -3.2181 H       
  54 H54            4.7553     4.3168     1.0213 H       
  55 H55            5.8498     5.3802     0.1051 H       
  56 H56            4.0883     5.5164    -0.1120 H       
  57 H57            6.9167     0.4791    -1.5155 H       
  58 H58            8.1159     1.3189    -0.5031 H       
  59 H59            7.1684    -0.0283     0.1719 H       
@<TRIPOS>BOND
   1    1    2 ar
   2    1    6 ar
   3    1   12 1
   4    2    3 ar
   5    2    7 1
   6    3    4 ar
   7    3    8 1
   8    4    5 ar
   9    5    6 ar
  10    5   21 1
  11    6   31 1
  12    7   10 1
  13    7   32 1
  14    7   33 1
  15    8    9 1
  16    8   34 1
  17    8   35 1
  18    9   11 1
  19    9   36 1
  20    9   37 1
  21   10   11 1
  22   10   38 1
  23   10   39 1
  24   12   13 2
  25   12   14 am
  26   14   15 1
  27   14   40 1
  28   15   17 ar
  29   15   16 ar
  30   16   20 ar
  31   17   18 ar
  32   17   41 1
  33   18   19 ar
  34   18   42 1
  35   19   20 ar
  36   19   43 1
  37   21   23 1
  38   21   22 1
  39   22   26 1
  40   22   44 1
  41   22   45 1
  42   23   24 1
  43   23   46 1
  44   23   47 1
  45   24   25 1
  46   24   27 1
  47   24   30 1
  48   25   26 1
  49   26   28 1
  50   26   29 1
  51   27   48 1
  52   27   49 1
  53   27   50 1
  54   28   51 1
  55   28   52 1
  56   28   53 1
  57   29   54 1
  58   29   55 1
  59   29   56 1
  60   30   57 1
  61   30   58 1
  62   30   59 1

#	End of record

