#	Name: ASD07930642
#	Creating user name:	WinNT
#	Creation time:	15. 06. 2019 21:12

#	Modifying user name:	WinNT
#	Modification time:	15. 06. 2019 21:12

#	Program:	/corina/corina34_cracker 3.40 0067  02.08.2006

@<TRIPOS>MOLECULE
ASD07930642
  31   30    0    0    0
SMALL
NO_CHARGES


@<TRIPOS>ATOM
   1 C1            -0.0184     1.5028     0.0103 C.2     
   2 C2             0.0021    -0.0041     0.0020 C.3     
   3 O3             1.0197     2.1211     0.0037 O.2     
   4 O4            -1.1898     2.1580     0.0194 O.3     
   5 O5             1.3556    -0.4620    -0.0134 O.3     
   6 C6             1.5211    -2.3849    -1.4679 C.3     
   7 C7             1.4878    -1.8849    -0.0223 C.3     
   8 C8             2.7661    -2.2750     0.6739 C.2     
   9 C9             2.7263    -3.0417     1.7353 C.2     
  10 C10           -1.1335     3.6089     0.0270 C.3     
  11 C11           -0.3989     4.0974    -1.2231 C.3     
  12 C12           -2.5551     4.1744     0.0369 C.3     
  13 C13           -0.3871     4.0838     1.2754 C.3     
  14 H14           -0.4983    -0.3791     0.8948 H       
  15 H15           -0.5153    -0.3696    -0.8850 H       
  16 H16            1.6219    -3.4702    -1.4746 H       
  17 H17            0.5965    -2.1027    -1.9714 H       
  18 H18            2.3688    -1.9380    -1.9874 H       
  19 H19            0.6401    -2.3317     0.4973 H       
  20 H20            3.7151    -1.9225     0.2977 H       
  21 H21            1.7772    -3.3943     2.1115 H       
  22 H22            3.6424    -3.3213     2.2342 H       
  23 H23           -0.9307     3.7591    -2.1124 H       
  24 H24           -0.3567     5.1865    -1.2173 H       
  25 H25            0.6139     3.6945    -1.2301 H       
  26 H26           -3.0784     3.8265     0.9275 H       
  27 H27           -2.5128     5.2636     0.0426 H       
  28 H28           -3.0869     3.8361    -0.8525 H       
  29 H29            0.6257     3.6809     1.2684 H       
  30 H30           -0.3448     5.1730     1.2811 H       
  31 H31           -0.9104     3.7358     2.1659 H       
@<TRIPOS>BOND
   1    1    2 1
   2    1    3 2
   3    1    4 1
   4    2    5 1
   5    2   14 1
   6    2   15 1
   7    4   10 1
   8    5    7 1
   9    6    7 1
  10    6   16 1
  11    6   17 1
  12    6   18 1
  13    7    8 1
  14    7   19 1
  15    8    9 2
  16    8   20 1
  17    9   21 1
  18    9   22 1
  19   10   11 1
  20   10   13 1
  21   10   12 1
  22   11   23 1
  23   11   24 1
  24   11   25 1
  25   12   26 1
  26   12   27 1
  27   12   28 1
  28   13   29 1
  29   13   30 1
  30   13   31 1

#	End of record

