#	Name: ASD09116217
#	Creating user name:	WinNT
#	Creation time:	15. 06. 2019 21:21

#	Modifying user name:	WinNT
#	Modification time:	15. 06. 2019 21:21

#	Program:	/corina/corina34_cracker 3.40 0067  02.08.2006

@<TRIPOS>MOLECULE
ASD09116217
  79   86    0    0    0
SMALL
NO_CHARGES


@<TRIPOS>ATOM
   1 N1            -0.4351     3.7091     0.2577 N.2     
   2 N2            -1.0236     4.8856     0.7489 N.pl3   
   3 C3             0.8629     3.8968     0.2689 C.2     
   4 N4             1.1222     5.1227     0.7386 N.2     
   5 C5            -0.0062     5.7323     1.0329 C.2     
   6 N6             1.8191     2.9680    -0.1423 N.pl3   
   7 C7             3.1689     3.3271    -0.1850 C.ar    
   8 C8             4.1513     2.3647     0.0101 C.ar    
   9 C9             5.8365     4.0391    -0.2714 C.ar    
  10 C10            4.8689     4.9908    -0.4694 C.ar    
  11 C11            3.5308     4.6470    -0.4284 C.ar    
  12 C12           -2.3879     5.1333     0.9115 C.ar    
  13 N13           -2.7978     6.0236     1.8027 N.ar    
  14 N14           -4.0418     6.2819     1.9982 N.ar    
  15 C15           -4.9938     5.6669     1.3150 C.ar    
  16 C16           -4.6547     4.7267     0.3378 C.ar    
  17 C17           -3.3206     4.4465     0.1303 C.ar    
  18 C18           -6.4293     5.9230     1.5759 C.ar    
  19 C19           -7.2857     4.8364     1.7601 C.ar    
  20 C20           -6.7222     3.4419     1.7447 C.3     
  21 C21           -6.4290     2.9755     0.3213 C.3     
  22 C22           -5.7350     4.0762    -0.4764 C.3     
  23 C23           -6.9279     7.2196     1.6346 C.ar    
  24 C24           -8.2760     7.4243     1.8569 C.ar    
  25 C25           -9.1249     6.3443     2.0181 C.ar    
  26 C26           -8.6310     5.0522     1.9688 C.ar    
  27 N27           -0.1307     7.0111     1.5416 N.pl3   
  28 C28            5.4856     2.7214    -0.0331 C.ar    
  29 C29            7.3012     4.4227    -0.3182 C.3     
  30 C30            7.6238     5.2567     0.9240 C.3     
  31 C31            7.3042     6.7203     0.6923 C.3     
  32 C32            5.8255     7.0251     0.5564 C.3     
  33 C33            5.2606     6.4296    -0.7356 C.3     
  34 N34            7.8387     7.4979     1.8181 N.3     
  35 C35            7.7736     8.9390     1.5406 C.3     
  36 C36            8.5117     9.7649     2.6375 C.3     
  37 C37            9.6283    10.4150     1.7510 C.3     
  38 C38            8.6541     9.3248     0.3032 C.3     
  39 C39           10.0951     9.2309     0.8663 C.3     
  40 C40            8.9645    10.8490     0.4087 C.3     
  41 C41            7.1356     7.1697     3.0655 C.3     
  42 H42            1.5470     2.0729    -0.3986 H       
  43 H43            3.8723     1.3380     0.1959 H       
  44 H44            2.7714     5.3989    -0.5849 H       
  45 H45           -3.0087     3.7178    -0.6033 H       
  46 H46           -5.7984     3.4242     2.3231 H       
  47 H47           -7.4409     2.7618     2.2018 H       
  48 H48           -5.7843     2.0973     0.3570 H       
  49 H49           -7.3656     2.7123    -0.1702 H       
  50 H50           -6.4697     4.8285    -0.7634 H       
  51 H51           -5.2953     3.6445    -1.3755 H       
  52 H52           -6.2647     8.0624     1.5075 H       
  53 H53           -8.6677     8.4296     1.9052 H       
  54 H54          -10.1792     6.5102     2.1834 H       
  55 H55           -9.2995     4.2133     2.0946 H       
  56 H56            0.6614     7.5441     1.7131 H       
  57 H57           -1.0102     7.3757     1.7272 H       
  58 H58            6.2515     1.9752     0.1187 H       
  59 H59            7.9156     3.5225    -0.3248 H       
  60 H60            7.4974     5.0103    -1.2150 H       
  61 H61            7.0345     4.8901     1.7645 H       
  62 H62            8.6833     5.1543     1.1589 H       
  63 H63            7.8091     7.0445    -0.2177 H       
  64 H64            5.2929     6.6026     1.4084 H       
  65 H65            5.6820     8.1056     0.5454 H       
  66 H66            6.0195     6.4641    -1.5173 H       
  67 H67            4.3833     6.9964    -1.0474 H       
  68 H68            6.7429     9.2715     1.4170 H       
  69 H69            7.8589    10.5206     3.0744 H       
  70 H70            8.9376     9.1182     3.4046 H       
  71 H71           10.3572    11.0623     2.2387 H       
  72 H72            8.4064     8.8794    -0.6603 H       
  73 H73           10.8737     9.4887     0.1483 H       
  74 H74           10.3009     8.3139     1.4184 H       
  75 H75            8.0837    11.4801     0.5263 H       
  76 H76            9.6650    11.2180    -0.3405 H       
  77 H77            7.3110     6.1237     3.3171 H       
  78 H78            7.5075     7.8042     3.8700 H       
  79 H79            6.0665     7.3376     2.9350 H       
@<TRIPOS>BOND
   1    1    2 1
   2    1    3 2
   3    2   12 1
   4    2    5 1
   5    3    4 1
   6    3    6 1
   7    4    5 2
   8    5   27 1
   9    6    7 1
  10    6   42 1
  11    7    8 ar
  12    7   11 ar
  13    8   28 ar
  14    8   43 1
  15    9   10 ar
  16    9   29 1
  17    9   28 ar
  18   10   11 ar
  19   10   33 1
  20   11   44 1
  21   12   13 ar
  22   12   17 ar
  23   13   14 ar
  24   14   15 ar
  25   15   16 ar
  26   15   18 1
  27   16   17 ar
  28   16   22 1
  29   17   45 1
  30   18   19 ar
  31   18   23 ar
  32   19   20 1
  33   19   26 ar
  34   20   21 1
  35   20   46 1
  36   20   47 1
  37   21   22 1
  38   21   48 1
  39   21   49 1
  40   22   50 1
  41   22   51 1
  42   23   24 ar
  43   23   52 1
  44   24   25 ar
  45   24   53 1
  46   25   26 ar
  47   25   54 1
  48   26   55 1
  49   27   56 1
  50   27   57 1
  51   28   58 1
  52   29   30 1
  53   29   59 1
  54   29   60 1
  55   30   31 1
  56   30   61 1
  57   30   62 1
  58   31   32 1
  59   31   34 1
  60   31   63 1
  61   32   33 1
  62   32   64 1
  63   32   65 1
  64   33   66 1
  65   33   67 1
  66   34   35 1
  67   34   41 1
  68   35   36 1
  69   35   38 1
  70   35   68 1
  71   36   37 1
  72   36   69 1
  73   36   70 1
  74   37   39 1
  75   37   40 1
  76   37   71 1
  77   38   39 1
  78   38   40 1
  79   38   72 1
  80   39   73 1
  81   39   74 1
  82   40   75 1
  83   40   76 1
  84   41   77 1
  85   41   78 1
  86   41   79 1

#	End of record

