#	Name: ASD01208871
#	Creating user name:	WinNT
#	Creation time:	15. 06. 2019 19:10

#	Modifying user name:	WinNT
#	Modification time:	15. 06. 2019 19:10

#	Program:	/corina/corina34_cracker 3.40 0067  02.08.2006

@<TRIPOS>MOLECULE
ASD01208871
  60   63    0    0    0
SMALL
NO_CHARGES


@<TRIPOS>ATOM
   1 C1            -1.1098    -0.1728    -1.5016 C.2     
   2 C2            -0.7514    -1.6188    -1.2744 C.3     
   3 O3            -0.2456     0.6855    -1.4457 O.co2   
   4 O4            -2.2630     0.1383    -1.7463 O.co2   
   5 S5             2.9711    -2.2406     0.0220 S.3     
   6 C6             2.8818    -1.4167    -1.4734 C.2     
   7 N7             1.6430    -1.2563    -1.8206 N.2     
   8 C8             0.7259    -1.7331    -0.9998 C.2     
   9 C9             1.2128    -2.3244     0.0929 C.2     
  10 C10            5.2257    -1.2021    -1.7522 C.2     
  11 C11            6.3912    -0.7393    -2.5348 C.ar    
  12 C12            7.6852    -0.9663    -2.0639 C.ar    
  13 C13            8.7743    -0.5310    -2.8002 C.ar    
  14 C14            8.5806     0.1304    -4.0044 C.ar    
  15 C15            7.2960     0.3583    -4.4764 C.ar    
  16 C16            6.2009    -0.0793    -3.7491 C.ar    
  17 O17            5.3936    -1.7814    -0.6967 O.2     
  18 N18            3.9769    -0.9818    -2.2088 N.am    
  19 O19            7.1117     1.0066    -5.6564 O.3     
  20 C20            6.7340     2.3106    -5.6153 C.ar    
  21 C21            6.4851     2.9973    -6.7969 C.ar    
  22 C22            6.1016     4.3205    -6.7593 C.ar    
  23 C23            5.9629     4.9706    -5.5314 C.ar    
  24 C24            6.2134     4.2768    -4.3459 C.ar    
  25 C25            6.5919     2.9524    -4.3915 C.ar    
  26 O26            5.3802     7.1376    -4.3786 O.3     
  27 C27            5.5523     6.3894    -5.4867 C.2     
  28 N28            5.2877     7.1564    -6.5187 N.2     
  29 N29            4.9639     8.3301    -6.1029 N.2     
  30 C30            5.0085     8.3589    -4.8005 C.2     
  31 C31            4.6988     9.5464    -3.9258 C.3     
  32 O32           10.0348    -0.7517    -2.3423 O.3     
  33 C33           12.3146     0.0320    -2.1723 C.3     
  34 C34           11.1069    -0.1728    -3.0890 C.3     
  35 C35           11.4912    -1.1074    -4.2378 C.3     
  36 O36           12.8013    -1.2383    -1.7349 O.3     
  37 C37           13.9351    -1.1594    -0.8686 C.3     
  38 H38           -1.3104    -2.0019    -0.4206 H       
  39 H39           -1.0018    -2.1991    -2.1625 H       
  40 H40            0.6306    -2.7756     0.8828 H       
  41 H41            7.8369    -1.4805    -1.1263 H       
  42 H42            9.4322     0.4692    -4.5757 H       
  43 H43            5.2013     0.0945    -4.1193 H       
  44 H44            3.8429    -0.5196    -3.0509 H       
  45 H45            6.5927     2.4938    -7.7462 H       
  46 H46            5.9090     4.8539    -7.6784 H       
  47 H47            6.1076     4.7764    -3.3943 H       
  48 H48            6.7823     2.4141    -3.4748 H       
  49 H49            5.6103    10.1191    -3.7546 H       
  50 H50            3.9600    10.1781    -4.4189 H       
  51 H51            4.3022     9.2008    -2.9711 H       
  52 H52           13.1006     0.5540    -2.7181 H       
  53 H53           12.0177     0.6249    -1.3072 H       
  54 H54           10.7904     0.7887    -3.4933 H       
  55 H55           11.8077    -2.0689    -3.8336 H       
  56 H56           10.6308    -1.2533    -4.8909 H       
  57 H57           12.3089    -0.6658    -4.8074 H       
  58 H58           14.2435    -2.1646    -0.5813 H       
  59 H59           14.7547    -0.6622    -1.3873 H       
  60 H60           13.6718    -0.5913     0.0236 H       
@<TRIPOS>BOND
   1    1    2 1
   2    1    3 ar
   3    1    4 ar
   4    2    8 1
   5    2   38 1
   6    2   39 1
   7    5    6 1
   8    5    9 1
   9    6    7 2
  10    6   18 1
  11    7    8 1
  12    8    9 2
  13    9   40 1
  14   10   11 1
  15   10   17 2
  16   10   18 am
  17   11   12 ar
  18   11   16 ar
  19   12   13 ar
  20   12   41 1
  21   13   14 ar
  22   13   32 1
  23   14   15 ar
  24   14   42 1
  25   15   16 ar
  26   15   19 1
  27   16   43 1
  28   18   44 1
  29   19   20 1
  30   20   21 ar
  31   20   25 ar
  32   21   22 ar
  33   21   45 1
  34   22   23 ar
  35   22   46 1
  36   23   24 ar
  37   23   27 1
  38   24   25 ar
  39   24   47 1
  40   25   48 1
  41   26   27 1
  42   26   30 1
  43   27   28 2
  44   28   29 1
  45   29   30 2
  46   30   31 1
  47   31   49 1
  48   31   50 1
  49   31   51 1
  50   32   34 1
  51   33   34 1
  52   33   36 1
  53   33   52 1
  54   33   53 1
  55   34   35 1
  56   34   54 1
  57   35   55 1
  58   35   56 1
  59   35   57 1
  60   36   37 1
  61   37   58 1
  62   37   59 1
  63   37   60 1

#	End of record

