#	Name: ASD01901115
#	Creating user name:	WinNT
#	Creation time:	15. 06. 2019 19:53

#	Modifying user name:	WinNT
#	Modification time:	15. 06. 2019 19:53

#	Program:	/corina/corina34_cracker 3.40 0067  02.08.2006

@<TRIPOS>MOLECULE
ASD01901115
  58   62    0    0    0
SMALL
NO_CHARGES


@<TRIPOS>ATOM
   1 C1             0.0892     1.4916    -1.2678 C.ar    
   2 C2             0.0333     0.1140    -1.2592 C.ar    
   3 C3             1.0235    -0.6267    -0.6330 C.ar    
   4 C4             2.0776     0.0051    -0.0020 C.ar    
   5 C5             2.1468     1.3885     0.0014 C.ar    
   6 C6             1.1517     2.1436    -0.6423 C.ar    
   7 N7             3.1841     2.0599     0.6433 N.pl3   
   8 C8             3.5336     3.4036     0.1767 C.3     
   9 N9             2.3686     4.2094    -0.1813 N.am    
  10 C10            1.2462     3.6140    -0.6385 C.2     
  11 C11            2.4160     5.6028    -0.0497 C.ar    
  12 C12            1.9710     6.2057     1.1194 C.ar    
  13 C13            2.0180     7.5797     1.2485 C.ar    
  14 C14            2.5096     8.3578     0.2106 C.ar    
  15 C15            2.9544     7.7562    -0.9577 C.ar    
  16 C16            2.9133     6.3820    -1.0860 C.ar    
  17 O17            0.3185     4.2875    -1.0447 O.2     
  18 O18            2.5552     9.7107     0.3382 O.3     
  19 C19            4.5249     4.1302     1.0962 C.3     
  20 C20            3.0733    10.4498    -0.7697 C.3     
  21 N21            5.1946     4.5736    -0.1472 N.3     
  22 C22            4.6420     3.4145    -0.8844 C.3     
  23 C23            6.6548     4.4715    -0.0239 C.3     
  24 C24            7.2896     4.6922    -1.3727 C.ar    
  25 C25            7.6441     5.9681    -1.7693 C.ar    
  26 C26            8.2263     6.1705    -3.0066 C.ar    
  27 C27            8.4544     5.0971    -3.8472 C.ar    
  28 C28            8.1007     3.8210    -3.4502 C.ar    
  29 C29            7.5224     3.6180    -2.2111 C.ar    
  30 C30            9.0882     5.3179    -5.1965 C.3     
  31 C31           10.6092     5.2127    -5.0688 C.3     
  32 H32           -0.6837     2.0629    -1.7603 H       
  33 H33           -0.7886    -0.3919    -1.7439 H       
  34 H34            0.9704    -1.7053    -0.6381 H       
  35 H35            2.8445    -0.5774     0.4869 H       
  36 H36            3.6625     1.6487     1.3802 H       
  37 H37            1.5879     5.6001     1.9274 H       
  38 H38            1.6716     8.0487     2.1576 H       
  39 H39            3.3370     8.3627    -1.7653 H       
  40 H40            3.2637     5.9135    -1.9938 H       
  41 H41            4.0784     4.9430     1.6690 H       
  42 H42            5.1303     3.4602     1.7067 H       
  43 H43            4.0996    10.1393    -0.9655 H       
  44 H44            2.4616    10.2592    -1.6515 H       
  45 H45            3.0538    11.5145    -0.5372 H       
  46 H46            5.2821     2.5326    -0.8604 H       
  47 H47            4.2889     3.6585    -1.8863 H       
  48 H48            7.0142     5.2270     0.6748 H       
  49 H49            6.9199     3.4805     0.3446 H       
  50 H50            7.4659     6.8068    -1.1126 H       
  51 H51            8.5027     7.1675    -3.3168 H       
  52 H52            8.2785     2.9824    -4.1070 H       
  53 H53            7.2495     2.6207    -1.8995 H       
  54 H54            8.7290     4.5619    -5.8947 H       
  55 H55            8.8221     6.3086    -5.5651 H       
  56 H56           10.9683     5.9688    -4.3706 H       
  57 H57           10.8752     4.2221    -4.7002 H       
  58 H58           11.0676     5.3725    -6.0448 H       
@<TRIPOS>BOND
   1    1    2 ar
   2    1    6 ar
   3    1   32 1
   4    2    3 ar
   5    2   33 1
   6    3    4 ar
   7    3   34 1
   8    4    5 ar
   9    4   35 1
  10    5    7 1
  11    5    6 ar
  12    6   10 1
  13    7    8 1
  14    7   36 1
  15    8    9 1
  16    8   19 1
  17    8   22 1
  18    9   10 am
  19    9   11 1
  20   10   17 2
  21   11   12 ar
  22   11   16 ar
  23   12   13 ar
  24   12   37 1
  25   13   14 ar
  26   13   38 1
  27   14   15 ar
  28   14   18 1
  29   15   16 ar
  30   15   39 1
  31   16   40 1
  32   18   20 1
  33   19   21 1
  34   19   41 1
  35   19   42 1
  36   20   43 1
  37   20   44 1
  38   20   45 1
  39   21   23 1
  40   21   22 1
  41   22   46 1
  42   22   47 1
  43   23   24 1
  44   23   48 1
  45   23   49 1
  46   24   25 ar
  47   24   29 ar
  48   25   26 ar
  49   25   50 1
  50   26   27 ar
  51   26   51 1
  52   27   28 ar
  53   27   30 1
  54   28   29 ar
  55   28   52 1
  56   29   53 1
  57   30   31 1
  58   30   54 1
  59   30   55 1
  60   31   56 1
  61   31   57 1
  62   31   58 1

#	End of record

