#	Name: ASD01917422
#	Creating user name:	WinNT
#	Creation time:	15. 06. 2019 20:09

#	Modifying user name:	WinNT
#	Modification time:	15. 06. 2019 20:09

#	Program:	/corina/corina34_cracker 3.40 0067  02.08.2006

@<TRIPOS>MOLECULE
ASD01917422
  39   41    0    0    0
SMALL
NO_CHARGES


@<TRIPOS>ATOM
   1 C1            -0.0187     1.5352     0.0104 C.3     
   2 C2            -0.0011    -0.0035     0.0084 C.3     
   3 C3             1.0309    -0.4917     1.0268 C.3     
   4 C4             0.7302     0.0898     2.4095 C.3     
   5 C5             0.6813     1.6245     2.3082 C.3     
   6 C6             1.8994     2.0720     1.4677 C.3     
   7 C7             1.4511     2.0149    -0.0038 C.3     
   8 C8            -0.5329     1.9729     1.4073 C.3     
   9 C9            -0.8262     2.1052    -1.1271 C.2     
  10 O10           -0.3000     2.8400    -1.9357 O.2     
  11 N11           -2.1332     1.7984    -1.2458 N.am    
  12 C12           -3.1160     3.9452    -3.9274 C.ar    
  13 N13           -2.3892     3.3661    -2.9931 N.ar    
  14 C14           -2.9036     2.4072    -2.2303 C.ar    
  15 C15           -4.2289     2.0207    -2.4331 C.ar    
  16 C16           -4.9529     2.6555    -3.4241 C.ar    
  17 N17           -4.3699     3.6032    -4.1441 N.ar    
  18 C18           -2.4977     5.0330    -4.7673 C.3     
  19 N19            0.6329     2.2745     3.6247 N.3     
  20 H20           -0.9875    -0.3798     0.2797 H       
  21 H21            0.2677    -0.3638    -0.9846 H       
  22 H22            0.9996    -1.5800     1.0786 H       
  23 H23            2.0257    -0.1767     0.7116 H       
  24 H24           -0.2318    -0.2833     2.7608 H       
  25 H25            1.5140    -0.2048     3.1074 H       
  26 H26            2.1841     3.0901     1.7333 H       
  27 H27            2.7367     1.3936     1.6309 H       
  28 H28            2.0703     1.3086    -0.5569 H       
  29 H29            1.5177     3.0051    -0.4545 H       
  30 H30           -0.7418     3.0425     1.4294 H       
  31 H31           -1.4126     1.3984     1.6976 H       
  32 H32           -2.5364     1.1529    -0.6445 H       
  33 H33           -4.6774     1.2445    -1.8308 H       
  34 H34           -5.9813     2.3827    -3.6098 H       
  35 H35           -2.0348     4.5917    -5.6500 H       
  36 H36           -3.2704     5.7372    -5.0759 H       
  37 H37           -1.7408     5.5569    -4.1836 H       
  38 H38            1.4404     2.0304     4.1784 H       
  39 H39            0.5481     3.2755     3.5309 H       
@<TRIPOS>BOND
   1    1    2 1
   2    1    7 1
   3    1    8 1
   4    1    9 1
   5    2    3 1
   6    2   20 1
   7    2   21 1
   8    3    4 1
   9    3   22 1
  10    3   23 1
  11    4    5 1
  12    4   24 1
  13    4   25 1
  14    5    6 1
  15    5    8 1
  16    5   19 1
  17    6    7 1
  18    6   26 1
  19    6   27 1
  20    7   28 1
  21    7   29 1
  22    8   30 1
  23    8   31 1
  24    9   10 2
  25    9   11 am
  26   11   14 1
  27   11   32 1
  28   12   13 ar
  29   12   17 ar
  30   12   18 1
  31   13   14 ar
  32   14   15 ar
  33   15   16 ar
  34   15   33 1
  35   16   17 ar
  36   16   34 1
  37   18   35 1
  38   18   36 1
  39   18   37 1
  40   19   38 1
  41   19   39 1

#	End of record

