#	Name: ASD07730003
#	Creating user name:	WinNT
#	Creation time:	15. 06. 2019 21:11

#	Modifying user name:	WinNT
#	Modification time:	15. 06. 2019 21:11

#	Program:	/corina/corina34_cracker 3.40 0067  02.08.2006

@<TRIPOS>MOLECULE
ASD07730003
  39   41    0    0    0
SMALL
NO_CHARGES


@<TRIPOS>ATOM
   1 N1            -0.0110     1.3091    -0.0491 N.ar    
   2 C2             0.0082    -0.0028    -0.0744 C.ar    
   3 C3             1.2034    -0.7165    -0.1035 C.ar    
   4 C4             2.3956    -0.0490    -0.1061 C.ar    
   5 C5             2.3690     1.3586    -0.0789 C.ar    
   6 C6             3.5553     2.1102    -0.0797 C.ar    
   7 C7             3.5016     3.4724    -0.0530 C.ar    
   8 C8             2.2848     4.1410    -0.0247 C.ar    
   9 C9             1.0890     3.4370    -0.0223 C.ar    
  10 C10            1.1173     2.0197    -0.0501 C.ar    
  11 C11           -0.1977     4.1555     0.0089 C.2     
  12 O12           -1.2422     3.5324     0.0108 O.2     
  13 N13           -0.2167     5.5028     0.0352 N.am    
  14 C14           -1.4352     6.1879    -0.0544 C.ar    
  15 C15           -1.6122     7.3890     0.6290 C.ar    
  16 C16           -2.8178     8.0646     0.5390 C.ar    
  17 C17           -3.8462     7.5476    -0.2286 C.ar    
  18 C18           -3.6725     6.3514    -0.9104 C.ar    
  19 C19           -2.4654     5.6746    -0.8283 C.ar    
  20 O20           -4.6852     5.8456    -1.6642 O.3     
  21 C21           -4.4374     4.6105    -2.3388 C.3     
  22 O22           -0.6017     7.8976     1.3848 O.3     
  23 C23           -0.8532     9.1328     2.0578 C.3     
  24 Cl24          -5.3566     8.3963    -0.3386 Cl      
  25 H25           -0.9270    -0.5429    -0.0723 H       
  26 H26            1.1882    -1.7962    -0.1236 H       
  27 H27            3.3323    -0.5860    -0.1282 H       
  28 H28            4.5115     1.6085    -0.1012 H       
  29 H29            4.4201     4.0405    -0.0536 H       
  30 H30            2.2690     5.2206    -0.0039 H       
  31 H31            0.6133     5.9981     0.1163 H       
  32 H32           -2.9554     8.9957     1.0686 H       
  33 H33           -2.3288     4.7462    -1.3628 H       
  34 H34           -4.2026     3.8375    -1.6071 H       
  35 H35           -5.3240     4.3200    -2.9024 H       
  36 H36           -3.5965     4.7318    -3.0216 H       
  37 H37           -1.0879     9.9047     1.3249 H       
  38 H38           -1.6953     9.0105     2.7390 H       
  39 H39            0.0317     9.4254     2.6230 H       
@<TRIPOS>BOND
   1    1    2 ar
   2    1   10 ar
   3    2    3 ar
   4    2   25 1
   5    3    4 ar
   6    3   26 1
   7    4    5 ar
   8    4   27 1
   9    5    6 ar
  10    5   10 ar
  11    6    7 ar
  12    6   28 1
  13    7    8 ar
  14    7   29 1
  15    8    9 ar
  16    8   30 1
  17    9   10 ar
  18    9   11 1
  19   11   12 2
  20   11   13 am
  21   13   14 1
  22   13   31 1
  23   14   15 ar
  24   14   19 ar
  25   15   16 ar
  26   15   22 1
  27   16   17 ar
  28   16   32 1
  29   17   18 ar
  30   17   24 1
  31   18   19 ar
  32   18   20 1
  33   19   33 1
  34   20   21 1
  35   21   34 1
  36   21   35 1
  37   21   36 1
  38   22   23 1
  39   23   37 1
  40   23   38 1
  41   23   39 1

#	End of record

