#	Name: ASD01881570
#	Creating user name:	WinNT
#	Creation time:	15. 06. 2019 19:42

#	Modifying user name:	WinNT
#	Modification time:	15. 06. 2019 19:42

#	Program:	/corina/corina34_cracker 3.40 0067  02.08.2006

@<TRIPOS>MOLECULE
ASD01881570
  44   47    0    0    0
SMALL
NO_CHARGES


@<TRIPOS>ATOM
   1 C1            -0.0166     1.3755     0.0096 C.2     
   2 N2             0.0021    -0.0041     0.0020 N.pl3   
   3 C3            -1.2251    -0.8000    -0.0166 C.3     
   4 C4            -2.3385    -0.0258     0.6891 C.3     
   5 N5            -2.4105     1.3657     0.2580 N.am    
   6 C6            -1.2988     2.1061     0.0395 C.2     
   7 N7             1.2112     1.8147     0.0002 N.2     
   8 C8             2.0515     0.7810    -0.0010 C.2     
   9 C9             1.3027    -0.3850     0.0047 C.2     
  10 C10           -3.7249     1.9799     0.0548 C.3     
  11 C11           -4.1963     2.6200     1.3621 C.3     
  12 C12           -5.5147     3.3997     1.2259 C.3     
  13 C13           -5.9091     2.8173     2.5934 C.3     
  14 C14           -4.9558     1.6511     2.2836 C.3     
  15 Cl15           3.7848     0.8779    -0.0095 Cl      
  16 C16            1.8197    -1.7688     0.0123 C.ar    
  17 C17            2.8653    -2.1304    -0.8400 C.ar    
  18 C18            3.3446    -3.4224    -0.8299 C.ar    
  19 C19            2.7893    -4.3645     0.0265 C.ar    
  20 C20            1.7493    -4.0090     0.8758 C.ar    
  21 C21            1.2680    -2.7176     0.8760 C.ar    
  22 O22            3.2643    -5.6371     0.0332 O.3     
  23 C23            2.6478    -6.5550     0.9384 C.3     
  24 O24           -1.3534     3.3104    -0.1231 O.2     
  25 H25           -1.5159    -0.9964    -1.0485 H       
  26 H26           -1.0543    -1.7443     0.5003 H       
  27 H27           -3.2923    -0.5098     0.4792 H       
  28 H28           -2.1604    -0.0531     1.7641 H       
  29 H29           -3.6531     2.7444    -0.7189 H       
  30 H30           -4.4389     1.2164    -0.2540 H       
  31 H31           -3.4088     3.1788     1.8678 H       
  32 H32           -5.3848     4.4819     1.2332 H       
  33 H33           -6.1440     3.0535     0.4060 H       
  34 H34           -5.5903     3.4295     3.4370 H       
  35 H35           -6.9560     2.5206     2.6561 H       
  36 H36           -5.4323     0.8268     1.7529 H       
  37 H37           -4.3746     1.3216     3.1449 H       
  38 H38            3.2974    -1.3985    -1.5065 H       
  39 H39            4.1529    -3.7029    -1.4889 H       
  40 H40            1.3203    -4.7445     1.5402 H       
  41 H41            0.4595    -2.4420     1.5369 H       
  42 H42            3.1203    -7.5326     0.8425 H       
  43 H43            2.7661    -6.1929     1.9597 H       
  44 H44            1.5868    -6.6397     0.7035 H       
@<TRIPOS>BOND
   1    1    2 1
   2    1    7 2
   3    1    6 1
   4    2    3 1
   5    2    9 1
   6    3    4 1
   7    3   25 1
   8    3   26 1
   9    4    5 1
  10    4   27 1
  11    4   28 1
  12    5    6 am
  13    5   10 1
  14    6   24 2
  15    7    8 1
  16    8    9 2
  17    8   15 1
  18    9   16 1
  19   10   11 1
  20   10   29 1
  21   10   30 1
  22   11   12 1
  23   11   14 1
  24   11   31 1
  25   12   13 1
  26   12   32 1
  27   12   33 1
  28   13   14 1
  29   13   34 1
  30   13   35 1
  31   14   36 1
  32   14   37 1
  33   16   17 ar
  34   16   21 ar
  35   17   18 ar
  36   17   38 1
  37   18   19 ar
  38   18   39 1
  39   19   20 ar
  40   19   22 1
  41   20   21 ar
  42   20   40 1
  43   21   41 1
  44   22   23 1
  45   23   42 1
  46   23   43 1
  47   23   44 1

#	End of record

