#	Name: ASD03740114
#	Creating user name:	WinNT
#	Creation time:	15. 06. 2019 20:46

#	Modifying user name:	WinNT
#	Modification time:	15. 06. 2019 20:46

#	Program:	/corina/corina34_cracker 3.40 0067  02.08.2006

@<TRIPOS>MOLECULE
ASD03740114
  35   37    0    0    0
SMALL
NO_CHARGES


@<TRIPOS>ATOM
   1 C1            -0.0167     1.3815     0.0096 C.ar    
   2 C2             0.0021    -0.0041     0.0020 C.ar    
   3 C3             1.2003    -0.6897    -0.0132 C.ar    
   4 C4             2.3987     0.0098    -0.0209 C.ar    
   5 C5             2.3803     1.4148    -0.0132 C.ar    
   6 C6             1.1644     2.0940     0.0022 C.ar    
   7 N7             3.7265    -0.3879    -0.0358 N.pl3   
   8 N8             4.5509     0.7417    -0.0376 N.am    
   9 C9             3.7874     1.8530    -0.0243 C.2     
  10 C10            4.1938    -1.7764    -0.0477 C.3     
  11 C11            4.3426    -2.2520    -1.4943 C.3     
  12 C12            4.9481    -3.6570    -1.5094 C.3     
  13 C13            5.0969    -4.1326    -2.9560 C.3     
  14 C14            3.7223    -4.1623    -3.6271 C.3     
  15 C15            3.1168    -2.7573    -3.6119 C.3     
  16 C16            2.9680    -2.2817    -2.1653 C.3     
  17 O17            4.1854     3.0020    -0.0219 O.2     
  18 H18           -0.9607     1.9061     0.0170 H       
  19 H19           -0.9285    -0.5522     0.0084 H       
  20 H20            1.2050    -1.7697    -0.0186 H       
  21 H21            1.1464     3.1738     0.0078 H       
  22 H22            5.5207     0.7279    -0.0470 H       
  23 H23            5.1581    -1.8395     0.4566 H       
  24 H24            3.4711    -2.4074     0.4697 H       
  25 H25            4.9966    -1.5686    -2.0359 H       
  26 H26            5.9274    -3.6358    -1.0314 H       
  27 H27            4.2941    -4.3403    -0.9678 H       
  28 H28            5.7509    -3.4492    -3.4977 H       
  29 H29            5.5283    -5.1335    -2.9668 H       
  30 H30            3.8283    -4.5012    -4.6576 H       
  31 H31            3.0683    -4.8457    -3.0854 H       
  32 H32            3.7708    -2.0740    -4.1535 H       
  33 H33            2.1375    -2.7785    -4.0900 H       
  34 H34            2.3139    -2.9651    -1.6236 H       
  35 H35            2.5366    -1.2808    -2.1545 H       
@<TRIPOS>BOND
   1    1    2 ar
   2    1    6 ar
   3    1   18 1
   4    2    3 ar
   5    2   19 1
   6    3    4 ar
   7    3   20 1
   8    4    5 ar
   9    4    7 1
  10    5    6 ar
  11    5    9 1
  12    6   21 1
  13    7    8 1
  14    7   10 1
  15    8    9 am
  16    8   22 1
  17    9   17 2
  18   10   11 1
  19   10   23 1
  20   10   24 1
  21   11   12 1
  22   11   16 1
  23   11   25 1
  24   12   13 1
  25   12   26 1
  26   12   27 1
  27   13   14 1
  28   13   28 1
  29   13   29 1
  30   14   15 1
  31   14   30 1
  32   14   31 1
  33   15   16 1
  34   15   32 1
  35   15   33 1
  36   16   34 1
  37   16   35 1

#	End of record

