#	Name: ASD02039248
#	Creating user name:	WinNT
#	Creation time:	15. 06. 2019 20:17

#	Modifying user name:	WinNT
#	Modification time:	15. 06. 2019 20:17

#	Program:	/corina/corina34_cracker 3.40 0067  02.08.2006

@<TRIPOS>MOLECULE
ASD02039248
  44   47    0    0    0
SMALL
NO_CHARGES


@<TRIPOS>ATOM
   1 N1            -0.0160     1.3037    -0.0273 N.2     
   2 C2             0.0019    -0.0039     0.0000 C.2     
   3 C3             1.3718    -0.3810     0.0200 C.2     
   4 C4             2.0347     0.7972     0.0013 C.2     
   5 O5             1.1031     1.7614    -0.0269 O.3     
   6 N6            -1.0992    -0.8547     0.0084 N.pl3   
   7 C7            -0.9159    -2.2379    -0.1060 C.ar    
   8 C8             0.1064    -2.7398    -0.9010 C.ar    
   9 C9             0.2873    -4.1044    -1.0132 C.ar    
  10 C10           -0.5518    -4.9741    -0.3328 C.ar    
  11 C11           -1.5741    -4.4738     0.4617 C.ar    
  12 C12           -1.7524    -3.1084     0.5798 C.ar    
  13 O13            4.0146     1.0218    -1.3322 O.3     
  14 C14            5.3532     1.1900    -1.5012 C.ar    
  15 C15            6.1809     1.3213    -0.3890 C.ar    
  16 C16            7.5394     1.4920    -0.5411 C.ar    
  17 C17            8.0959     1.5346    -1.8148 C.ar    
  18 C18            7.2628     1.4023    -2.9419 C.ar    
  19 C19            5.8858     1.2242    -2.7745 C.ar    
  20 C20            3.5294     0.9895     0.0115 C.3     
  21 O21           -0.3731    -6.3178    -0.4444 O.3     
  22 C22            0.6980    -6.7627    -1.2791 C.3     
  23 N23            9.4544     1.7058    -1.9882 N.am    
  24 C24            9.9947     1.7482    -3.2186 C.2     
  25 C25            9.2031     1.6209    -4.3800 C.2     
  26 C26            7.8619     1.4499    -4.2770 C.2     
  27 O27           11.1985     1.9009    -3.3339 O.2     
  28 Cl28          -2.6247    -5.5632     1.3122 Cl      
  29 H29            1.7871    -1.3777     0.0446 H       
  30 H30           -1.9937    -0.4894     0.0934 H       
  31 H31            0.7597    -2.0631    -1.4316 H       
  32 H32            1.0823    -4.4944    -1.6315 H       
  33 H33           -2.5475    -2.7189     1.1982 H       
  34 H34            5.7536     1.2893     0.6024 H       
  35 H35            8.1719     1.5931     0.3285 H       
  36 H36            5.2423     1.1218    -3.6357 H       
  37 H37            3.7714     1.9293     0.5079 H       
  38 H38            3.9982     0.1643     0.5474 H       
  39 H39            0.7294    -7.8522    -1.2801 H       
  40 H40            0.5399    -6.4028    -2.2958 H       
  41 H41            1.6417    -6.3724    -0.8982 H       
  42 H42           10.0276     1.7972    -1.2111 H       
  43 H43            9.6673     1.6595    -5.3543 H       
  44 H44            7.2489     1.3509    -5.1607 H       
@<TRIPOS>BOND
   1    1    2 2
   2    1    5 1
   3    2    3 1
   4    2    6 1
   5    3    4 2
   6    3   29 1
   7    4    5 1
   8    4   20 1
   9    6    7 1
  10    6   30 1
  11    7    8 ar
  12    7   12 ar
  13    8    9 ar
  14    8   31 1
  15    9   10 ar
  16    9   32 1
  17   10   11 ar
  18   10   21 1
  19   11   12 ar
  20   11   28 1
  21   12   33 1
  22   13   14 1
  23   13   20 1
  24   14   15 ar
  25   14   19 ar
  26   15   16 ar
  27   15   34 1
  28   16   17 ar
  29   16   35 1
  30   17   18 ar
  31   17   23 1
  32   18   19 ar
  33   18   26 1
  34   19   36 1
  35   20   37 1
  36   20   38 1
  37   21   22 1
  38   22   39 1
  39   22   40 1
  40   22   41 1
  41   23   24 am
  42   23   42 1
  43   24   25 1
  44   24   27 2
  45   25   26 2
  46   25   43 1
  47   26   44 1

#	End of record

