#	Name: ASD04881203
#	Creating user name:	WinNT
#	Creation time:	15. 06. 2019 20:53

#	Modifying user name:	WinNT
#	Modification time:	15. 06. 2019 20:53

#	Program:	/corina/corina34_cracker 3.40 0067  02.08.2006

@<TRIPOS>MOLECULE
ASD04881203
  82   87    0    0    0
SMALL
NO_CHARGES


@<TRIPOS>ATOM
   1 N1             1.6867     0.3343     1.6082 N.3     
   2 C2             2.2119     1.4204     0.7690 C.3     
   3 C3             3.0412     0.8250    -0.3713 C.3     
   4 N4             2.2011    -0.0870    -1.1601 N.3     
   5 C5             1.6759    -1.1730    -0.3209 C.3     
   6 C6             0.8466    -0.5776     0.8194 C.3     
   7 C7             2.9027    -0.5938    -2.2509 C.ar    
   8 C8             3.2098    -1.9484    -2.3101 C.ar    
   9 C9             3.9038    -2.4539    -3.3869 C.ar    
  10 C10            4.3013    -1.6056    -4.4242 C.ar    
  11 C11            3.9934    -0.2434    -4.3673 C.ar    
  12 C12            3.2921     0.2589    -3.2875 C.ar    
  13 N13            2.9765     1.6228    -3.2294 N.am    
  14 C14            3.8304     2.5343    -3.7361 C.2     
  15 C15            3.5486     3.9730    -3.5833 C.2     
  16 O16            4.8335     2.1696    -4.3194 O.2     
  17 N17            2.4726     4.5242    -2.9589 N.2     
  18 C18            2.5739     5.8177    -3.0288 C.2     
  19 O19            3.6965     6.1381    -3.6877 O.3     
  20 C20            4.3188     5.0002    -4.0351 C.2     
  21 C21            5.0452    -2.1472    -5.5773 C.2     
  22 N22            5.3420    -3.4608    -5.6310 N.am    
  23 O23            5.3906    -1.4085    -6.4793 O.2     
  24 C24            1.5850     6.8023    -2.4598 C.3     
  25 C25            2.0949     7.7860    -1.4048 C.3     
  26 C26            1.7723     8.2782    -2.8171 C.3     
  27 C27            0.9830     0.8427     2.7024 C.ar    
  28 C28           -0.3893     0.6487     2.7987 C.ar    
  29 C29           -1.0818     1.1523     3.8820 C.ar    
  30 C30           -0.4109     1.8495     4.8702 C.ar    
  31 C31            0.9548     2.0445     4.7775 C.ar    
  32 C32            1.6545     1.5385     3.6994 C.ar    
  33 C33            3.1440     1.7461     3.6022 C.3     
  34 C34            6.0807    -3.9987    -6.7761 C.3     
  35 C35            6.2847    -5.5036    -6.5901 C.3     
  36 C36            7.0562    -6.0653    -7.7860 C.3     
  37 N37            7.2521    -7.5102    -7.6075 N.3     
  38 C38            7.7775    -8.1283    -8.8387 C.3     
  39 C39            9.0968    -8.8373    -8.4672 C.3     
  40 C40            8.9540    -9.0632    -6.9390 C.3     
  41 C41            8.1962    -7.7844    -6.5032 C.3     
  42 O42            9.2105   -10.0853    -9.1540 O.3     
  43 H43            1.3824     1.9934     0.3547 H       
  44 H44            2.8407     2.0748     1.3727 H       
  45 H45            3.4078     1.6272    -1.0117 H       
  46 H46            3.8862     0.2747     0.0425 H       
  47 H47            1.0471    -1.8275    -0.9246 H       
  48 H48            2.5054    -1.7461     0.0935 H       
  49 H49            0.4801    -1.3799     1.4598 H       
  50 H50            0.0016    -0.0273     0.4056 H       
  51 H51            2.9037    -2.6057    -1.5097 H       
  52 H52            4.1415    -3.5065    -3.4296 H       
  53 H53            4.2995     0.4145    -5.1672 H       
  54 H54            2.1435     1.9111    -2.8246 H       
  55 H55            5.2517     4.9160    -4.5726 H       
  56 H56            5.0665    -4.0501    -4.9115 H       
  57 H57            0.5641     6.4354    -2.3541 H       
  58 H58            1.4093     8.0666    -0.6052 H       
  59 H59            3.1456     7.7211    -1.1222 H       
  60 H60            2.6108     8.5370    -3.4636 H       
  61 H61            0.8745     8.8825    -2.9466 H       
  62 H62           -0.9139     0.1049     2.0270 H       
  63 H63           -2.1486     1.0018     3.9575 H       
  64 H64           -0.9551     2.2430     5.7161 H       
  65 H65            1.4756     2.5894     5.5509 H       
  66 H66            3.3468     2.7165     3.1492 H       
  67 H67            3.5814     1.7124     4.6001 H       
  68 H68            3.5811     0.9595     2.9872 H       
  69 H69            5.5150    -3.8190    -7.6903 H       
  70 H70            7.0507    -3.5065    -6.8464 H       
  71 H71            6.8504    -5.6833    -5.6759 H       
  72 H72            5.3147    -5.9958    -6.5199 H       
  73 H73            6.4905    -5.8856    -8.7002 H       
  74 H74            8.0262    -5.5731    -7.8563 H       
  75 H75            7.0617    -8.8548    -9.2234 H       
  76 H76            7.9677    -7.3595    -9.5875 H       
  77 H77            9.9524    -8.1976    -8.6840 H       
  78 H78            8.3654    -9.9564    -6.7297 H       
  79 H79            9.9313    -9.1203    -6.4598 H       
  80 H80            8.8915    -6.9535    -6.3832 H       
  81 H81            7.6531    -7.9629    -5.5752 H       
  82 H82           10.0226   -10.5711    -8.9552 H       
@<TRIPOS>BOND
   1    1    2 1
   2    1    6 1
   3    1   27 1
   4    2    3 1
   5    2   43 1
   6    2   44 1
   7    3    4 1
   8    3   45 1
   9    3   46 1
  10    4    5 1
  11    4    7 1
  12    5    6 1
  13    5   47 1
  14    5   48 1
  15    6   49 1
  16    6   50 1
  17    7    8 ar
  18    7   12 ar
  19    8    9 ar
  20    8   51 1
  21    9   10 ar
  22    9   52 1
  23   10   11 ar
  24   10   21 1
  25   11   12 ar
  26   11   53 1
  27   12   13 1
  28   13   14 am
  29   13   54 1
  30   14   15 1
  31   14   16 2
  32   15   17 1
  33   15   20 2
  34   17   18 2
  35   18   19 1
  36   18   24 1
  37   19   20 1
  38   20   55 1
  39   21   22 am
  40   21   23 2
  41   22   34 1
  42   22   56 1
  43   24   25 1
  44   24   26 1
  45   24   57 1
  46   25   26 1
  47   25   58 1
  48   25   59 1
  49   26   60 1
  50   26   61 1
  51   27   28 ar
  52   27   32 ar
  53   28   29 ar
  54   28   62 1
  55   29   30 ar
  56   29   63 1
  57   30   31 ar
  58   30   64 1
  59   31   32 ar
  60   31   65 1
  61   32   33 1
  62   33   66 1
  63   33   67 1
  64   33   68 1
  65   34   35 1
  66   34   69 1
  67   34   70 1
  68   35   36 1
  69   35   71 1
  70   35   72 1
  71   36   37 1
  72   36   73 1
  73   36   74 1
  74   37   38 1
  75   37   41 1
  76   38   39 1
  77   38   75 1
  78   38   76 1
  79   39   40 1
  80   39   42 1
  81   39   77 1
  82   40   41 1
  83   40   78 1
  84   40   79 1
  85   41   80 1
  86   41   81 1
  87   42   82 1

#	End of record

