#	Name: ASD02490002
#	Creating user name:	WinNT
#	Creation time:	15. 06. 2019 20:22

#	Modifying user name:	WinNT
#	Modification time:	15. 06. 2019 20:22

#	Program:	/corina/corina34_cracker 3.40 0067  02.08.2006

@<TRIPOS>MOLECULE
ASD02490002
   8    7    0    0    0
SMALL
NO_CHARGES


@<TRIPOS>ATOM
   1 C1            -0.0184     1.5028     0.0103 C.2     
   2 C2             0.0021    -0.0041     0.0020 C.3     
   3 O3             1.0197     2.1211     0.0037 O.2     
   4 O4            -1.1898     2.1580     0.0194 O.3     
   5 Cl5           -0.9779    -0.6108    -1.3844 Cl      
   6 Cl6            1.7020    -0.5812    -0.1655 Cl      
   7 H7            -0.4184    -0.3783     0.9355 H       
   8 H8            -1.1523     3.1243     0.0245 H       
@<TRIPOS>BOND
   1    1    2 1
   2    1    3 2
   3    1    4 1
   4    2    5 1
   5    2    6 1
   6    2    7 1
   7    4    8 1

#	End of record

