#	Name: ASD08150913
#	Creating user name:	WinNT
#	Creation time:	15. 06. 2019 21:16

#	Modifying user name:	WinNT
#	Modification time:	15. 06. 2019 21:16

#	Program:	/corina/corina34_cracker 3.40 0067  02.08.2006

@<TRIPOS>MOLECULE
ASD08150913
  48   52    0    0    0
SMALL
NO_CHARGES


@<TRIPOS>ATOM
   1 N1            -0.2719     1.4096     0.0606 N.2     
   2 C2            -0.6754     0.2768     0.5582 C.2     
   3 N3            -0.3436     0.2034     1.8783 N.pl3   
   4 C4             0.3041     1.3679     2.2050 C.ar    
   5 N5             0.8479     1.8603     3.3130 N.ar    
   6 C6             1.4158     3.0479     3.3113 C.ar    
   7 N7             1.4760     3.8032     2.2299 N.ar    
   8 C8             0.9594     3.3947     1.0754 C.ar    
   9 C9             0.3427     2.1332     1.0270 C.ar    
  10 N10            1.0269     4.1936    -0.0526 N.pl3   
  11 C11            1.6735     5.5064     0.0171 C.3     
  12 C12            2.1603     5.9097    -1.3761 C.3     
  13 N13            0.5986     9.7958     2.1286 N.ar    
  14 N14           -0.2570    10.6560     2.5518 N.ar    
  15 C15           -1.5681    10.4804     2.4643 C.ar    
  16 C16           -2.0848     9.3451     1.9049 C.ar    
  17 C17           -1.1744     8.3816     1.4303 C.ar    
  18 C18           -1.5991     7.1825     0.8401 C.ar    
  19 C19           -0.6783     6.2804     0.3969 C.ar    
  20 C20            0.6850     6.5272     0.5189 C.ar    
  21 C21            1.1452     7.6976     1.0955 C.ar    
  22 C22            0.2114     8.6515     1.5644 C.ar    
  23 C23           -3.0708     6.8912     0.6972 C.3     
  24 C24            2.5998     7.9491     1.2209 C.ar    
  25 C25            3.1913     8.9997     0.5203 C.ar    
  26 C26            4.5485     9.2293     0.6419 C.ar    
  27 C27            5.3201     8.4172     1.4579 C.ar    
  28 C28            4.7370     7.3744     2.1543 C.ar    
  29 C29            3.3814     7.1396     2.0446 C.ar    
  30 F30            5.1241    10.2465    -0.0358 F       
  31 H31           -1.1966    -0.4917     0.0066 H       
  32 H32           -0.5313    -0.5364     2.4770 H       
  33 H33            1.8484     3.4185     4.2289 H       
  34 H34            0.6462     3.8844    -0.8894 H       
  35 H35            2.5227     5.4573     0.6987 H       
  36 H36            1.3111     5.9588    -2.0577 H       
  37 H37            2.6414     6.8865    -1.3243 H       
  38 H38            2.8753     5.1714    -1.7391 H       
  39 H39           -2.2353    11.2424     2.8393 H       
  40 H40           -3.1514     9.1929     1.8299 H       
  41 H41           -1.0128     5.3589    -0.0563 H       
  42 H42           -3.4259     7.2749    -0.2593 H       
  43 H43           -3.2338     5.8143     0.7397 H       
  44 H44           -3.6170     7.3737     1.5076 H       
  45 H45            2.5902     9.6321    -0.1162 H       
  46 H46            6.3806     8.5992     1.5501 H       
  47 H47            5.3432     6.7448     2.7887 H       
  48 H48            2.9272     6.3274     2.5928 H       
@<TRIPOS>BOND
   1    1    2 2
   2    1    9 1
   3    2    3 1
   4    2   31 1
   5    3    4 1
   6    3   32 1
   7    4    5 ar
   8    4    9 ar
   9    5    6 ar
  10    6    7 ar
  11    6   33 1
  12    7    8 ar
  13    8    9 ar
  14    8   10 1
  15   10   11 1
  16   10   34 1
  17   11   12 1
  18   11   20 1
  19   11   35 1
  20   12   36 1
  21   12   37 1
  22   12   38 1
  23   13   14 ar
  24   13   22 ar
  25   14   15 ar
  26   15   16 ar
  27   15   39 1
  28   16   17 ar
  29   16   40 1
  30   17   18 ar
  31   17   22 ar
  32   18   19 ar
  33   18   23 1
  34   19   20 ar
  35   19   41 1
  36   20   21 ar
  37   21   22 ar
  38   21   24 1
  39   23   42 1
  40   23   43 1
  41   23   44 1
  42   24   25 ar
  43   24   29 ar
  44   25   26 ar
  45   25   45 1
  46   26   27 ar
  47   26   30 1
  48   27   28 ar
  49   27   46 1
  50   28   29 ar
  51   28   47 1
  52   29   48 1

#	End of record

