#	Name: ASD03092263
#	Creating user name:	WinNT
#	Creation time:	15. 06. 2019 20:32

#	Modifying user name:	WinNT
#	Modification time:	15. 06. 2019 20:32

#	Program:	/corina/corina34_cracker 3.40 0067  02.08.2006

@<TRIPOS>MOLECULE
ASD03092263
  54   56    0    0    0
SMALL
NO_CHARGES


@<TRIPOS>ATOM
   1 C1             0.9360    -0.3026    -0.6378 C.3     
   2 O2             0.2219    -0.4757     0.5878 O.3     
   3 C3            -1.0123    -1.0401     0.5086 C.ar    
   4 C4            -1.5214    -1.4241    -0.7237 C.ar    
   5 C5            -2.7746    -1.9978    -0.8047 C.ar    
   6 C6            -3.5255    -2.1904     0.3472 C.ar    
   7 C7            -3.0155    -1.8060     1.5801 C.ar    
   8 C8            -1.7600    -1.2373     1.6606 C.ar    
   9 N9            -4.7987    -2.7727     0.2654 N.pl3   
  10 N10           -5.9633    -2.3436     0.9226 N.2     
  11 C11           -6.9229    -3.1664     0.5687 C.2     
  12 N12           -8.2500    -3.0990     0.9968 N.pl3   
  13 C13           -8.6253    -2.1633     1.9643 C.ar    
  14 C14           -9.9181    -1.6542     1.9752 C.ar    
  15 C15          -10.2887    -0.7287     2.9316 C.ar    
  16 C16           -9.3758    -0.3073     3.8795 C.ar    
  17 C17           -8.0829    -0.8128     3.8738 C.ar    
  18 O18           -7.1866    -0.3976     4.8071 O.3     
  19 C19           -7.6430     0.5608     5.7638 C.3     
  20 F20           -8.7157     0.0254     6.4849 F       
  21 F21           -6.6008     0.8751     6.6426 F       
  22 F22           -8.0593     1.7201     5.1005 F       
  23 C23           -7.7085    -1.7452     2.9196 C.ar    
  24 N24           -6.4211    -4.0795    -0.2688 N.2     
  25 C25           -5.1472    -3.8499    -0.4632 C.2     
  26 C26           -4.2286    -4.6544    -1.3465 C.3     
  27 C27           -3.6969    -5.8586    -0.5668 C.3     
  28 C28           -2.6898    -6.5979    -1.4096 C.2     
  29 O29           -2.4236    -6.2007    -2.5241 O.2     
  30 N30           -2.0851    -7.7004    -0.9248 N.am    
  31 C31           -1.1060    -8.4191    -1.7441 C.3     
  32 C32           -2.4067    -8.1803     0.4215 C.3     
  33 H33            1.9030     0.1568    -0.4330 H       
  34 H34            1.0876    -1.2731    -1.1102 H       
  35 H35            0.3621     0.3406    -1.3049 H       
  36 H36           -0.9374    -1.2738    -1.6197 H       
  37 H37           -3.1709    -2.2963    -1.7640 H       
  38 H38           -3.5993    -1.9553     2.4764 H       
  39 H39           -1.3615    -0.9420     2.6199 H       
  40 H40           -8.9116    -3.7016     0.6226 H       
  41 H41          -10.6335    -1.9819     1.2355 H       
  42 H42          -11.2938    -0.3336     2.9382 H       
  43 H43           -9.6685     0.4166     4.6256 H       
  44 H44           -6.7043    -2.1425     2.9162 H       
  45 H45           -4.7781    -5.0018    -2.2214 H       
  46 H46           -3.3936    -4.0309    -1.6659 H       
  47 H47           -3.2202    -5.5153     0.3514 H       
  48 H48           -4.5232    -6.5252    -0.3198 H       
  49 H49           -0.1109    -8.0143    -1.5598 H       
  50 H50           -1.1216    -9.4775    -1.4840 H       
  51 H51           -1.3572    -8.3002    -2.7981 H       
  52 H52           -3.1492    -7.5228     0.8738 H       
  53 H53           -2.8066    -9.1924     0.3606 H       
  54 H54           -1.5035    -8.1825     1.0318 H       
@<TRIPOS>BOND
   1    1    2 1
   2    1   33 1
   3    1   34 1
   4    1   35 1
   5    2    3 1
   6    3    8 ar
   7    3    4 ar
   8    4    5 ar
   9    4   36 1
  10    5    6 ar
  11    5   37 1
  12    6    7 ar
  13    6    9 1
  14    7    8 ar
  15    7   38 1
  16    8   39 1
  17    9   25 1
  18    9   10 1
  19   10   11 2
  20   11   12 1
  21   11   24 1
  22   12   13 1
  23   12   40 1
  24   13   23 ar
  25   13   14 ar
  26   14   15 ar
  27   14   41 1
  28   15   16 ar
  29   15   42 1
  30   16   17 ar
  31   16   43 1
  32   17   18 1
  33   17   23 ar
  34   18   19 1
  35   19   20 1
  36   19   21 1
  37   19   22 1
  38   23   44 1
  39   24   25 2
  40   25   26 1
  41   26   27 1
  42   26   45 1
  43   26   46 1
  44   27   28 1
  45   27   47 1
  46   27   48 1
  47   28   29 2
  48   28   30 am
  49   30   31 1
  50   30   32 1
  51   31   49 1
  52   31   50 1
  53   31   51 1
  54   32   52 1
  55   32   53 1
  56   32   54 1

#	End of record

