#	Name: ASD00100111
#	Creating user name:	WinNT
#	Creation time:	15. 06. 2019 18:30

#	Modifying user name:	WinNT
#	Modification time:	15. 06. 2019 18:30

#	Program:	/corina/corina34_cracker 3.40 0067  02.08.2006

@<TRIPOS>MOLECULE
ASD00100111
  35   37    0    0    0
SMALL
NO_CHARGES


@<TRIPOS>ATOM
   1 N1            -1.6285    -3.2943     0.3386 N.pl3   
   2 C2            -0.7637    -2.2279     0.1616 C.2     
   3 N3             0.5451    -2.2954     0.1825 N.2     
   4 C4             1.0583    -1.0562    -0.0267 C.2     
   5 C5             0.0191    -0.1959    -0.1820 C.2     
   6 N6            -1.1328    -0.9386    -0.0686 N.pl3   
   7 C7             2.4941    -0.7052    -0.0763 C.2     
   8 C8             3.5131    -1.5731     0.0801 C.2     
   9 C9             4.7702    -1.0083    -0.0083 C.2     
  10 C10            4.7845     0.3074    -0.2345 C.2     
  11 S11            3.1362     0.9082    -0.3561 S.3     
  12 C12           -2.5042    -0.4341    -0.1731 C.3     
  13 C13           -3.0283    -0.1151     1.2034 C.ar    
  14 C14           -2.7509     1.1140     1.7844 C.ar    
  15 C15           -3.2347     1.4046     3.0515 C.ar    
  16 C16           -3.9914     0.4700     3.7318 C.ar    
  17 C17           -4.2660    -0.7541     3.1510 C.ar    
  18 C18           -3.7900    -1.0438     1.8854 C.ar    
  19 O19           -2.0061     2.0315     1.1133 O.3     
  20 C20           -1.7602     3.2752     1.7727 C.3     
  21 H21           -1.2765    -4.1921     0.4425 H       
  22 H22           -2.5863    -3.1430     0.3628 H       
  23 H23            0.0847     0.8667    -0.3638 H       
  24 H24            3.3588    -2.6266     0.2606 H       
  25 H25            5.6751    -1.5882     0.0981 H       
  26 H26            5.6746     0.9113    -0.3317 H       
  27 H27           -2.5138     0.4687    -0.7837 H       
  28 H28           -3.1360    -1.1923    -0.6357 H       
  29 H29           -3.0199     2.3605     3.5059 H       
  30 H30           -4.3683     0.6957     4.7184 H       
  31 H31           -4.8571    -1.4836     3.6847 H       
  32 H32           -4.0100    -1.9990     1.4318 H       
  33 H33           -2.7091     3.7674     1.9855 H       
  34 H34           -1.2282     3.0924     2.7064 H       
  35 H35           -1.1556     3.9143     1.1292 H       
@<TRIPOS>BOND
   1    1    2 1
   2    1   21 1
   3    1   22 1
   4    2    3 2
   5    2    6 1
   6    3    4 1
   7    4    5 2
   8    4    7 1
   9    5    6 1
  10    5   23 1
  11    6   12 1
  12    7    8 2
  13    7   11 1
  14    8    9 1
  15    8   24 1
  16    9   10 2
  17    9   25 1
  18   10   11 1
  19   10   26 1
  20   12   13 1
  21   12   27 1
  22   12   28 1
  23   13   14 ar
  24   13   18 ar
  25   14   15 ar
  26   14   19 1
  27   15   16 ar
  28   15   29 1
  29   16   17 ar
  30   16   30 1
  31   17   18 ar
  32   17   31 1
  33   18   32 1
  34   19   20 1
  35   20   33 1
  36   20   34 1
  37   20   35 1

#	End of record

