#	Name: ASD01148916
#	Creating user name:	WinNT
#	Creation time:	15. 06. 2019 19:03

#	Modifying user name:	WinNT
#	Modification time:	15. 06. 2019 19:03

#	Program:	/corina/corina34_cracker 3.40 0067  02.08.2006

@<TRIPOS>MOLECULE
ASD01148916
  51   54    0    0    0
SMALL
NO_CHARGES


@<TRIPOS>ATOM
   1 N1             0.0069     1.7027    -0.0378 N.am    
   2 C2            -0.0154     0.2358    -0.1172 C.3     
   3 C3             0.8402    -0.2066    -1.3084 C.3     
   4 C4             2.2414     0.3945    -1.1762 C.3     
   5 C5             2.1464     1.9219    -1.1904 C.3     
   6 C6             1.3057     2.3884     0.0022 C.3     
   7 S7            -1.4051     2.5672    -0.0010 S.o2    
   8 O8            -1.0905     3.8698    -0.4737 O.2     
   9 O9            -2.3963     1.7422    -0.5978 O.2     
  10 C10           -1.8616     2.7487     1.6911 C.ar    
  11 C11           -1.4143     3.8398     2.4132 C.ar    
  12 C12           -1.7701     3.9846     3.7399 C.ar    
  13 C13           -2.5781     3.0335     4.3483 C.ar    
  14 C14           -3.0260     1.9392     3.6205 C.ar    
  15 C15           -2.6711     1.8026     2.2927 C.ar    
  16 N16           -2.9404     3.1774     5.6943 N.pl3   
  17 C17           -4.2096     3.4149     6.1622 C.2     
  18 C18           -4.1468     3.4899     7.5212 C.2     
  19 C19           -2.8058     3.2931     7.8911 C.2     
  20 C20           -2.0917     3.0990     6.7614 C.2     
  21 C21           -0.6083     2.8430     6.6901 C.3     
  22 C22           -5.4275     3.5635     5.3377 C.ar    
  23 C23           -6.5932     2.8697     5.6756 C.ar    
  24 C24           -7.7275     3.0143     4.9002 C.ar    
  25 C25           -7.7103     3.8430     3.7925 C.ar    
  26 C26           -6.5595     4.5318     3.4536 C.ar    
  27 C27           -5.4207     4.4011     4.2220 C.ar    
  28 F28           -6.6104     2.0600     6.7570 F       
  29 H29            0.3917    -0.1861     0.8017 H       
  30 H30           -1.0406    -0.1072    -0.2563 H       
  31 H31            0.9107    -1.2942    -1.3218 H       
  32 H32            0.3815     0.1401    -2.2344 H       
  33 H33            2.6899     0.0673    -0.2382 H       
  34 H34            2.8596     0.0614    -2.0098 H       
  35 H35            3.1467     2.3493    -1.1198 H       
  36 H36            1.6754     2.2486    -2.1176 H       
  37 H37            1.1521     3.4658    -0.0582 H       
  38 H38            1.8205     2.1421     0.9308 H       
  39 H39           -0.7858     4.5794     1.9394 H       
  40 H40           -1.4198     4.8367     4.3036 H       
  41 H41           -3.6546     1.1977     4.0910 H       
  42 H42           -3.0225     0.9538     1.7249 H       
  43 H43           -4.9753     3.6682     8.1908 H       
  44 H44           -2.4165     3.2925     8.8985 H       
  45 H45           -0.0791     3.7926     6.6106 H       
  46 H46           -0.2858     2.3216     7.5913 H       
  47 H47           -0.3870     2.2296     5.8166 H       
  48 H48           -8.6292     2.4791     5.1590 H       
  49 H49           -8.5994     3.9524     3.1893 H       
  50 H50           -6.5534     5.1767     2.5873 H       
  51 H51           -4.5247     4.9431     3.9579 H       
@<TRIPOS>BOND
   1    1    2 1
   2    1    6 1
   3    1    7 am
   4    2    3 1
   5    2   29 1
   6    2   30 1
   7    3    4 1
   8    3   31 1
   9    3   32 1
  10    4    5 1
  11    4   33 1
  12    4   34 1
  13    5    6 1
  14    5   35 1
  15    5   36 1
  16    6   37 1
  17    6   38 1
  18    7    8 2
  19    7    9 2
  20    7   10 1
  21   10   11 ar
  22   10   15 ar
  23   11   12 ar
  24   11   39 1
  25   12   13 ar
  26   12   40 1
  27   13   14 ar
  28   13   16 1
  29   14   15 ar
  30   14   41 1
  31   15   42 1
  32   16   17 1
  33   16   20 1
  34   17   18 2
  35   17   22 1
  36   18   19 1
  37   18   43 1
  38   19   20 2
  39   19   44 1
  40   20   21 1
  41   21   45 1
  42   21   46 1
  43   21   47 1
  44   22   23 ar
  45   22   27 ar
  46   23   24 ar
  47   23   28 1
  48   24   25 ar
  49   24   48 1
  50   25   26 ar
  51   25   49 1
  52   26   27 ar
  53   26   50 1
  54   27   51 1

#	End of record

