#	Name: ASD03730339
#	Creating user name:	WinNT
#	Creation time:	15. 06. 2019 20:44

#	Modifying user name:	WinNT
#	Modification time:	15. 06. 2019 20:44

#	Program:	/corina/corina34_cracker 3.40 0067  02.08.2006

@<TRIPOS>MOLECULE
ASD03730339
  62   68    0    0    0
SMALL
NO_CHARGES


@<TRIPOS>ATOM
   1 O1             8.9760     5.1941     4.2987 O.3     
   2 C2             9.7452     4.1116     4.8553 C.3     
   3 O3             8.7650     3.3146     5.5458 O.3     
   4 C4             7.5861     3.5396     4.8944 C.ar    
   5 C5             7.7160     4.6959     4.1286 C.ar    
   6 C6             6.3933     2.8391     4.8924 C.ar    
   7 C7             5.3167     3.2824     4.1301 C.ar    
   8 C8             5.4558     4.4434     3.3757 C.ar    
   9 C9             6.6459     5.1406     3.3707 C.ar    
  10 O10            4.0756     2.7384     3.9753 O.3     
  11 C11            4.1325     4.6744     2.6964 C.3     
  12 C12            3.1800     3.7391     3.4537 C.3     
  13 N13            3.5245     6.5321     1.5117 N.am    
  14 C14            3.6933     6.1079     2.7800 C.2     
  15 C15            4.1803     4.3578     1.2310 C.ar    
  16 C16            4.5019     3.2284     0.5119 C.ar    
  17 C17            4.4487     3.2486    -0.8704 C.ar    
  18 C18            4.0719     4.4057    -1.5277 C.ar    
  19 C19            3.7496     5.5398    -0.8119 C.ar    
  20 C20            3.8001     5.5285     0.5799 C.ar    
  21 O21            3.5234     6.7567     3.7906 O.2     
  22 C22            3.1006     7.8876     1.1524 C.3     
  23 C23            1.6026     7.9193     0.9910 C.ar    
  24 C24            0.9528     9.1262     0.7268 C.ar    
  25 C25           -0.4347     9.1468     0.5783 C.ar    
  26 C26           -1.1551     7.9756     0.6932 C.ar    
  27 C27           -0.5051     6.7830     0.9554 C.ar    
  28 C28            0.8711     6.7548     1.0982 C.ar    
  29 C29            1.7311    10.3774     0.6055 C.2     
  30 O30            2.4889    10.7105     1.4956 O.2     
  31 N31            1.6004    11.1486    -0.4921 N.am    
  32 C32            2.4293    12.3491    -0.6665 C.3     
  33 C33            3.1341    12.2686    -2.0242 C.3     
  34 C34            2.0910    12.0597    -3.1244 C.3     
  35 C35            1.3517    10.7413    -2.8851 C.3     
  36 C36            0.6306    10.8013    -1.5397 C.3     
  37 H37           10.2204     3.5328     4.0634 H       
  38 H38           10.4909     4.4913     5.5537 H       
  39 H39            6.2970     1.9421     5.4861 H       
  40 H40            6.7432     6.0359     2.7745 H       
  41 H41            2.4542     3.2926     2.7740 H       
  42 H42            2.6787     4.2696     4.2632 H       
  43 H43            4.7963     2.3261     1.0274 H       
  44 H44            4.7011     2.3632    -1.4349 H       
  45 H45            4.0301     4.4213    -2.6068 H       
  46 H46            3.4571     6.4397    -1.3325 H       
  47 H47            3.3960     8.5813     1.9395 H       
  48 H48            3.5733     8.1795     0.2146 H       
  49 H49           -0.9434    10.0773     0.3742 H       
  50 H50           -2.2289     7.9901     0.5784 H       
  51 H51           -1.0737     5.8691     1.0448 H       
  52 H52            1.3730     5.8197     1.2985 H       
  53 H53            1.7977    13.2369    -0.6347 H       
  54 H54            3.1729    12.3984     0.1289 H       
  55 H55            3.6762    13.1961    -2.2083 H       
  56 H56            3.8332    11.4323    -2.0222 H       
  57 H57            1.3778    12.8838    -3.1098 H       
  58 H58            2.5877    12.0267    -4.0942 H       
  59 H59            0.6252    10.5817    -3.6818 H       
  60 H60            2.0676     9.9194    -2.8749 H       
  61 H61            0.1878     9.8298    -1.3203 H       
  62 H62           -0.1506    11.5604    -1.5806 H       
@<TRIPOS>BOND
   1    1    2 1
   2    1    5 1
   3    2    3 1
   4    2   37 1
   5    2   38 1
   6    3    4 1
   7    4    5 ar
   8    4    6 ar
   9    5    9 ar
  10    6    7 ar
  11    6   39 1
  12    7    8 ar
  13    7   10 1
  14    8    9 ar
  15    8   11 1
  16    9   40 1
  17   10   12 1
  18   11   12 1
  19   11   14 1
  20   11   15 1
  21   12   41 1
  22   12   42 1
  23   13   14 am
  24   13   20 1
  25   13   22 1
  26   14   21 2
  27   15   16 ar
  28   15   20 ar
  29   16   17 ar
  30   16   43 1
  31   17   18 ar
  32   17   44 1
  33   18   19 ar
  34   18   45 1
  35   19   20 ar
  36   19   46 1
  37   22   23 1
  38   22   47 1
  39   22   48 1
  40   23   24 ar
  41   23   28 ar
  42   24   25 ar
  43   24   29 1
  44   25   26 ar
  45   25   49 1
  46   26   27 ar
  47   26   50 1
  48   27   28 ar
  49   27   51 1
  50   28   52 1
  51   29   30 2
  52   29   31 am
  53   31   32 1
  54   31   36 1
  55   32   33 1
  56   32   53 1
  57   32   54 1
  58   33   34 1
  59   33   55 1
  60   33   56 1
  61   34   35 1
  62   34   57 1
  63   34   58 1
  64   35   36 1
  65   35   59 1
  66   35   60 1
  67   36   61 1
  68   36   62 1

#	End of record

