#	Name: ASD00311030
#	Creating user name:	WinNT
#	Creation time:	15. 06. 2019 18:34

#	Modifying user name:	WinNT
#	Modification time:	15. 06. 2019 18:34

#	Program:	/corina/corina34_cracker 3.40 0067  02.08.2006

@<TRIPOS>MOLECULE
ASD00311030
  37   39    0    0    0
SMALL
NO_CHARGES


@<TRIPOS>ATOM
   1 C1            -0.0169     1.3917     0.0097 C.ar    
   2 C2             0.0021    -0.0041     0.0020 C.ar    
   3 C3             1.2202    -0.6857    -0.0133 C.ar    
   4 C4             2.4040     0.0190    -0.0209 C.ar    
   5 C5             2.3853     1.4152    -0.0132 C.ar    
   6 C6             1.1667     2.0968     0.0022 C.ar    
   7 C7             3.6373     3.6374    -0.0128 C.2     
   8 C8             3.6571     2.1726    -0.0208 C.2     
   9 C9             5.9944     6.5053    -0.0191 C.ar    
  10 C10            4.7767     5.8006    -0.0116 C.ar    
  11 C11            4.7965     4.3278    -0.0197 C.2     
  12 C12            5.9884     7.8684    -0.0113 C.ar    
  13 C13            4.7449     8.5309     0.0042 C.ar    
  14 C14            3.5512     7.7630     0.0111 C.ar    
  15 N15            3.6152     6.4315     0.0029 N.ar    
  16 O16            4.7187     1.5786    -0.0338 O.2     
  17 C17            2.3105     8.4281     0.0266 C.ar    
  18 C18            2.2739     9.7882     0.0347 C.ar    
  19 C19            3.4479    10.5392     0.0274 C.ar    
  20 C20            4.6670     9.9319     0.0133 C.ar    
  21 C21           -1.2695    -0.7614     0.0106 C.2     
  22 O22           -2.3301    -0.1680     0.0244 O.2     
  23 N23           -1.2513    -2.1090     0.0032 N.am    
  24 H24           -0.9594     1.9189     0.0170 H       
  25 H25            1.2346    -1.7656    -0.0189 H       
  26 H26            3.3464    -0.5084    -0.0324 H       
  27 H27            1.1520     3.1767     0.0081 H       
  28 H28            2.6948     4.1647    -0.0013 H       
  29 H29            6.9311     5.9679    -0.0265 H       
  30 H30            5.7390     3.8005    -0.0313 H       
  31 H31            6.9131     8.4262    -0.0164 H       
  32 H32            1.3914     7.8611     0.0317 H       
  33 H33            1.3197    10.2939     0.0466 H       
  34 H34            3.3902    11.6177     0.0337 H       
  35 H35            5.5692    10.5256     0.0082 H       
  36 H36           -0.4049    -2.5826    -0.0078 H       
  37 H37           -2.0847    -2.6053     0.0089 H       
@<TRIPOS>BOND
   1    1    2 ar
   2    1    6 ar
   3    1   24 1
   4    2    3 ar
   5    2   21 1
   6    3    4 ar
   7    3   25 1
   8    4    5 ar
   9    4   26 1
  10    5    6 ar
  11    5    8 1
  12    6   27 1
  13    7    8 1
  14    7   11 2
  15    7   28 1
  16    8   16 2
  17    9   10 ar
  18    9   12 ar
  19    9   29 1
  20   10   11 1
  21   10   15 ar
  22   11   30 1
  23   12   13 ar
  24   12   31 1
  25   13   14 ar
  26   13   20 ar
  27   14   15 ar
  28   14   17 ar
  29   17   18 ar
  30   17   32 1
  31   18   19 ar
  32   18   33 1
  33   19   20 ar
  34   19   34 1
  35   20   35 1
  36   21   22 2
  37   21   23 am
  38   23   36 1
  39   23   37 1

#	End of record

