#	Name: ASD01411241
#	Creating user name:	WinNT
#	Creation time:	15. 06. 2019 19:19

#	Modifying user name:	WinNT
#	Modification time:	15. 06. 2019 19:19

#	Program:	/corina/corina34_cracker 3.40 0067  02.08.2006

@<TRIPOS>MOLECULE
ASD01411241
  67   69    0    0    0
SMALL
NO_CHARGES


@<TRIPOS>ATOM
   1 C1            -0.5638     2.1713    -0.0019 C.ar    
   2 C2            -0.6376     0.9265    -0.6149 C.ar    
   3 C3            -1.8482     0.2722    -0.7223 C.ar    
   4 C4            -3.0023     0.8550    -0.2179 C.ar    
   5 C5            -2.9346     2.1119     0.4023 C.ar    
   6 C6            -1.7034     2.7632     0.5110 C.ar    
   7 O7             0.6340     2.8070     0.0990 O.3     
   8 C8             1.7859     2.0972    -0.3605 C.3     
   9 N9            -4.2251     0.1941    -0.3275 N.am    
  10 C10           -4.6860    -0.5452     0.7008 C.2     
  11 C11           -3.9396    -0.5635     2.0099 C.3     
  12 O12           -5.7014    -1.1959     0.5727 O.2     
  13 C13           -4.9017    -0.9335     3.1405 C.3     
  14 C14           -2.8131    -1.5964     1.9403 C.3     
  15 C15           -2.0553    -1.6149     3.2693 C.3     
  16 C16           -3.0174    -1.9849     4.3999 C.3     
  17 C17           -4.1440    -0.9520     4.4695 C.3     
  18 C18           -2.2596    -2.0034     5.7290 C.3     
  19 C19            2.0642     2.4202    -1.8453 C.3     
  20 C20           -5.0089     0.3033    -1.5603 C.3     
  21 C21           -4.5828     1.5574    -2.3262 C.3     
  22 C22           -4.7667    -0.9321    -2.4298 C.3     
  23 O23           -5.2758    -2.0899    -1.7646 O.3     
  24 C24           -5.0993    -3.3050    -2.4958 C.3     
  25 O25           -4.9261     2.7186    -1.5674 O.3     
  26 C26           -4.5692     3.9508    -2.1969 C.3     
  27 C27            3.0532     2.5882     0.3744 C.3     
  28 C28            3.9473     3.1498    -0.7533 C.3     
  29 O29            3.0301     3.4935    -1.8147 O.3     
  30 C30           -4.1548     2.7392     0.9406 C.2     
  31 O31           -5.2358     2.2115     0.7687 O.2     
  32 O32           -4.0717     3.8981     1.6233 O.3     
  33 H33            0.2572     0.4685    -1.0099 H       
  34 H34           -1.8975    -0.6951    -1.2001 H       
  35 H35           -1.6432     3.7306     0.9873 H       
  36 H36            1.6539     1.0245    -0.2191 H       
  37 H37           -3.5168     0.4229     2.2008 H       
  38 H38           -5.7043    -0.1976     3.1900 H       
  39 H39           -5.3245    -1.9199     2.9495 H       
  40 H40           -3.2358    -2.5828     1.7494 H       
  41 H41           -2.1276    -1.3328     1.1349 H       
  42 H42           -1.2527    -2.3508     3.2198 H       
  43 H43           -1.6325    -0.6285     3.4603 H       
  44 H44           -3.4402    -2.9713     4.2090 H       
  45 H45           -3.7212     0.0344     4.6604 H       
  46 H46           -4.8294    -1.2156     5.2749 H       
  47 H47           -1.8369    -1.0171     5.9199 H       
  48 H48           -2.9451    -2.2670     6.5344 H       
  49 H49           -1.4571    -2.7393     5.6794 H       
  50 H50            2.4805     1.5493    -2.3515 H       
  51 H51            1.1497     2.7468    -2.3404 H       
  52 H52           -6.0682     0.3713    -1.3126 H       
  53 H53           -3.5052     1.5352    -2.4889 H       
  54 H54           -5.0949     1.5873    -3.2879 H       
  55 H55           -5.2757    -0.8091    -3.3858 H       
  56 H56           -3.6969    -1.0522    -2.6005 H       
  57 H57           -4.0364    -3.4743    -2.6679 H       
  58 H58           -5.5117    -4.1363    -1.9240 H       
  59 H59           -5.6151    -3.2311    -3.4531 H       
  60 H60           -4.8630     4.7837    -1.5581 H       
  61 H61           -3.4913     3.9782    -2.3569 H       
  62 H62           -5.0810     4.0304    -3.1560 H       
  63 H63            2.8011     3.3724     1.0883 H       
  64 H64            3.5491     1.7578     0.8771 H       
  65 H65            4.4793     4.0368    -0.4095 H       
  66 H66            4.6524     2.3908    -1.0920 H       
  67 H67           -4.8990     4.2713     1.9571 H       
@<TRIPOS>BOND
   1    1    2 ar
   2    1    7 1
   3    1    6 ar
   4    2    3 ar
   5    2   33 1
   6    3    4 ar
   7    3   34 1
   8    4    5 ar
   9    4    9 1
  10    5    6 ar
  11    5   30 1
  12    6   35 1
  13    7    8 1
  14    8   27 1
  15    8   19 1
  16    8   36 1
  17    9   10 am
  18    9   20 1
  19   10   11 1
  20   10   12 2
  21   11   13 1
  22   11   14 1
  23   11   37 1
  24   13   17 1
  25   13   38 1
  26   13   39 1
  27   14   15 1
  28   14   40 1
  29   14   41 1
  30   15   16 1
  31   15   42 1
  32   15   43 1
  33   16   17 1
  34   16   18 1
  35   16   44 1
  36   17   45 1
  37   17   46 1
  38   18   47 1
  39   18   48 1
  40   18   49 1
  41   19   29 1
  42   19   50 1
  43   19   51 1
  44   20   21 1
  45   20   22 1
  46   20   52 1
  47   21   25 1
  48   21   53 1
  49   21   54 1
  50   22   23 1
  51   22   55 1
  52   22   56 1
  53   23   24 1
  54   24   57 1
  55   24   58 1
  56   24   59 1
  57   25   26 1
  58   26   60 1
  59   26   61 1
  60   26   62 1
  61   27   28 1
  62   27   63 1
  63   27   64 1
  64   28   29 1
  65   28   65 1
  66   28   66 1
  67   30   31 2
  68   30   32 1
  69   32   67 1

#	End of record

