#	Name: ASD06572002
#	Creating user name:	WinNT
#	Creation time:	15. 06. 2019 21:06

#	Modifying user name:	WinNT
#	Modification time:	15. 06. 2019 21:06

#	Program:	/corina/corina34_cracker 3.40 0067  02.08.2006

@<TRIPOS>MOLECULE
ASD06572002
  56   59    0    0    0
SMALL
NO_CHARGES


@<TRIPOS>ATOM
   1 C1             1.5840     0.1675     1.1335 C.3     
   2 C2             0.6359    -0.8573     0.5033 C.3     
   3 C3            -0.8343    -0.5439     0.3812 C.3     
   4 C4            -1.4825    -1.8166    -0.1834 C.3     
   5 C5            -1.2369    -3.0141     0.7234 C.3     
   6 C6             0.2757    -3.3080     0.8176 C.3     
   7 C7             0.9709    -2.0905     1.3628 C.3     
   8 C8             2.4676    -2.0397     1.3957 C.ar    
   9 C9             3.4335    -3.0169     1.5115 C.ar    
  10 C10            4.7649    -2.6102     1.5308 C.ar    
  11 C11            5.1244    -1.2798     1.4402 C.ar    
  12 C12            4.1566    -0.2786     1.3135 C.ar    
  13 C13            2.8342    -0.6818     1.2833 C.ar    
  14 C14           -2.9252    -1.6666    -0.6120 C.3     
  15 C15           -3.1004    -0.4664    -1.5495 C.3     
  16 C16           -2.4776     0.7947    -0.9604 C.3     
  17 C17           -0.9950     0.5638    -0.6834 C.3     
  18 O18            6.4395    -0.9360     1.4771 O.3     
  19 O19            4.5024     1.0341     1.2284 O.3     
  20 C20           -1.4526    -0.0419     1.6761 C.3     
  21 C21            3.1029    -4.4839     1.6214 C.3     
  22 C22            0.5662    -1.9258     2.8282 C.3     
  23 C23           -3.3175    -2.9147    -1.4424 C.3     
  24 C24           -3.9024    -1.5769     0.5541 C.3     
  25 H25           -0.9125    -2.0424    -1.1206 H       
  26 H26            1.0126    -1.0472    -0.5342 H       
  27 H27            1.7704     0.9922     0.4421 H       
  28 H28            1.2365     0.5332     2.0896 H       
  29 H29           -1.6430    -2.8380     1.7121 H       
  30 H30           -1.7181    -3.9030     0.3099 H       
  31 H31            0.4254    -4.1578     1.4883 H       
  32 H32            0.6616    -3.5494    -0.1736 H       
  33 H33            5.5367    -3.3611     1.6195 H       
  34 H34           -2.6318    -0.6927    -2.5090 H       
  35 H35           -4.1688    -0.3003    -1.7119 H       
  36 H36           -2.5723     1.6069    -1.6955 H       
  37 H37           -3.0059     1.0990    -0.0634 H       
  38 H38           -0.5402     1.4779    -0.3066 H       
  39 H39           -0.4924     0.2463    -1.5952 H       
  40 H40            6.8632    -0.9082     0.6083 H       
  41 H41            4.6465     1.3450     0.3242 H       
  42 H42           -0.8225     0.7398     2.1004 H       
  43 H43           -2.4445     0.3614     1.4726 H       
  44 H44           -1.5339    -0.8670     2.3837 H       
  45 H45            3.0600    -4.9224     0.6244 H       
  46 H46            3.8726    -4.9869     2.2067 H       
  47 H47            2.1371    -4.6028     2.1126 H       
  48 H48            1.0206    -2.7189     3.4220 H       
  49 H49            0.9083    -0.9573     3.1930 H       
  50 H50           -0.5189    -1.9838     2.9142 H       
  51 H51           -3.2000    -3.8094    -0.8310 H       
  52 H52           -4.3559    -2.8268    -1.7620 H       
  53 H53           -2.6725    -2.9858    -2.3182 H       
  54 H54           -3.7311    -0.6498     1.1012 H       
  55 H55           -4.9239    -1.5910     0.1741 H       
  56 H56           -3.7511    -2.4257     1.2210 H       
@<TRIPOS>BOND
   1    1    2 1
   2    1   13 1
   3    1   27 1
   4    1   28 1
   5    2    3 1
   6    2   26 1
   7    2    7 1
   8    3    4 1
   9    3   17 1
  10    3   20 1
  11    4    5 1
  12    4   14 1
  13    4   25 1
  14    5    6 1
  15    5   29 1
  16    5   30 1
  17    6    7 1
  18    6   31 1
  19    6   32 1
  20    7    8 1
  21    7   22 1
  22    8    9 ar
  23    8   13 ar
  24    9   10 ar
  25    9   21 1
  26   10   11 ar
  27   10   33 1
  28   11   12 ar
  29   11   18 1
  30   12   13 ar
  31   12   19 1
  32   14   15 1
  33   14   23 1
  34   14   24 1
  35   15   16 1
  36   15   34 1
  37   15   35 1
  38   16   17 1
  39   16   36 1
  40   16   37 1
  41   17   38 1
  42   17   39 1
  43   18   40 1
  44   19   41 1
  45   20   42 1
  46   20   43 1
  47   20   44 1
  48   21   45 1
  49   21   46 1
  50   21   47 1
  51   22   48 1
  52   22   49 1
  53   22   50 1
  54   23   51 1
  55   23   52 1
  56   23   53 1
  57   24   54 1
  58   24   55 1
  59   24   56 1

#	End of record

