#	Name: ASD01901354
#	Creating user name:	WinNT
#	Creation time:	15. 06. 2019 19:53

#	Modifying user name:	WinNT
#	Modification time:	15. 06. 2019 19:53

#	Program:	/corina/corina34_cracker 3.40 0067  02.08.2006

@<TRIPOS>MOLECULE
ASD01901354
  37   40    0    0    0
SMALL
NO_CHARGES


@<TRIPOS>ATOM
   1 C1            -0.0169     1.3944     0.0097 C.ar    
   2 C2             1.1817     2.0802     0.0019 C.ar    
   3 N3             2.3314     1.4333    -0.0129 N.ar    
   4 C4             2.3924     0.1152    -0.0206 C.ar    
   5 C5             1.2430    -0.6474    -0.0138 C.ar    
   6 C6             0.0021    -0.0041     0.0020 C.ar    
   7 C7            -1.2602    -0.7833     0.0104 C.2     
   8 N8            -3.1576    -1.5799    -1.1472 N.2     
   9 C9            -2.0436    -0.8900    -1.1597 C.2     
  10 C10           -1.6786    -1.4132     1.1496 C.2     
  11 N11           -2.8427    -2.1212     1.1227 N.pl3   
  12 C12           -3.5783    -2.1966    -0.0323 C.2     
  13 C13           -3.5101    -2.8438     2.0750 C.2     
  14 C14           -4.6221    -3.3379     1.4908 C.2     
  15 N15           -4.6495    -2.9360     0.2165 N.2     
  16 C16           -5.6603    -4.1985     2.1636 C.3     
  17 O17           -5.2884    -4.4159     3.5261 O.3     
  18 C18           -6.1243    -5.1783     4.2799 C.ar    
  19 C19           -7.2751    -5.7105     3.7174 C.ar    
  20 C20           -5.8242    -5.4295     5.6106 C.ar    
  21 C21           -6.6743    -6.2048     6.3753 C.ar    
  22 C22           -7.8251    -6.7315     5.8138 C.ar    
  23 C23           -8.1234    -6.4855     4.4843 C.ar    
  24 Cl24          -1.5243     2.2551     0.0359 Cl      
  25 F25           -8.6551    -7.4903     6.5625 F       
  26 H26            1.1779     3.1602     0.0078 H       
  27 H27            3.3555    -0.3733    -0.0328 H       
  28 H28            1.3010    -1.7258    -0.0205 H       
  29 H29           -1.7237    -0.4009    -2.0679 H       
  30 H30           -1.0954    -1.3509     2.0564 H       
  31 H31           -3.2043    -2.9911     3.1003 H       
  32 H32           -6.6274    -3.6971     2.1265 H       
  33 H33           -5.7276    -5.1565     1.6481 H       
  34 H34           -7.5080    -5.5188     2.6804 H       
  35 H35           -4.9262    -5.0194     6.0486 H       
  36 H36           -6.4409    -6.4006     7.4114 H       
  37 H37           -9.0195    -6.9000     4.0466 H       
@<TRIPOS>BOND
   1    1    6 ar
   2    1    2 ar
   3    1   24 1
   4    2    3 ar
   5    2   26 1
   6    3    4 ar
   7    4    5 ar
   8    4   27 1
   9    5    6 ar
  10    5   28 1
  11    6    7 1
  12    7   10 2
  13    7    9 1
  14    8    9 2
  15    8   12 1
  16    9   29 1
  17   10   11 1
  18   10   30 1
  19   11   13 1
  20   11   12 1
  21   12   15 2
  22   13   14 2
  23   13   31 1
  24   14   15 1
  25   14   16 1
  26   16   17 1
  27   16   32 1
  28   16   33 1
  29   17   18 1
  30   18   20 ar
  31   18   19 ar
  32   19   23 ar
  33   19   34 1
  34   20   21 ar
  35   20   35 1
  36   21   22 ar
  37   21   36 1
  38   22   23 ar
  39   22   25 1
  40   23   37 1

#	End of record

