#	Name: ASD01910941
#	Creating user name:	WinNT
#	Creation time:	15. 06. 2019 19:56

#	Modifying user name:	WinNT
#	Modification time:	15. 06. 2019 19:56

#	Program:	/corina/corina34_cracker 3.40 0067  02.08.2006

@<TRIPOS>MOLECULE
ASD01910941
  55   58    0    0    0
SMALL
NO_CHARGES


@<TRIPOS>ATOM
   1 N1            -0.3142     0.7097    -0.4459 N.am    
   2 C2            -0.2576    -0.7588    -0.4586 C.3     
   3 C3            -1.0501    -1.2902     0.7421 C.3     
   4 N4            -2.3640    -0.6322     0.7660 N.am    
   5 C5            -2.4206     0.8363     0.7787 C.3     
   6 C6            -1.6280     1.3676    -0.4164 C.3     
   7 C7            -3.4968    -1.3624     0.7755 C.2     
   8 C8            -4.8076    -0.6917     0.9113 C.ar    
   9 C9            -5.8821    -1.0871     0.1115 C.ar    
  10 C10           -7.1075    -0.4622     0.2364 C.ar    
  11 C11           -7.2801     0.5566     1.1512 C.ar    
  12 C12           -6.2130     0.9634     1.9584 C.ar    
  13 C13           -4.9749     0.3320     1.8413 C.ar    
  14 C14           -6.3928     2.0210     2.9070 C.1     
  15 O15           -3.4409    -2.5722     0.6726 O.2     
  16 C16           -6.5402     2.8880     3.6847 C.1     
  17 C17           -6.7199     3.9455     4.6333 C.ar    
  18 C18           -5.6609     4.3600     5.4448 C.ar    
  19 N19           -5.8271     5.3325     6.3169 N.ar    
  20 C20           -6.9842     5.9495     6.4608 C.ar    
  21 C21           -8.0821     5.5980     5.6955 C.ar    
  22 C22           -7.9598     4.5867     4.7598 C.ar    
  23 C23            0.8186     1.4399    -0.4554 C.2     
  24 C24            2.1298     0.7684    -0.3736 C.ar    
  25 O25            0.7600     2.6520    -0.5315 O.2     
  26 C26            3.0283     1.0992     0.6498 C.ar    
  27 C27            4.2581     0.4612     0.7173 C.ar    
  28 C28            4.5940    -0.4951    -0.2200 C.ar    
  29 C29            3.7087    -0.8246    -1.2334 C.ar    
  30 C30            2.4805    -0.2050    -1.3123 C.ar    
  31 O31            2.6970     2.0394     1.5698 O.3     
  32 C32            3.6632     2.3241     2.5834 C.3     
  33 H33           -0.6980    -1.1339    -1.3825 H       
  34 H34            0.7797    -1.0856    -0.3859 H       
  35 H35           -1.1824    -2.3678     0.6452 H       
  36 H36           -0.5122    -1.0666     1.6634 H       
  37 H37           -3.4579     1.1631     0.7059 H       
  38 H38           -1.9802     1.2114     1.7026 H       
  39 H39           -1.4965     2.4452    -0.3182 H       
  40 H40           -2.1637     1.1445    -1.3390 H       
  41 H41           -5.7544    -1.8834    -0.6068 H       
  42 H42           -7.9346    -0.7721    -0.3852 H       
  43 H43           -8.2409     1.0410     1.2437 H       
  44 H44           -4.1470     0.6417     2.4620 H       
  45 H45           -4.6982     3.8785     5.3564 H       
  46 H46           -7.0762     6.7422     7.1885 H       
  47 H47           -9.0236     6.1112     5.8242 H       
  48 H48           -8.8006     4.2923     4.1492 H       
  49 H49            4.9539     0.7132     1.5040 H       
  50 H50            5.5528    -0.9890    -0.1631 H       
  51 H51            3.9806    -1.5738    -1.9623 H       
  52 H52            1.7935    -0.4650    -2.1041 H       
  53 H53            3.2732     3.0915     3.2519 H       
  54 H54            3.8707     1.4178     3.1524 H       
  55 H55            4.5829     2.6800     2.1190 H       
@<TRIPOS>BOND
   1    1    2 1
   2    1   23 am
   3    1    6 1
   4    2    3 1
   5    2   33 1
   6    2   34 1
   7    3    4 1
   8    3   35 1
   9    3   36 1
  10    4    5 1
  11    4    7 am
  12    5    6 1
  13    5   37 1
  14    5   38 1
  15    6   39 1
  16    6   40 1
  17    7    8 1
  18    7   15 2
  19    8    9 ar
  20    8   13 ar
  21    9   10 ar
  22    9   41 1
  23   10   11 ar
  24   10   42 1
  25   11   12 ar
  26   11   43 1
  27   12   13 ar
  28   12   14 1
  29   13   44 1
  30   14   16 3
  31   16   17 1
  32   17   18 ar
  33   17   22 ar
  34   18   19 ar
  35   18   45 1
  36   19   20 ar
  37   20   21 ar
  38   20   46 1
  39   21   22 ar
  40   21   47 1
  41   22   48 1
  42   23   25 2
  43   23   24 1
  44   24   26 ar
  45   24   30 ar
  46   26   27 ar
  47   26   31 1
  48   27   28 ar
  49   27   49 1
  50   28   29 ar
  51   28   50 1
  52   29   30 ar
  53   29   51 1
  54   30   52 1
  55   31   32 1
  56   32   53 1
  57   32   54 1
  58   32   55 1

#	End of record

