#	Name: ASD03330534
#	Creating user name:	WinNT
#	Creation time:	15. 06. 2019 20:37

#	Modifying user name:	WinNT
#	Modification time:	15. 06. 2019 20:37

#	Program:	/corina/corina34_cracker 3.40 0067  02.08.2006

@<TRIPOS>MOLECULE
ASD03330534
  69   71    0    0    0
SMALL
NO_CHARGES


@<TRIPOS>ATOM
   1 C1            -0.0609     2.0041     1.7853 C.2     
   2 N2            -0.1496     0.7125     2.2011 N.pl3   
   3 C3             1.2155     2.1985     1.3523 C.2     
   4 N4             1.8804     1.0303     1.4909 N.2     
   5 C5             1.0672     0.1313     1.9942 C.2     
   6 C6             1.4122    -1.2765     2.2876 C.ar    
   7 C7             1.7719     3.4573     0.8259 C.2     
   8 O8             1.0696     4.4473     0.7488 O.2     
   9 C9             3.6122     4.7632    -0.0933 C.3     
  10 N10            3.0590     3.5117     0.4300 N.am    
  11 C11            3.3010     4.8731    -1.5873 C.3     
  12 C12            1.7902     4.7636    -1.8029 C.3     
  13 C13            3.7948     6.2223    -2.1132 C.3     
  14 C14            4.0068     3.7432    -2.3397 C.3     
  15 C15            5.1052     4.7769     0.1112 C.2     
  16 N16            5.7924     5.9291    -0.0171 N.am    
  17 O17            5.6883     3.7509     0.3911 O.2     
  18 C18            7.2521     5.9293     0.1085 C.3     
  19 C19            1.0548    -1.8452     3.5107 C.ar    
  20 C20            2.0924    -2.0446     1.3389 C.ar    
  21 C21            2.4111    -3.3599     1.6200 C.ar    
  22 C22            2.0572    -3.9148     2.8373 C.ar    
  23 C23            1.3786    -3.1587     3.7789 C.ar    
  24 C24           -1.3422     0.0853     2.7771 C.3     
  25 C25           -2.5582     0.4279     1.9106 C.3     
  26 C26           -3.1669     1.7472     2.3747 C.3     
  27 N27           -2.1327     2.6630     2.8601 N.3     
  28 C28           -1.1826     3.0100     1.7928 C.3     
  29 C29           -2.7310     3.8702     3.4453 C.3     
  30 C30           -1.6480     4.6812     4.1597 C.3     
  31 C31           -2.2445     5.9978     4.6614 C.3     
  32 C32           -1.1104     3.8797     5.3468 C.3     
  33 F33            2.4372    -1.5032     0.1501 F       
  34 Cl34           2.4601    -5.5676     3.1835 Cl      
  35 H35            3.1656     5.6063     0.4338 H       
  36 H36            3.6192     2.7221     0.4915 H       
  37 H37            1.2874     5.5686    -1.2669 H       
  38 H38            1.5685     4.8419    -2.8673 H       
  39 H39            1.4384     3.8024    -1.4282 H       
  40 H40            4.8393     6.3609    -1.8339 H       
  41 H41            3.7030     6.2447    -3.1991 H       
  42 H42            3.1939     7.0226    -1.6813 H       
  43 H43            3.6550     2.7820    -1.9650 H       
  44 H44            3.7851     3.8215    -3.4040 H       
  45 H45            5.0831     3.8212    -2.1860 H       
  46 H46            5.3206     6.7583    -0.1926 H       
  47 H47            7.6280     6.9438    -0.0242 H       
  48 H48            7.5318     5.5645     1.0968 H       
  49 H49            7.6824     5.2798    -0.6538 H       
  50 H50            0.5257    -1.2576     4.2463 H       
  51 H51            2.9368    -3.9555     0.8883 H       
  52 H52            1.1057    -3.5978     4.7271 H       
  53 H53           -1.2078    -0.9960     2.8050 H       
  54 H54           -1.4984     0.4602     3.7886 H       
  55 H55           -2.2476     0.5184     0.8697 H       
  56 H56           -3.3010    -0.3649     1.9987 H       
  57 H57           -3.6929     2.2114     1.5405 H       
  58 H58           -3.8763     1.5505     3.1786 H       
  59 H59           -0.7780     4.0057     1.9746 H       
  60 H60           -1.6936     2.9932     0.8302 H       
  61 H61           -3.1759     4.4750     2.6550 H       
  62 H62           -3.5017     3.5835     4.1608 H       
  63 H63           -0.8346     4.8921     3.4654 H       
  64 H64           -3.0579     5.7870     5.3557 H       
  65 H65           -1.4729     6.5756     5.1704 H       
  66 H66           -2.6275     6.5689     3.8157 H       
  67 H67           -0.6855     2.9417     4.9894 H       
  68 H68           -0.3389     4.4575     5.8558 H       
  69 H69           -1.9238     3.6689     6.0411 H       
@<TRIPOS>BOND
   1    1    2 1
   2    1    3 2
   3    1   28 1
   4    2   24 1
   5    2    5 1
   6    3    4 1
   7    3    7 1
   8    4    5 2
   9    5    6 1
  10    6   19 ar
  11    6   20 ar
  12    7    8 2
  13    7   10 am
  14    9   10 1
  15    9   11 1
  16    9   15 1
  17    9   35 1
  18   10   36 1
  19   11   12 1
  20   11   13 1
  21   11   14 1
  22   12   37 1
  23   12   38 1
  24   12   39 1
  25   13   40 1
  26   13   41 1
  27   13   42 1
  28   14   43 1
  29   14   44 1
  30   14   45 1
  31   15   16 am
  32   15   17 2
  33   16   18 1
  34   16   46 1
  35   18   47 1
  36   18   48 1
  37   18   49 1
  38   19   23 ar
  39   19   50 1
  40   20   21 ar
  41   20   33 1
  42   21   22 ar
  43   21   51 1
  44   22   23 ar
  45   22   34 1
  46   23   52 1
  47   24   25 1
  48   24   53 1
  49   24   54 1
  50   25   26 1
  51   25   55 1
  52   25   56 1
  53   26   27 1
  54   26   57 1
  55   26   58 1
  56   27   28 1
  57   27   29 1
  58   28   59 1
  59   28   60 1
  60   29   30 1
  61   29   61 1
  62   29   62 1
  63   30   31 1
  64   30   32 1
  65   30   63 1
  66   31   64 1
  67   31   65 1
  68   31   66 1
  69   32   67 1
  70   32   68 1
  71   32   69 1

#	End of record

