#	Name: ASD01882287
#	Creating user name:	WinNT
#	Creation time:	15. 06. 2019 19:44

#	Modifying user name:	WinNT
#	Modification time:	15. 06. 2019 19:44

#	Program:	/corina/corina34_cracker 3.40 0067  02.08.2006

@<TRIPOS>MOLECULE
ASD01882287
  59   63    0    0    0
SMALL
NO_CHARGES


@<TRIPOS>ATOM
   1 C1             0.5162    -0.3220     1.8614 C.3     
   2 N2            -0.4276     0.7752     2.1611 N.am    
   3 C3             0.1988     2.0571     2.5514 C.3     
   4 C4             1.1587     2.4647     1.4260 C.3     
   5 N5             2.1289     1.3914     1.1844 N.3     
   6 C6             1.9271     0.2463     2.0808 C.3     
   7 C7             3.4334     1.8693     1.2715 C.ar    
   8 C8             4.4070     1.3628     0.4166 C.ar    
   9 C9             5.7027     1.8415     0.5075 C.ar    
  10 C10            4.9553     3.2858     2.2803 C.ar    
  11 N11            3.7275     2.8025     2.1628 N.ar    
  12 N12            5.5216     4.2373     3.1189 N.am    
  13 C13            5.9801     2.8166     1.4569 C.ar    
  14 N14            7.1377     3.5058     1.8162 N.am    
  15 C15            6.8283     4.3516     2.8175 C.2     
  16 C16           -1.7640     0.6190     2.0837 C.2     
  17 C17           -2.3358    -0.6906     1.6860 C.2     
  18 O18           -2.5004     1.5509     2.3397 O.2     
  19 C19           -3.7144    -1.0180     1.5575 C.2     
  20 C20           -3.7065    -2.3165     1.1768 C.2     
  21 O21           -2.4207    -2.6863     1.0986 O.3     
  22 N22           -1.6735    -1.7775     1.3768 N.2     
  23 C23            4.8153     4.9886     4.1596 C.3     
  24 C24            8.4609     3.3383     1.2102 C.3     
  25 C25            8.6098     4.3063     0.0348 C.3     
  26 C26            8.4564     5.7439     0.5355 C.3     
  27 C27            9.9918     4.1314    -0.5980 C.3     
  28 C28            7.5302     4.0117    -1.0085 C.3     
  29 C29            1.0247     1.8035     3.8205 C.3     
  30 C30            2.0578     0.7111     3.5336 C.3     
  31 O31            7.6118     5.1021     3.3685 O.2     
  32 H32            0.3416    -1.1600     2.5362 H       
  33 H33            0.3994    -0.6433     0.8265 H       
  34 H34           -0.5572     2.8253     2.7141 H       
  35 H35            0.5902     2.6507     0.5148 H       
  36 H36            1.6879     3.3734     1.7129 H       
  37 H37            2.6691    -0.5225     1.8654 H       
  38 H38            4.1548     0.6043    -0.3096 H       
  39 H39            6.4784     1.4660    -0.1433 H       
  40 H40           -4.5686    -0.3789     1.7252 H       
  41 H41           -4.5688    -2.9348     0.9756 H       
  42 H42            4.8642     4.4400     5.1002 H       
  43 H43            5.2834     5.9651     4.2838 H       
  44 H44            3.7730     5.1196     3.8691 H       
  45 H45            9.2301     3.5482     1.9535 H       
  46 H46            8.5702     2.3141     0.8535 H       
  47 H47            9.2256     5.9538     1.2787 H       
  48 H48            8.5625     6.4336    -0.3019 H       
  49 H49            7.4719     5.8685     0.9863 H       
  50 H50           10.1011     3.1072    -0.9547 H       
  51 H51           10.0979     4.8210    -1.4354 H       
  52 H52           10.7610     4.3413     0.1452 H       
  53 H53            6.5456     4.1363    -0.5576 H       
  54 H54            7.6363     4.7013    -1.8459 H       
  55 H55            7.6395     2.9875    -1.3652 H       
  56 H56            1.5357     2.7210     4.1124 H       
  57 H57            0.3655     1.4796     4.6259 H       
  58 H58            1.8875    -0.1335     4.2013 H       
  59 H59            3.0598     1.1070     3.6990 H       
@<TRIPOS>BOND
   1    1    2 1
   2    1    6 1
   3    1   32 1
   4    1   33 1
   5    2    3 1
   6    2   16 am
   7    3    4 1
   8    3   29 1
   9    3   34 1
  10    4    5 1
  11    4   35 1
  12    4   36 1
  13    5    6 1
  14    5    7 1
  15    6   30 1
  16    6   37 1
  17    7    8 ar
  18    7   11 ar
  19    8    9 ar
  20    8   38 1
  21    9   13 ar
  22    9   39 1
  23   10   11 ar
  24   10   12 1
  25   10   13 ar
  26   12   15 am
  27   12   23 1
  28   13   14 1
  29   14   15 am
  30   14   24 1
  31   15   31 2
  32   16   17 1
  33   16   18 2
  34   17   19 1
  35   17   22 2
  36   19   20 2
  37   19   40 1
  38   20   21 1
  39   20   41 1
  40   21   22 1
  41   23   42 1
  42   23   43 1
  43   23   44 1
  44   24   25 1
  45   24   45 1
  46   24   46 1
  47   25   26 1
  48   25   27 1
  49   25   28 1
  50   26   47 1
  51   26   48 1
  52   26   49 1
  53   27   50 1
  54   27   51 1
  55   27   52 1
  56   28   53 1
  57   28   54 1
  58   28   55 1
  59   29   30 1
  60   29   56 1
  61   29   57 1
  62   30   58 1
  63   30   59 1

#	End of record

