#	Name: ASD01915364
#	Creating user name:	WinNT
#	Creation time:	15. 06. 2019 20:05

#	Modifying user name:	WinNT
#	Modification time:	15. 06. 2019 20:05

#	Program:	/corina/corina34_cracker 3.40 0067  02.08.2006

@<TRIPOS>MOLECULE
ASD01915364
  55   58    0    0    0
SMALL
NO_CHARGES


@<TRIPOS>ATOM
   1 C1            -0.1217     1.2088    -0.6434 C.ar    
   2 C2             0.0024    -0.0039     0.0538 C.ar    
   3 C3            -1.0866    -0.5259     0.7376 C.ar    
   4 C4            -2.2920     0.1411     0.7361 C.ar    
   5 C5            -2.4276     1.3501     0.0456 C.ar    
   6 C6            -1.3391     1.8868    -0.6400 C.ar    
   7 C7            -3.7219     2.0603     0.0476 C.2     
   8 O8            -3.7500     3.2726     0.1353 O.2     
   9 N9            -4.8724     1.3647    -0.0478 N.am    
  10 C10           -6.1741     2.0382     0.0751 C.3     
  11 C11           -7.0429     1.6407    -1.1230 C.3     
  12 N12           -7.1074     0.1759    -1.2125 N.3     
  13 C13           -5.7800    -0.4017    -1.4618 C.3     
  14 C14           -4.8595    -0.0870    -0.2837 C.3     
  15 C15           -8.0156    -0.2242    -2.1858 C.ar    
  16 C16            1.0001     1.7495    -1.3504 C.1     
  17 C17            1.9198     2.1928    -1.9299 C.1     
  18 C18            3.0416     2.7335    -2.6368 C.ar    
  19 N19           -8.6785     0.6882    -2.8793 N.ar    
  20 C20           -9.5492     0.3508    -3.8118 C.ar    
  21 C21           -9.8012    -0.9756    -4.0985 C.ar    
  22 C22           -9.1266    -1.9640    -3.3936 C.ar    
  23 C23           -8.2156    -1.5800    -2.4265 C.ar    
  24 O24            1.1864    -0.6652     0.0585 O.3     
  25 C25            1.2410    -1.8927     0.7881 C.3     
  26 C26            2.9097     3.9406    -3.3281 C.ar    
  27 C27            4.0030     4.4491    -4.0058 C.ar    
  28 C28            5.1943     3.7369    -3.9726 C.ar    
  29 C29            5.2561     2.5479    -3.2688 C.ar    
  30 N30            4.2033     2.0859    -2.6263 N.ar    
  31 C31           -9.3774    -3.4221    -3.6801 C.3     
  32 H32           -0.9888    -1.4588     1.2728 H       
  33 H33           -3.1355    -0.2711     1.2698 H       
  34 H34           -1.4413     2.8200    -1.1738 H       
  35 H35           -6.6611     1.7278     0.9995 H       
  36 H36           -6.0285     3.1184     0.0795 H       
  37 H37           -8.0480     2.0418    -0.9925 H       
  38 H38           -6.6067     2.0421    -2.0377 H       
  39 H39           -5.8691    -1.4820    -1.5770 H       
  40 H40           -5.3613     0.0281    -2.3718 H       
  41 H41           -3.8453    -0.4131    -0.5141 H       
  42 H42           -5.2183    -0.6001     0.6086 H       
  43 H43          -10.0717     1.1226    -4.3576 H       
  44 H44          -10.5161    -1.2422    -4.8629 H       
  45 H45           -7.6732    -2.3223    -1.8599 H       
  46 H46            1.0071    -1.7033     1.8358 H       
  47 H47            0.5157    -2.5936     0.3749 H       
  48 H48            2.2418    -2.3174     0.7103 H       
  49 H49            1.9677     4.4687    -3.3334 H       
  50 H50            3.9314     5.3797    -4.5492 H       
  51 H51            6.0652     4.1081    -4.4922 H       
  52 H52            6.1821     1.9926    -3.2419 H       
  53 H53           -8.6890    -3.7642    -4.4528 H       
  54 H54           -9.2212    -4.0031    -2.7712 H       
  55 H55          -10.4035    -3.5536    -4.0236 H       
@<TRIPOS>BOND
   1    1    2 ar
   2    1   16 1
   3    1    6 ar
   4    2    3 ar
   5    2   24 1
   6    3    4 ar
   7    3   32 1
   8    4    5 ar
   9    4   33 1
  10    5    6 ar
  11    5    7 1
  12    6   34 1
  13    7    8 2
  14    7    9 am
  15    9   10 1
  16    9   14 1
  17   10   11 1
  18   10   35 1
  19   10   36 1
  20   11   12 1
  21   11   37 1
  22   11   38 1
  23   12   13 1
  24   12   15 1
  25   13   14 1
  26   13   39 1
  27   13   40 1
  28   14   41 1
  29   14   42 1
  30   15   19 ar
  31   15   23 ar
  32   16   17 3
  33   17   18 1
  34   18   26 ar
  35   18   30 ar
  36   19   20 ar
  37   20   21 ar
  38   20   43 1
  39   21   22 ar
  40   21   44 1
  41   22   23 ar
  42   22   31 1
  43   23   45 1
  44   24   25 1
  45   25   46 1
  46   25   47 1
  47   25   48 1
  48   26   27 ar
  49   26   49 1
  50   27   28 ar
  51   27   50 1
  52   28   29 ar
  53   28   51 1
  54   29   30 ar
  55   29   52 1
  56   31   53 1
  57   31   54 1
  58   31   55 1

#	End of record

