#	Name: ASD01908166
#	Creating user name:	WinNT
#	Creation time:	15. 06. 2019 19:54

#	Modifying user name:	WinNT
#	Modification time:	15. 06. 2019 19:54

#	Program:	/corina/corina34_cracker 3.40 0067  02.08.2006

@<TRIPOS>MOLECULE
ASD01908166
  35   36    0    0    0
SMALL
NO_CHARGES


@<TRIPOS>ATOM
   1 N1            -0.0169     1.3951     0.0097 N.pl3   
   2 N2             0.0021    -0.0041     0.0020 N.2     
   3 C3             1.2415    -0.4101    -0.0120 C.2     
   4 C4             2.0753     0.7311    -0.0138 C.2     
   5 C5             1.2499     1.8386    -0.0000 C.2     
   6 C6             3.5481     0.7382    -0.0271 C.2     
   7 O7             4.1607    -0.3113    -0.0379 O.2     
   8 O8             4.2163     1.9084    -0.0273 O.3     
   9 C9            -1.2174     2.2346     0.0202 C.3     
  10 C10           -2.1021     1.8605    -1.1411 C.ar    
  11 C11           -3.0662     0.8815    -0.9869 C.ar    
  12 C12           -3.8784     0.5368    -2.0498 C.ar    
  13 C13           -3.7262     1.1739    -3.2728 C.ar    
  14 C14           -2.7581     2.1559    -3.4249 C.ar    
  15 C15           -1.9522     2.5010    -2.3573 C.ar    
  16 O16           -4.5237     0.8362    -4.3201 O.3     
  17 C17           -4.3106     1.5336    -5.5490 C.3     
  18 C18            1.7035    -1.8445    -0.0237 C.3     
  19 C19            1.8464    -2.3225    -1.4700 C.3     
  20 H20            1.5658     2.8713     0.0025 H       
  21 H21            5.1822     1.8624    -0.0363 H       
  22 H22           -1.7593     2.0822     0.9536 H       
  23 H23           -0.9290     3.2822    -0.0656 H       
  24 H24           -3.1841     0.3855    -0.0347 H       
  25 H25           -4.6310    -0.2283    -1.9290 H       
  26 H26           -2.6376     2.6533    -4.3759 H       
  27 H27           -1.2016     3.2687    -2.4738 H       
  28 H28           -3.2898     1.3632    -5.8912 H       
  29 H29           -5.0113     1.1689    -6.3000 H       
  30 H30           -4.4680     2.6009    -5.3931 H       
  31 H31            2.6667    -1.9201     0.4809 H       
  32 H32            0.9725    -2.4659     0.4938 H       
  33 H33            2.5774    -1.7012    -1.9875 H       
  34 H34            2.1806    -3.3600    -1.4785 H       
  35 H35            0.8832    -2.2469    -1.9746 H       
@<TRIPOS>BOND
   1    1    2 1
   2    1    5 1
   3    1    9 1
   4    2    3 2
   5    3    4 1
   6    3   18 1
   7    4    5 2
   8    4    6 1
   9    5   20 1
  10    6    7 2
  11    6    8 1
  12    8   21 1
  13    9   10 1
  14    9   22 1
  15    9   23 1
  16   10   11 ar
  17   10   15 ar
  18   11   12 ar
  19   11   24 1
  20   12   13 ar
  21   12   25 1
  22   13   14 ar
  23   13   16 1
  24   14   15 ar
  25   14   26 1
  26   15   27 1
  27   16   17 1
  28   17   28 1
  29   17   29 1
  30   17   30 1
  31   18   19 1
  32   18   31 1
  33   18   32 1
  34   19   33 1
  35   19   34 1
  36   19   35 1

#	End of record

