#	Name: ASD01940226
#	Creating user name:	WinNT
#	Creation time:	15. 06. 2019 20:12

#	Modifying user name:	WinNT
#	Modification time:	15. 06. 2019 20:12

#	Program:	/corina/corina34_cracker 3.40 0067  02.08.2006

@<TRIPOS>MOLECULE
ASD01940226
  39   41    0    0    0
SMALL
NO_CHARGES


@<TRIPOS>ATOM
   1 C1            -0.6566    -2.9502     1.5888 C.3     
   2 C2             6.0034    -0.1113     7.8026 C.2     
   3 F3             1.7959     2.4580     3.0803 F       
   4 C4             0.8487     1.5329     3.3488 C.ar    
   5 C5             1.2008     0.1963     3.4820 C.ar    
   6 C6             0.2199    -0.7546     3.7590 C.ar    
   7 C7            -1.1027    -0.3618     3.9002 C.ar    
   8 C8            -1.4474     0.9706     3.7664 C.ar    
   9 C9            -0.4742     1.9177     3.4969 C.ar    
  10 N10            2.5388    -0.1957     3.3380 N.pl3   
  11 N11            0.5694    -2.1048     3.8941 N.am    
  12 C12            3.3950    -0.1750     4.4410 C.ar    
  13 C13            2.9049     0.1742     5.6937 C.ar    
  14 C14            3.7488     0.1952     6.7843 C.ar    
  15 C15            5.0941    -0.1339     6.6301 C.ar    
  16 C16            5.5848    -0.4841     5.3730 C.ar    
  17 C17            4.7368    -0.5096     4.2856 C.ar    
  18 Cl18           5.3466    -0.9454     2.7197 Cl      
  19 F19           -0.8158     3.2189     3.3728 F       
  20 S20           -0.4632    -3.2847     3.3612 S.o2    
  21 O21           -1.6773    -3.0263     4.0528 O.2     
  22 O22            0.2527    -4.4951     3.5650 O.2     
  23 N23            5.6680     0.1999     9.0369 N.2     
  24 N24            6.8126     0.0982     9.8378 N.pl3   
  25 C25            7.8431    -0.2820     9.0522 C.2     
  26 C26            7.3766    -0.4249     7.7925 C.2     
  27 H27            0.3157    -3.0092     1.0997 H       
  28 H28           -1.3288    -3.6882     1.1511 H       
  29 H29           -1.0729    -1.9524     1.4507 H       
  30 H30           -1.8640    -1.0972     4.1144 H       
  31 H31           -2.4781     1.2738     3.8767 H       
  32 H32            2.8700    -0.4813     2.4722 H       
  33 H33            1.4162    -2.3484     4.2998 H       
  34 H34            1.8623     0.4296     5.8131 H       
  35 H35            3.3672     0.4670     7.7574 H       
  36 H36            6.6272    -0.7391     5.2516 H       
  37 H37            6.8574     0.2713    10.7912 H       
  38 H38            8.8605    -0.4467     9.3750 H       
  39 H39            7.9550    -0.7208     6.9299 H       
@<TRIPOS>BOND
   1    1   20 1
   2    1   27 1
   3    1   28 1
   4    1   29 1
   5    2   23 2
   6    2   15 1
   7    2   26 1
   8    3    4 1
   9    4    5 ar
  10    4    9 ar
  11    5    6 ar
  12    5   10 1
  13    6    7 ar
  14    6   11 1
  15    7    8 ar
  16    7   30 1
  17    8    9 ar
  18    8   31 1
  19    9   19 1
  20   10   12 1
  21   10   32 1
  22   11   20 am
  23   11   33 1
  24   12   13 ar
  25   12   17 ar
  26   13   14 ar
  27   13   34 1
  28   14   15 ar
  29   14   35 1
  30   15   16 ar
  31   16   17 ar
  32   16   36 1
  33   17   18 1
  34   20   21 2
  35   20   22 2
  36   23   24 1
  37   24   25 1
  38   24   37 1
  39   25   26 2
  40   25   38 1
  41   26   39 1

#	End of record

