#	Name: ASD01140620
#	Creating user name:	WinNT
#	Creation time:	15. 06. 2019 19:01

#	Modifying user name:	WinNT
#	Modification time:	15. 06. 2019 19:01

#	Program:	/corina/corina34_cracker 3.40 0067  02.08.2006

@<TRIPOS>MOLECULE
ASD01140620
  42   46    0    0    0
SMALL
NO_CHARGES


@<TRIPOS>ATOM
   1 N1            -0.7080     0.8515     0.0531 N.pl3   
   2 C2            -0.1675    -0.9879    -1.3831 C.ar    
   3 C3             1.5686     1.1465    -0.7536 C.3     
   4 C4             0.2256     0.0047    -2.4249 C.2     
   5 N5             1.0730     0.9208    -2.1071 N.2     
   6 C6            -1.1454    -1.4101     0.7832 C.ar    
   7 C7            -1.0424    -2.7653     0.5550 C.ar    
   8 C8            -0.4767    -3.2458    -0.6295 C.ar    
   9 C9            -0.0398    -2.3491    -1.6047 C.ar    
  10 C10           -0.6872    -0.5064    -0.1660 C.ar    
  11 C11           -0.3448    -0.0621    -3.7923 C.ar    
  12 C12            0.2078     0.7121    -4.8096 C.ar    
  13 C13           -0.3355     0.6388    -6.0820 C.ar    
  14 C14           -1.4137    -0.2070    -6.2932 C.ar    
  15 C15           -1.9125    -0.9482    -5.2352 C.ar    
  16 N16           -1.3740    -0.8632    -4.0374 N.ar    
  17 N17           -1.5552     2.8970    -0.1854 N.2     
  18 C18           -1.8064     1.6693     0.1090 C.2     
  19 C19            0.4658     1.7594     0.0996 C.3     
  20 C20           -0.1083     3.0727    -0.4223 C.3     
  21 C21            0.1785     3.2369    -1.8926 C.2     
  22 C22           -0.6182     2.8635    -2.9077 C.2     
  23 N23            0.0041     3.1866    -4.0552 N.2     
  24 C24            1.1472     3.7414    -3.7685 C.2     
  25 O25            1.2799     3.7912    -2.4363 O.3     
  26 C26           -0.3459    -4.6560    -0.8415 C.1     
  27 C27           -0.2387    -5.8121    -1.0154 C.1     
  28 H28            1.8791     0.1969    -0.3179 H       
  29 H29            2.4206     1.8254    -0.7877 H       
  30 H30           -1.5839    -1.0502     1.7022 H       
  31 H31           -1.4015    -3.4621     1.2979 H       
  32 H32            0.3942    -2.7131    -2.5243 H       
  33 H33            1.0477     1.3608    -4.6093 H       
  34 H34            0.0713     1.2274    -6.8909 H       
  35 H35           -1.8603    -0.2868    -7.2733 H       
  36 H36           -2.7522    -1.6080    -5.3962 H       
  37 H37           -2.7917     1.3162     0.3750 H       
  38 H38            0.8097     1.8719     1.1278 H       
  39 H39            0.2782     3.9184     0.1464 H       
  40 H40           -1.5843     2.3892    -2.8183 H       
  41 H41            1.8675     4.1051    -4.4863 H       
  42 H42           -0.1429    -6.8461    -1.1708 H       
@<TRIPOS>BOND
   1    1   10 1
   2    1   19 1
   3    1   18 1
   4    2    4 1
   5    2   10 ar
   6    2    9 ar
   7    3    5 1
   8    3   19 1
   9    3   28 1
  10    3   29 1
  11    4   11 1
  12    4    5 2
  13    6    7 ar
  14    6   10 ar
  15    6   30 1
  16    7    8 ar
  17    7   31 1
  18    8    9 ar
  19    8   26 1
  20    9   32 1
  21   11   12 ar
  22   11   16 ar
  23   12   13 ar
  24   12   33 1
  25   13   14 ar
  26   13   34 1
  27   14   15 ar
  28   14   35 1
  29   15   16 ar
  30   15   36 1
  31   17   18 2
  32   17   20 1
  33   18   37 1
  34   19   20 1
  35   19   38 1
  36   20   21 1
  37   20   39 1
  38   21   22 2
  39   21   25 1
  40   22   23 1
  41   22   40 1
  42   23   24 2
  43   24   25 1
  44   24   41 1
  45   26   27 3
  46   27   42 1

#	End of record

