#	Name: ASD02610025
#	Creating user name:	WinNT
#	Creation time:	15. 06. 2019 20:25

#	Modifying user name:	WinNT
#	Modification time:	15. 06. 2019 20:25

#	Program:	/corina/corina34_cracker 3.40 0067  02.08.2006

@<TRIPOS>MOLECULE
ASD02610025
 113  116    0    0    0
SMALL
NO_CHARGES


@<TRIPOS>ATOM
   1 C1            -0.9211    -0.2425    -0.4023 C.3     
   2 C2            -0.6998    -1.7742    -0.4378 C.3     
   3 C3             0.7095    -1.9450    -0.9547 C.2     
   4 C4             1.3856    -0.8225    -0.8716 C.2     
   5 C5             0.5297     0.2600    -0.2775 C.3     
   6 C6             2.8015    -0.6428    -1.3519 C.3     
   7 C7             3.5178     0.4326    -0.5633 C.3     
   8 C8             3.2062     1.8407    -0.9677 C.3     
   9 C9             1.9435     2.3648    -0.3336 C.3     
  10 C10            0.7215     1.6208    -0.8474 C.3     
  11 O11           -1.6492    -2.4020    -1.3393 O.3     
  12 C12            1.2670    -3.2363    -1.4957 C.3     
  13 O13           -1.7105     0.1455     0.7529 O.3     
  14 H14            0.7648     0.3179     0.7853 H       
  15 O15           -0.4573     2.4135    -0.5467 O.3     
  16 C16            0.8367     1.4955    -2.3679 C.3     
  17 O17            3.0636     1.8913    -2.3887 O.3     
  18 O18            3.5845    -1.8309    -1.1419 O.3     
  19 C19            4.9665    -1.4189    -1.1615 C.3     
  20 C20            5.0059     0.0719    -0.7564 C.3     
  21 O21            3.1886     0.2800     0.8188 O.3     
  22 C22           -3.0413     0.2076     0.5887 C.2     
  23 C23           -3.9253     0.6031     1.7433 C.3     
  24 C24           -5.3873     0.5954     1.2921 C.3     
  25 C25           -6.2849     0.9970     2.4643 C.3     
  26 C26           -7.7468     0.9893     2.0132 C.3     
  27 C27           -8.6444     1.3909     3.1854 C.3     
  28 O28           -3.5303    -0.0537    -0.4848 O.2     
  29 O29            5.5838     0.8612    -1.7981 O.3     
  30 C30          -10.1063     1.3832     2.7343 C.3     
  31 C31          -11.0039     1.7847     3.9065 C.3     
  32 C32            5.7785     0.2545     0.5515 C.3     
  33 C33           -0.5064     3.6520    -1.0620 C.2     
  34 C34           -1.6575     4.5639    -0.7233 C.3     
  35 O35            0.3722     4.0357    -1.7973 O.2     
  36 H36            2.8013    -0.3847    -2.4109 H       
  37 C37            5.5410    -1.5911    -2.5691 C.3     
  38 O38            5.7189    -2.1964    -0.2279 O.3     
  39 C39           -2.0234    -3.6586    -1.0516 C.2     
  40 C40           -3.0058    -4.3748    -1.9421 C.3     
  41 O41           -1.5727    -4.2154    -0.0787 O.2     
  42 C42           -3.2598    -5.7806    -1.3943 C.3     
  43 C43           -4.2422    -6.4968    -2.2848 C.ar    
  44 C44           -3.7855    -7.2460    -3.3536 C.ar    
  45 C45           -4.6833    -7.9036    -4.1716 C.ar    
  46 C46           -6.0459    -7.8121    -3.9195 C.ar    
  47 C47           -6.5012    -7.0593    -2.8452 C.ar    
  48 C48           -5.5980    -6.4080    -2.0280 C.ar    
  49 N49           -6.9582    -8.4769    -4.7468 N.am    
  50 C50           -6.6399    -9.6753    -5.2749 C.2     
  51 O51           -7.5525   -10.3596    -5.9903 O.3     
  52 C52           -7.1402   -11.6434    -6.5290 C.3     
  53 C53           -6.7365   -12.5720    -5.3820 C.3     
  54 C54           -8.3014   -12.2673    -7.3057 C.3     
  55 C55           -5.9482   -11.4437    -7.4671 C.3     
  56 O56           -5.5292   -10.1382    -5.1055 O.2     
  57 H57           -1.3807     0.1094    -1.3259 H       
  58 H58           -0.7906    -2.1945     0.5639 H       
  59 H59            4.0380     2.4822    -0.6769 H       
  60 H60            2.0086     2.2414     0.7474 H       
  61 H61            1.8403     3.4247    -0.5658 H       
  62 H62            0.4998    -4.0094    -1.4529 H       
  63 H63            1.5800    -3.0920    -2.5298 H       
  64 H64            2.1243    -3.5416    -0.8958 H       
  65 H65           -0.1305     1.2126    -2.7834 H       
  66 H66            1.1473     2.4517    -2.7888 H       
  67 H67            1.5753     0.7328    -2.6146 H       
  68 H68            2.8602     2.7719    -2.7324 H       
  69 H69            3.3695    -0.6021     1.1712 H       
  70 H70           -3.7937    -0.1054     2.5610 H       
  71 H71           -3.6549     1.6033     2.0820 H       
  72 H72           -5.5189     1.3039     0.4744 H       
  73 H73           -5.6577    -0.4047     0.9535 H       
  74 H74           -6.1532     0.2885     3.2821 H       
  75 H75           -6.0144     1.9971     2.8030 H       
  76 H76           -7.8785     1.6978     1.1954 H       
  77 H77           -8.0173    -0.0108     1.6745 H       
  78 H78           -8.5127     0.6824     4.0032 H       
  79 H79           -8.3739     2.3910     3.5241 H       
  80 H80            6.5185     0.6743    -1.9607 H       
  81 H81          -10.2380     2.0917     1.9165 H       
  82 H82          -10.3768     0.3830     2.3956 H       
  83 H83          -10.8723     1.0762     4.7242 H       
  84 H84          -10.7334     2.7849     4.2451 H       
  85 H85          -12.0454     1.7792     3.5851 H       
  86 H86            5.3545    -0.3946     1.3176 H       
  87 H87            6.8255    -0.0049     0.3942 H       
  88 H88            5.7060     1.2930     0.8743 H       
  89 H89           -1.4133     5.1414     0.1683 H       
  90 H90           -1.8410     5.2422    -1.5566 H       
  91 H91           -2.5506     3.9676    -0.5367 H       
  92 H92            4.9574    -0.9997    -3.2746 H       
  93 H93            6.5774    -1.2538    -2.5823 H       
  94 H94            5.4975    -2.6426    -2.8532 H       
  95 H95            5.7241    -3.1442    -0.4193 H       
  96 H96           -3.9438    -3.8201    -1.9683 H       
  97 H97           -2.5975    -4.4459    -2.9502 H       
  98 H98           -2.3218    -6.3353    -1.3681 H       
  99 H99           -3.6681    -5.7095    -0.3862 H       
 100 H100          -2.7257    -7.3168    -3.5491 H       
 101 H101          -4.3261    -8.4880    -5.0066 H       
 102 H102          -7.5603    -6.9860    -2.6467 H       
 103 H103          -5.9515    -5.8227    -1.1921 H       
 104 H104          -7.8197    -8.0751    -4.9400 H       
 105 H105          -7.5858   -12.7143    -4.7137 H       
 106 H106          -6.4270   -13.5357    -5.7864 H       
 107 H107          -5.9092   -12.1275    -4.8287 H       
 108 H108          -8.5890   -11.6057    -8.1229 H       
 109 H109          -7.9919   -13.2310    -7.7101 H       
 110 H110          -9.1507   -12.4096    -6.6374 H       
 111 H111          -5.1209   -10.9992    -6.9138 H       
 112 H112          -5.6386   -12.4074    -7.8716 H       
 113 H113          -6.2357   -10.7821    -8.2843 H       
@<TRIPOS>BOND
   1    1    2 1
   2    1    5 1
   3    1   13 1
   4    1   57 1
   5    2    3 1
   6    2   11 1
   7    2   58 1
   8    3    4 2
   9    3   12 1
  10    4    5 1
  11    4    6 1
  12    5   10 1
  13    5   14 1
  14    6    7 1
  15    6   18 1
  16    6   36 1
  17    7   20 1
  18    7   21 1
  19    7    8 1
  20    8    9 1
  21    8   17 1
  22    8   59 1
  23    9   10 1
  24    9   60 1
  25    9   61 1
  26   10   15 1
  27   10   16 1
  28   11   39 1
  29   12   62 1
  30   12   63 1
  31   12   64 1
  32   13   22 1
  33   15   33 1
  34   16   65 1
  35   16   66 1
  36   16   67 1
  37   17   68 1
  38   18   19 1
  39   19   20 1
  40   19   37 1
  41   19   38 1
  42   20   29 1
  43   20   32 1
  44   21   69 1
  45   22   23 1
  46   22   28 2
  47   23   24 1
  48   23   70 1
  49   23   71 1
  50   24   25 1
  51   24   72 1
  52   24   73 1
  53   25   26 1
  54   25   74 1
  55   25   75 1
  56   26   27 1
  57   26   76 1
  58   26   77 1
  59   27   30 1
  60   27   78 1
  61   27   79 1
  62   29   80 1
  63   30   31 1
  64   30   81 1
  65   30   82 1
  66   31   83 1
  67   31   84 1
  68   31   85 1
  69   32   86 1
  70   32   87 1
  71   32   88 1
  72   33   34 1
  73   33   35 2
  74   34   89 1
  75   34   90 1
  76   34   91 1
  77   37   92 1
  78   37   93 1
  79   37   94 1
  80   38   95 1
  81   39   40 1
  82   39   41 2
  83   40   42 1
  84   40   96 1
  85   40   97 1
  86   42   43 1
  87   42   98 1
  88   42   99 1
  89   43   44 ar
  90   43   48 ar
  91   44   45 ar
  92   44  100 1
  93   45   46 ar
  94   45  101 1
  95   46   47 ar
  96   46   49 1
  97   47   48 ar
  98   47  102 1
  99   48  103 1
 100   49   50 am
 101   49  104 1
 102   50   51 1
 103   50   56 2
 104   51   52 1
 105   52   53 1
 106   52   54 1
 107   52   55 1
 108   53  105 1
 109   53  106 1
 110   53  107 1
 111   54  108 1
 112   54  109 1
 113   54  110 1
 114   55  111 1
 115   55  112 1
 116   55  113 1

#	End of record

