#	Name: ASD01209188
#	Creating user name:	WinNT
#	Creation time:	15. 06. 2019 19:11

#	Modifying user name:	WinNT
#	Modification time:	15. 06. 2019 19:11

#	Program:	/corina/corina34_cracker 3.40 0067  02.08.2006

@<TRIPOS>MOLECULE
ASD01209188
  71   73    0    0    0
SMALL
NO_CHARGES


@<TRIPOS>ATOM
   1 O1             1.0216     0.0436    -0.5629 O.3     
   2 O2             3.1686     0.8784     0.7042 O.3     
   3 C3             2.0967     5.9736    -8.7763 C.ar    
   4 C4             1.1682     6.1209    -9.7962 C.ar    
   5 C5            -0.1491     5.7306    -9.6023 C.ar    
   6 C6            -0.5421     5.1912    -8.3890 C.ar    
   7 C7             0.3887     5.0412    -7.3601 C.ar    
   8 C8             1.7134     5.4301    -7.5611 C.ar    
   9 O9            -1.0550     5.8780   -10.6047 O.3     
  10 C10           -0.0264     4.4669    -6.0628 C.2     
  11 N11            0.8741     4.3229    -5.0705 N.am    
  12 O12           -1.1801     4.1244    -5.8910 O.2     
  13 C13            0.4840     3.7832    -3.8515 C.2     
  14 P14            2.2174     1.1216    -0.5717 P.3     
  15 O15            3.0089     0.9703    -1.8131 O.2     
  16 C16            1.5194     2.8041    -0.4975 C.3     
  17 N17            1.2677     3.6020    -2.8348 N.2     
  18 S18           -1.1011     3.2680    -3.4711 S.3     
  19 C19           -0.5731     2.8008    -1.8566 C.2     
  20 C20            0.7285     3.0756    -1.7512 C.2     
  21 C21            1.2383    -1.3604    -0.7168 C.3     
  22 C22           -0.1039    -2.0928    -0.6614 C.3     
  23 C23            3.9457    -0.3077     0.8809 C.3     
  24 C24            4.7298    -0.2133     2.1913 C.3     
  25 O25            3.3857     6.3580    -8.9713 O.3     
  26 C26            4.2618     6.2855    -7.8448 C.3     
  27 C27            4.8291     4.8692    -7.7301 C.3     
  28 C28            5.4091     7.2814    -8.0261 C.3     
  29 C29           -0.6129     6.5514   -11.7850 C.3     
  30 C30           -1.8152     7.1654   -12.5497 C.3     
  31 C31           -1.2737     7.2045   -14.0006 C.3     
  32 N32           -0.4737     5.9739   -14.1382 N.am    
  33 C33           -0.0330     5.5462   -12.8023 C.3     
  34 C34           -0.1934     5.3447   -15.2966 C.2     
  35 O35            0.4783     4.3321   -15.2909 O.2     
  36 O36           -0.6577     5.8380   -16.4601 O.3     
  37 C37           -0.3168     5.1084   -17.6683 C.3     
  38 H38            1.4714     6.5409   -10.7439 H       
  39 H39           -1.5678     4.8879    -8.2388 H       
  40 H40            2.4370     5.3158    -6.7675 H       
  41 H41            1.7947     4.5962    -5.2075 H       
  42 H42            0.8650     2.8880     0.3702 H       
  43 H43            2.3284     3.5297    -0.4139 H       
  44 H44           -1.1950     2.3705    -1.0855 H       
  45 H45            1.7168    -1.5510    -1.6775 H       
  46 H46            1.8814    -1.7191     0.0868 H       
  47 H47            0.0614    -3.1637    -0.7788 H       
  48 H48           -0.5823    -1.9022     0.2993 H       
  49 H49           -0.7470    -1.7341    -1.4651 H       
  50 H50            3.2844    -1.1736     0.9148 H       
  51 H51            4.6410    -0.4140     0.0482 H       
  52 H52            4.0345    -0.1070     3.0239 H       
  53 H53            5.3225    -1.1181     2.3260 H       
  54 H54            5.3911     0.6525     2.1573 H       
  55 H55            3.7086     6.5298    -6.9379 H       
  56 H56            5.3824     4.6249    -8.6369 H       
  57 H57            5.4974     4.8140    -6.8708 H       
  58 H58            4.0118     4.1598    -7.6009 H       
  59 H59            5.0050     8.2904    -8.1078 H       
  60 H60            6.0774     7.2261    -7.1668 H       
  61 H61            5.9624     7.0371    -8.9329 H       
  62 H62            0.1196     7.3196   -11.5374 H       
  63 H63           -2.6931     6.5234   -12.4775 H       
  64 H64           -2.0366     8.1695   -12.1881 H       
  65 H65           -2.0983     7.2027   -14.7134 H       
  66 H66           -0.6460     8.0835   -14.1476 H       
  67 H67            1.0558     5.5535   -12.7512 H       
  68 H68           -0.4095     4.5455   -12.5905 H       
  69 H69            0.7672     5.0722   -17.7772 H       
  70 H70           -0.7094     4.0937   -17.6030 H       
  71 H71           -0.7521     5.6115   -18.5316 H       
@<TRIPOS>BOND
   1    1   21 1
   2    1   14 1
   3    2   23 1
   4    2   14 1
   5    3    4 ar
   6    3   25 1
   7    3    8 ar
   8    4    5 ar
   9    4   38 1
  10    5    6 ar
  11    5    9 1
  12    6    7 ar
  13    6   39 1
  14    7    8 ar
  15    7   10 1
  16    8   40 1
  17    9   29 1
  18   10   11 am
  19   10   12 2
  20   11   13 1
  21   11   41 1
  22   13   17 2
  23   13   18 1
  24   14   15 2
  25   14   16 1
  26   16   20 1
  27   16   42 1
  28   16   43 1
  29   17   20 1
  30   18   19 1
  31   19   20 2
  32   19   44 1
  33   21   22 1
  34   21   45 1
  35   21   46 1
  36   22   47 1
  37   22   48 1
  38   22   49 1
  39   23   24 1
  40   23   50 1
  41   23   51 1
  42   24   52 1
  43   24   53 1
  44   24   54 1
  45   25   26 1
  46   26   27 1
  47   26   28 1
  48   26   55 1
  49   27   56 1
  50   27   57 1
  51   27   58 1
  52   28   59 1
  53   28   60 1
  54   28   61 1
  55   29   30 1
  56   29   33 1
  57   29   62 1
  58   30   31 1
  59   30   63 1
  60   30   64 1
  61   31   32 1
  62   31   65 1
  63   31   66 1
  64   32   33 1
  65   32   34 am
  66   33   67 1
  67   33   68 1
  68   34   35 2
  69   34   36 1
  70   36   37 1
  71   37   69 1
  72   37   70 1
  73   37   71 1

#	End of record

