#	Name: ASD05730028
#	Creating user name:	WinNT
#	Creation time:	15. 06. 2019 21:02

#	Modifying user name:	WinNT
#	Modification time:	15. 06. 2019 21:02

#	Program:	/corina/corina34_cracker 3.40 0067  02.08.2006

@<TRIPOS>MOLECULE
ASD05730028
  70   74    0    0    0
SMALL
NO_CHARGES


@<TRIPOS>ATOM
   1 C1            -0.0251     1.3828    -0.1262 C.ar    
   2 C2            -0.0074    -0.0152    -0.0777 C.ar    
   3 C3            -1.1822    -0.7254     0.0130 C.ar    
   4 C4            -2.4051    -0.0594     0.0581 C.ar    
   5 C5            -2.4255     1.3440     0.0101 C.ar    
   6 C6            -1.2427     2.0628    -0.0759 C.ar    
   7 N7            -3.7050    -0.5301     0.1474 N.am    
   8 C8            -4.5938     0.4773     0.1619 C.2     
   9 C9            -3.8501     1.7416     0.0759 C.2     
  10 C10           -4.3673     3.0217     0.0596 C.2     
  11 C11           -5.7615     3.2183    -0.0338 C.2     
  12 O12           -6.6838     2.2522    -0.2276 O.3     
  13 C13           -7.9057     2.7900    -0.2649 C.2     
  14 C14           -7.7933     4.1535    -0.0908 C.2     
  15 C15           -6.4133     4.4285     0.0634 C.2     
  16 C16           -5.7812     5.7789     0.2820 C.3     
  17 C17           -8.8959     5.1331    -0.0653 C.2     
  18 O18           -9.4377     5.4114     0.9872 O.2     
  19 N19           -9.3029     5.7197    -1.2084 N.am    
  20 O20           -5.8043     0.3627     0.2337 O.2     
  21 C21            1.2405     2.1365    -0.2240 C.2     
  22 O22            1.2229     3.3515    -0.2660 O.2     
  23 N23            2.4156     1.4778    -0.2667 N.am    
  24 C24            3.6715     2.2257    -0.3638 C.3     
  25 C25            4.7948     1.3970     0.2041 C.ar    
  26 C26            5.8786    -0.7211     0.4722 C.ar    
  27 C27            4.8482     0.0391    -0.0488 C.ar    
  28 C28          -10.4002     6.6990    -1.2053 C.3     
  29 C29           -9.9313     7.9579    -1.9425 C.3     
  30 N30           -9.4348     7.5855    -3.2739 N.3     
  31 C31           -8.2609     6.7076    -3.1786 C.3     
  32 C32           -8.6573     5.4020    -2.4912 C.3     
  33 C33            3.9638     2.5433    -1.8316 C.3     
  34 C34            5.7749     1.9959     0.9733 C.ar    
  35 C35            6.8053     1.2357     1.4944 C.ar    
  36 C36            6.8553    -0.1233     1.2465 C.ar    
  37 C37           -9.1361     8.7787    -4.0770 C.3     
  38 C38           -9.1932     2.0328    -0.4646 C.3     
  39 H39            0.9354    -0.5408    -0.1121 H       
  40 H40           -1.1563    -1.8045     0.0490 H       
  41 H41           -1.2642     3.1419    -0.1126 H       
  42 H42           -3.9436    -1.4692     0.1937 H       
  43 H43           -3.7047     3.8726     0.1184 H       
  44 H44           -5.7180     5.9817     1.3511 H       
  45 H45           -4.7800     5.7855    -0.1489 H       
  46 H46           -6.3884     6.5463    -0.1980 H       
  47 H47            2.4297     0.5084    -0.2332 H       
  48 H48            3.5853     3.1552     0.1989 H       
  49 H49            5.9201    -1.7821     0.2749 H       
  50 H50            4.0847    -0.4281    -0.6531 H       
  51 H51          -11.2677     6.2785    -1.7141 H       
  52 H52          -10.6620     6.9523    -0.1780 H       
  53 H53          -10.7662     8.6509    -2.0463 H       
  54 H54           -9.1310     8.4342    -1.3760 H       
  55 H55           -7.8844     6.4939    -4.1789 H       
  56 H56           -7.4839     7.2014    -2.5949 H       
  57 H57           -7.7684     4.7962    -2.3155 H       
  58 H58           -9.3583     4.8546    -3.1214 H       
  59 H59            3.1513     3.1427    -2.2424 H       
  60 H60            4.8982     3.0998    -1.9039 H       
  61 H61            4.0500     1.6138    -2.3943 H       
  62 H62            5.7359     3.0577     1.1669 H       
  63 H63            7.5714     1.7037     2.0947 H       
  64 H64            7.6605    -0.7171     1.6533 H       
  65 H65           -8.3741     9.3740    -3.5738 H       
  66 H66           -8.7704     8.4744    -5.0577 H       
  67 H67          -10.0420     9.3732    -4.1955 H       
  68 H68           -8.9766     0.9702    -0.5747 H       
  69 H69           -9.8412     2.1839     0.3987 H       
  70 H70           -9.6932     2.3965    -1.3623 H       
@<TRIPOS>BOND
   1    1    2 ar
   2    1   21 1
   3    1    6 ar
   4    2    3 ar
   5    2   39 1
   6    3    4 ar
   7    3   40 1
   8    4    5 ar
   9    4    7 1
  10    5    6 ar
  11    5    9 1
  12    6   41 1
  13    7    8 am
  14    7   42 1
  15    8    9 1
  16    8   20 2
  17    9   10 2
  18   10   11 1
  19   10   43 1
  20   11   12 1
  21   11   15 2
  22   12   13 1
  23   13   14 2
  24   13   38 1
  25   14   15 1
  26   14   17 1
  27   15   16 1
  28   16   44 1
  29   16   45 1
  30   16   46 1
  31   17   18 2
  32   17   19 am
  33   19   28 1
  34   19   32 1
  35   21   22 2
  36   21   23 am
  37   23   24 1
  38   23   47 1
  39   24   25 1
  40   24   33 1
  41   24   48 1
  42   25   34 ar
  43   25   27 ar
  44   26   27 ar
  45   26   36 ar
  46   26   49 1
  47   27   50 1
  48   28   29 1
  49   28   51 1
  50   28   52 1
  51   29   30 1
  52   29   53 1
  53   29   54 1
  54   30   31 1
  55   30   37 1
  56   31   32 1
  57   31   55 1
  58   31   56 1
  59   32   57 1
  60   32   58 1
  61   33   59 1
  62   33   60 1
  63   33   61 1
  64   34   35 ar
  65   34   62 1
  66   35   36 ar
  67   35   63 1
  68   36   64 1
  69   37   65 1
  70   37   66 1
  71   37   67 1
  72   38   68 1
  73   38   69 1
  74   38   70 1

#	End of record

