#	Name: ASD01813756
#	Creating user name:	WinNT
#	Creation time:	15. 06. 2019 19:31

#	Modifying user name:	WinNT
#	Modification time:	15. 06. 2019 19:31

#	Program:	/corina/corina34_cracker 3.40 0067  02.08.2006

@<TRIPOS>MOLECULE
ASD01813756
  37   39    0    0    0
SMALL
NO_CHARGES


@<TRIPOS>ATOM
   1 C1            -0.0168     1.3835    -0.0525 C.ar    
   2 C2             0.0020    -0.0037    -0.0595 C.ar    
   3 C3             1.1977    -0.6919    -0.0541 C.ar    
   4 C4             2.4035     0.0084    -0.0415 C.ar    
   5 C5             2.3797     1.4130    -0.0345 C.ar    
   6 C6             1.1627     2.0947    -0.0400 C.ar    
   7 N7             3.6056    -0.6668    -0.0350 N.pl3   
   8 C8             4.7891    -0.0410    -0.0215 C.2     
   9 C9             4.8932     1.3356    -0.0131 C.2     
  10 C10            3.6619     2.1417    -0.0212 C.2     
  11 O11            3.7002     3.3596    -0.0146 O.2     
  12 C12            6.2115     1.9851     0.0026 C.2     
  13 O13            6.3001     3.3302     0.0107 O.3     
  14 O14            7.2220     1.3094     0.0084 O.2     
  15 C15            3.5871    -2.1316    -0.0427 C.3     
  16 C16            3.4445    -2.6248    -1.4595 C.ar    
  17 N17            2.2480    -2.7334    -2.0046 N.ar    
  18 N18            2.0798    -3.1487    -3.2073 N.ar    
  19 C19            3.0922    -3.4949    -3.9793 C.ar    
  20 C20            4.3882    -3.4148    -3.4945 C.ar    
  21 C21            4.5706    -2.9599    -2.1950 C.ar    
  22 F22            1.2003    -2.0429    -0.0606 F       
  23 S23            2.7973    -4.0583    -5.6225 S.o     
  24 O24            1.4609    -4.5374    -5.5612 O.2     
  25 C25            2.8466    -2.5271    -6.5940 C.3     
  26 H26           -0.9607     1.9082    -0.0614 H       
  27 H27           -0.9292    -0.5507    -0.0689 H       
  28 H28            1.1454     3.1746    -0.0349 H       
  29 H29            5.6925    -0.6328    -0.0167 H       
  30 H30            7.1887     3.7116     0.0210 H       
  31 H31            4.5175    -2.5090     0.3815 H       
  32 H32            2.7459    -2.4875     0.5522 H       
  33 H33            5.2308    -3.6937    -4.1099 H       
  34 H34            5.5591    -2.8781    -1.7676 H       
  35 H35            3.8234    -2.0567    -6.4813 H       
  36 H36            2.6736    -2.7580    -7.6451 H       
  37 H37            2.0726    -1.8466    -6.2392 H       
@<TRIPOS>BOND
   1    1    2 ar
   2    1    6 ar
   3    1   26 1
   4    2    3 ar
   5    2   27 1
   6    3   22 1
   7    3    4 ar
   8    4    5 ar
   9    4    7 1
  10    5    6 ar
  11    5   10 1
  12    6   28 1
  13    7    8 1
  14    7   15 1
  15    8    9 2
  16    8   29 1
  17    9   10 1
  18    9   12 1
  19   10   11 2
  20   12   13 1
  21   12   14 2
  22   13   30 1
  23   15   16 1
  24   15   31 1
  25   15   32 1
  26   16   17 ar
  27   16   21 ar
  28   17   18 ar
  29   18   19 ar
  30   19   20 ar
  31   19   23 1
  32   20   21 ar
  33   20   33 1
  34   21   34 1
  35   23   24 2
  36   23   25 1
  37   25   35 1
  38   25   36 1
  39   25   37 1

#	End of record

