#	Name: ASD01901615
#	Creating user name:	WinNT
#	Creation time:	15. 06. 2019 19:54

#	Modifying user name:	WinNT
#	Modification time:	15. 06. 2019 19:54

#	Program:	/corina/corina34_cracker 3.40 0067  02.08.2006

@<TRIPOS>MOLECULE
ASD01901615
  41   44    0    0    0
SMALL
NO_CHARGES


@<TRIPOS>ATOM
   1 C1             0.4816     1.6430     0.4841 C.3     
   2 N2             0.4153     0.3390    -0.1891 N.3     
   3 C3             1.4229    -0.5839     0.3506 C.3     
   4 C4             2.8013    -0.2123    -0.1995 C.3     
   5 F5             3.1738     1.0456     0.2865 F       
   6 F6             3.7392    -1.1665     0.2091 F       
   7 F7             2.7515    -0.1761    -1.5972 F       
   8 C8            -0.8549    -0.2036    -0.0956 C.ar    
   9 N9            -1.1246    -1.1024     0.8323 N.ar    
  10 C10           -2.3238    -1.6546     0.9676 C.ar    
  11 C11           -3.3625    -1.3289     0.1525 C.ar    
  12 C12           -3.1558    -0.3753    -0.8652 C.ar    
  13 C13           -4.1770     0.0096    -1.7413 C.ar    
  14 C14           -3.9118     0.9489    -2.7180 C.ar    
  15 N15           -4.9240     1.3379    -3.5949 N.pl3   
  16 C16           -4.6060     1.7373    -4.8964 C.2     
  17 N17           -3.4063     1.8170    -5.4075 N.2     
  18 N18           -3.4776     2.2525    -6.7342 N.pl3   
  19 H19           -2.7180     2.3884    -7.3220 H       
  20 C20           -4.7874     2.4566    -7.0731 C.ar    
  21 N21           -5.3947     2.8609    -8.1825 N.ar    
  22 C22           -6.7086     2.9650    -8.2103 C.ar    
  23 C23           -7.4668     2.6552    -7.0876 C.ar    
  24 N24           -6.8822     2.2525    -5.9778 N.ar    
  25 C25           -5.5577     2.1361    -5.9355 C.ar    
  26 C26           -2.6371     1.5148    -2.8361 C.ar    
  27 C27           -1.6302     1.1540    -1.9946 C.ar    
  28 C28           -1.8684     0.2071    -0.9892 C.ar    
  29 H29            1.4266     2.1292     0.2420 H       
  30 H30           -0.3453     2.2682     0.1473 H       
  31 H31            0.4127     1.4992     1.5623 H       
  32 H32            1.4346    -0.5134     1.4382 H       
  33 H33            1.1767    -1.6038     0.0552 H       
  34 H34           -2.4792    -2.3847     1.7480 H       
  35 H35           -4.3291    -1.7929     0.2824 H       
  36 H36           -5.1624    -0.4239    -1.6545 H       
  37 H37           -5.8486     1.3313    -3.3019 H       
  38 H38           -7.2003     3.2944    -9.1137 H       
  39 H39           -8.5423     2.7456    -7.1249 H       
  40 H40           -2.4498     2.2482    -3.6064 H       
  41 H41           -0.6517     1.5992    -2.0984 H       
@<TRIPOS>BOND
   1    1    2 1
   2    1   29 1
   3    1   30 1
   4    1   31 1
   5    2    3 1
   6    2    8 1
   7    3    4 1
   8    3   32 1
   9    3   33 1
  10    4    5 1
  11    4    6 1
  12    4    7 1
  13    8   28 ar
  14    8    9 ar
  15    9   10 ar
  16   10   11 ar
  17   10   34 1
  18   11   12 ar
  19   11   35 1
  20   12   28 ar
  21   12   13 ar
  22   13   14 ar
  23   13   36 1
  24   14   15 1
  25   14   26 ar
  26   15   16 1
  27   15   37 1
  28   16   25 1
  29   16   17 2
  30   17   18 1
  31   18   19 1
  32   18   20 1
  33   20   25 ar
  34   20   21 ar
  35   21   22 ar
  36   22   23 ar
  37   22   38 1
  38   23   24 ar
  39   23   39 1
  40   24   25 ar
  41   26   27 ar
  42   26   40 1
  43   27   28 ar
  44   27   41 1

#	End of record

