#	Name: ASD01148401
#	Creating user name:	WinNT
#	Creation time:	15. 06. 2019 19:02

#	Modifying user name:	WinNT
#	Modification time:	15. 06. 2019 19:02

#	Program:	/corina/corina34_cracker 3.40 0067  02.08.2006

@<TRIPOS>MOLECULE
ASD01148401
  48   51    0    0    0
SMALL
NO_CHARGES


@<TRIPOS>ATOM
   1 C1             0.3638     1.8417     0.0678 C.ar    
   2 C2             0.4621     0.4639    -0.0075 C.ar    
   3 C3            -0.6832    -0.3070    -0.0946 C.ar    
   4 C4            -1.9263     0.3004    -0.1063 C.ar    
   5 C5            -2.0239     1.6771    -0.0310 C.ar    
   6 C6            -0.8801     2.4476     0.0613 C.ar    
   7 C7            -3.3782     2.3379    -0.0438 C.3     
   8 O8            -4.3703     1.4939     0.5750 O.3     
   9 C9            -3.3982     3.5779     0.8816 C.3     
  10 C10           -3.9243     3.0080     2.1852 C.2     
  11 N11           -4.4447     1.8522     1.9407 N.2     
  12 C12           -3.8526     3.6621     3.5065 C.ar    
  13 C13           -4.3791     3.0228     4.6321 C.ar    
  14 C14           -3.2534     4.9178     3.6327 C.ar    
  15 C15           -3.1866     5.5278     4.8651 C.ar    
  16 C16           -3.7177     4.8911     5.9894 C.ar    
  17 C17           -4.3123     3.6328     5.8640 C.ar    
  18 C18           -3.6456     5.5456     7.3119 C.2     
  19 O19           -4.2038     5.0454     8.2688 O.2     
  20 N20           -2.9608     6.6973     7.4574 N.am    
  21 C21           -4.8852     2.9460     7.0769 C.3     
  22 C22           -3.7889     2.7111    -1.4696 C.3     
  23 F23           -3.8289     1.5577    -2.2603 F       
  24 F24           -5.0546     3.3068    -1.4495 F       
  25 F25           -2.8589     3.6100    -2.0027 F       
  26 Cl26          -0.5607    -2.0360    -0.1898 Cl      
  27 Cl27           1.8005     2.8099     0.1777 Cl      
  28 C28           -2.8930     7.3123     8.7002 C.ar    
  29 N29           -2.2159     8.4435     8.8254 N.ar    
  30 N30           -3.5116     6.7565     9.7308 N.ar    
  31 C31           -3.4671     7.3164    10.9284 C.ar    
  32 C32           -2.7624     8.4982    11.0964 C.ar    
  33 C33           -2.1315     9.0553     9.9950 C.ar    
  34 H34            1.4327    -0.0097     0.0013 H       
  35 H35           -2.8205    -0.3014    -0.1747 H       
  36 H36           -0.9570     3.5232     0.1201 H       
  37 H37           -2.3932     3.9793     1.0125 H       
  38 H38           -4.0729     4.3404     0.4924 H       
  39 H39           -4.8387     2.0503     4.5353 H       
  40 H40           -2.8422     5.4097     2.7637 H       
  41 H41           -2.7233     6.4985     4.9627 H       
  42 H42           -2.5153     7.0965     6.6938 H       
  43 H43           -5.8921     3.3190     7.2640 H       
  44 H44           -4.9227     1.8708     6.9018 H       
  45 H45           -4.2550     3.1513     7.9423 H       
  46 H46           -3.9739     6.8585    11.7650 H       
  47 H47           -2.7100     8.9768    12.0631 H       
  48 H48           -1.5740     9.9752    10.0918 H       
@<TRIPOS>BOND
   1    1    2 ar
   2    1   27 1
   3    1    6 ar
   4    2    3 ar
   5    2   34 1
   6    3    4 ar
   7    3   26 1
   8    4    5 ar
   9    4   35 1
  10    5    6 ar
  11    5    7 1
  12    6   36 1
  13    7    8 1
  14    7    9 1
  15    7   22 1
  16    8   11 1
  17    9   10 1
  18    9   37 1
  19    9   38 1
  20   10   11 2
  21   10   12 1
  22   12   13 ar
  23   12   14 ar
  24   13   17 ar
  25   13   39 1
  26   14   15 ar
  27   14   40 1
  28   15   16 ar
  29   15   41 1
  30   16   17 ar
  31   16   18 1
  32   17   21 1
  33   18   19 2
  34   18   20 am
  35   20   28 1
  36   20   42 1
  37   21   43 1
  38   21   44 1
  39   21   45 1
  40   22   23 1
  41   22   24 1
  42   22   25 1
  43   28   29 ar
  44   28   30 ar
  45   29   33 ar
  46   30   31 ar
  47   31   32 ar
  48   31   46 1
  49   32   33 ar
  50   32   47 1
  51   33   48 1

#	End of record

