#	Name: ASD01811664
#	Creating user name:	WinNT
#	Creation time:	15. 06. 2019 19:27

#	Modifying user name:	WinNT
#	Modification time:	15. 06. 2019 19:27

#	Program:	/corina/corina34_cracker 3.40 0067  02.08.2006

@<TRIPOS>MOLECULE
ASD01811664
  45   48    0    0    0
SMALL
NO_CHARGES


@<TRIPOS>ATOM
   1 N1             0.0196     1.3271    -0.5526 N.2     
   2 C2             0.0436     0.0261    -0.7223 C.2     
   3 C3             1.2625    -0.6375    -0.9304 C.2     
   4 C4             2.4149     0.0769    -0.9545 C.2     
   5 N5             2.3616     1.4299    -0.7752 N.pl3   
   6 C6             1.1517     2.0428    -0.5745 C.2     
   7 C7             1.4072     3.4007    -0.4251 C.2     
   8 C8             2.7744     3.5887    -0.5384 C.2     
   9 C9             3.0750     5.0588    -0.3791 C.3     
  10 N10            1.8025     5.7539    -0.1615 N.am    
  11 C11            0.7482     4.7350    -0.1868 C.3     
  12 N12            3.3482     2.4209    -0.7471 N.2     
  13 C13            1.6338     7.0778     0.0266 C.2     
  14 O14            0.5132     7.5421     0.1095 O.2     
  15 C15            2.8090     7.9635     0.1319 C.ar    
  16 C16            2.8801     8.9221     1.1521 C.ar    
  17 C17            3.9896     9.7490     1.2419 C.ar    
  18 C18            5.0191     9.6275     0.3294 C.ar    
  19 C19            4.9527     8.6816    -0.6801 C.ar    
  20 C20            3.8597     7.8479    -0.7810 C.ar    
  21 C21            3.7365    -0.6126    -1.1758 C.3     
  22 C22           -1.2428    -0.7584    -0.6932 C.3     
  23 O23            1.8679     9.0406     2.0474 O.3     
  24 C24            2.0103    10.0396     3.0592 C.3     
  25 C25            0.7798    10.0237     3.9684 C.3     
  26 F26            0.9193    11.0018     4.9590 F       
  27 F27           -0.3647    10.2892     3.2088 F       
  28 F28            3.1548     9.7742     3.8188 F       
  29 F29            2.1304    11.2975     2.4589 F       
  30 Cl30           1.2948    -2.3587    -1.1544 Cl      
  31 H31            3.7303     5.2110     0.4786 H       
  32 H32            3.5532     5.4380    -1.2822 H       
  33 H33            0.0462     4.9496    -0.9926 H       
  34 H34            0.2233     4.7226     0.7683 H       
  35 H35            4.0486    10.4892     2.0261 H       
  36 H36            5.8810    10.2741     0.4033 H       
  37 H37            5.7628     8.5941    -1.3890 H       
  38 H38            3.8140     7.1090    -1.5673 H       
  39 H39            3.5719    -1.6834    -1.2966 H       
  40 H40            4.2085    -0.2140    -2.0738 H       
  41 H41            4.3850    -0.4393    -0.3170 H       
  42 H42           -2.0784    -0.0799    -0.5215 H       
  43 H43           -1.3789    -1.2685    -1.6468 H       
  44 H44           -1.2014    -1.4944     0.1098 H       
  45 H45            0.6863     9.0436     4.4361 H       
@<TRIPOS>BOND
   1    1    2 2
   2    1    6 1
   3    2    3 1
   4    2   22 1
   5    3    4 2
   6    3   30 1
   7    4    5 1
   8    4   21 1
   9    5    6 1
  10    5   12 1
  11    6    7 2
  12    7    8 1
  13    7   11 1
  14    8    9 1
  15    8   12 2
  16    9   10 1
  17    9   31 1
  18    9   32 1
  19   10   11 1
  20   10   13 am
  21   11   33 1
  22   11   34 1
  23   13   14 2
  24   13   15 1
  25   15   16 ar
  26   15   20 ar
  27   16   17 ar
  28   16   23 1
  29   17   18 ar
  30   17   35 1
  31   18   19 ar
  32   18   36 1
  33   19   20 ar
  34   19   37 1
  35   20   38 1
  36   21   39 1
  37   21   40 1
  38   21   41 1
  39   22   42 1
  40   22   43 1
  41   22   44 1
  42   23   24 1
  43   24   25 1
  44   24   28 1
  45   24   29 1
  46   25   26 1
  47   25   27 1
  48   25   45 1

#	End of record

