#	Name: ASD07300394
#	Creating user name:	WinNT
#	Creation time:	15. 06. 2019 21:09

#	Modifying user name:	WinNT
#	Modification time:	15. 06. 2019 21:09

#	Program:	/corina/corina34_cracker 3.40 0067  02.08.2006

@<TRIPOS>MOLECULE
ASD07300394
  35   37    0    0    0
SMALL
NO_CHARGES


@<TRIPOS>ATOM
   1 C1            -0.0169     1.3941     0.0097 C.ar    
   2 C2             0.0021    -0.0041     0.0020 C.ar    
   3 C3             1.2199    -0.6674    -0.0136 C.ar    
   4 C4             2.3808     0.0923    -0.0210 C.ar    
   5 C5             2.2878     1.4713    -0.0127 C.ar    
   6 N6             1.1161     2.0768     0.0026 N.ar    
   7 C7            -2.1139     0.6622     0.0347 C.2     
   8 N8            -1.3542     1.7734     0.0301 N.am    
   9 N9            -1.3234    -0.4279     0.0129 N.am    
  10 O10           -3.3304     0.6453     0.0517 O.2     
  11 C11           -1.7801    -1.8199     0.0099 C.3     
  12 C12           -1.9248    -2.3122     1.4513 C.3     
  13 C13           -2.4017    -3.7660     1.4483 C.3     
  14 C14           -1.8317     3.0925     0.0437 C.ar    
  15 C15           -3.1983     3.3361     0.0638 C.ar    
  16 C16           -3.6677     4.6347     0.0777 C.ar    
  17 C17           -2.7741     5.6957     0.0715 C.ar    
  18 C18           -1.4084     5.4528     0.0509 C.ar    
  19 C19           -0.9378     4.1546     0.0429 C.ar    
  20 O20           -3.2368     6.9741     0.0851 O.3     
  21 H21            1.2635    -1.7465    -0.0195 H       
  22 H22            3.3475    -0.3890    -0.0328 H       
  23 H23            3.1908     2.0638    -0.0181 H       
  24 H24           -2.7440    -1.8851    -0.4947 H       
  25 H25           -1.0528    -2.4398    -0.5144 H       
  26 H26           -0.9608    -2.2471     1.9560 H       
  27 H27           -2.6520    -1.6924     1.9757 H       
  28 H28           -3.3656    -3.8311     0.9436 H       
  29 H29           -1.6744    -4.3859     0.9239 H       
  30 H30           -2.5048    -4.1167     2.4751 H       
  31 H31           -3.8941     2.5102     0.0683 H       
  32 H32           -4.7308     4.8243     0.0929 H       
  33 H33           -0.7131     6.2792     0.0454 H       
  34 H34            0.1255     3.9656     0.0317 H       
  35 H35           -3.3586     7.3389     0.9724 H       
@<TRIPOS>BOND
   1    1    2 ar
   2    1    6 ar
   3    1    8 1
   4    2    3 ar
   5    2    9 1
   6    3    4 ar
   7    3   21 1
   8    4    5 ar
   9    4   22 1
  10    5    6 ar
  11    5   23 1
  12    7    8 am
  13    7    9 am
  14    7   10 2
  15    8   14 1
  16    9   11 1
  17   11   12 1
  18   11   24 1
  19   11   25 1
  20   12   13 1
  21   12   26 1
  22   12   27 1
  23   13   28 1
  24   13   29 1
  25   13   30 1
  26   14   15 ar
  27   14   19 ar
  28   15   16 ar
  29   15   31 1
  30   16   17 ar
  31   16   32 1
  32   17   18 ar
  33   17   20 1
  34   18   19 ar
  35   18   33 1
  36   19   34 1
  37   20   35 1

#	End of record

