#	Name: ASD09116066
#	Creating user name:	WinNT
#	Creation time:	15. 06. 2019 21:20

#	Modifying user name:	WinNT
#	Modification time:	15. 06. 2019 21:20

#	Program:	/corina/corina34_cracker 3.40 0067  02.08.2006

@<TRIPOS>MOLECULE
ASD09116066
  70   75    0    0    0
SMALL
NO_CHARGES


@<TRIPOS>ATOM
   1 C1            -0.2996     1.2617     1.3665 C.ar    
   2 N2            -0.2279    -0.1070     1.1202 N.pl3   
   3 N3            -1.2260    -0.9133     0.5496 N.2     
   4 C4            -0.7498    -2.1338     0.4977 C.2     
   5 N5             0.4897    -2.1433     1.0022 N.2     
   6 C6             0.8249    -0.9281     1.3788 C.2     
   7 N7             2.0286    -0.5543     1.9443 N.pl3   
   8 N8            -1.4273    -3.2452    -0.0027 N.pl3   
   9 N9             0.7394     1.8726     1.9139 N.ar    
  10 N10           -1.4058     1.9192     1.0410 N.ar    
  11 C11           -1.4944     3.2116     1.2669 C.ar    
  12 C12           -0.4216     3.8869     1.8336 C.ar    
  13 C13            0.7150     3.1752     2.1592 C.ar    
  14 C14           -2.7295     4.0125     0.9546 C.3     
  15 C15           -2.6318     4.7162    -0.3612 C.3     
  16 C16           -1.8192     5.9940    -0.4336 C.3     
  17 C17           -0.3132     5.6744    -0.4225 C.3     
  18 C18            0.2503     6.0961     0.9633 C.3     
  19 C19           -0.5330     5.3690     2.0552 C.3     
  20 C20           -0.7695    -4.4769    -0.1090 C.ar    
  21 C21           -1.4886    -5.6599     0.0008 C.ar    
  22 C22           -0.8400    -6.8743    -0.1040 C.ar    
  23 C23            0.5315    -6.9128    -0.3187 C.ar    
  24 C24            1.2506    -5.7298    -0.4281 C.ar    
  25 C25            0.6010    -4.5154    -0.3300 C.ar    
  26 N26            1.1890    -8.1439    -0.4245 N.3     
  27 C27            2.6288    -7.9543    -0.6494 C.3     
  28 C28            3.3217    -9.3186    -0.6797 C.3     
  29 N29            2.7295   -10.1424    -1.7429 N.3     
  30 C30            1.2897   -10.3320    -1.5179 C.3     
  31 C31            0.5968    -8.9676    -1.4877 C.3     
  32 C32            3.3864   -11.3722    -1.8485 C.ar    
  33 C33            2.9774   -12.2998    -2.7977 C.ar    
  34 C34            3.6280   -13.5138    -2.9006 C.ar    
  35 C35            4.6873   -13.8063    -2.0583 C.ar    
  36 C36            5.0968   -12.8830    -1.1111 C.ar    
  37 C37            4.4524   -11.6656    -1.0082 C.ar    
  38 F38            5.3220   -14.9945    -2.1603 F       
  39 H39            2.7198    -1.2177     2.0961 H       
  40 H40            2.1826     0.3714     2.1894 H       
  41 H41           -2.3542    -3.1651    -0.2772 H       
  42 H42            1.5647     3.6681     2.6080 H       
  43 H43           -3.5892     3.3428     0.9342 H       
  44 H44           -2.8789     4.7526     1.7408 H       
  45 H45           -2.2104     4.0147    -1.0812 H       
  46 H46           -3.6452     4.9494    -0.6879 H       
  47 H47           -2.0676     6.5277    -1.3510 H       
  48 H48           -2.0604     6.6236     0.4228 H       
  49 H49           -0.1614     4.6056    -0.5732 H       
  50 H50            0.1890     6.2344    -1.2113 H       
  51 H51            1.3040     5.8246     1.0272 H       
  52 H52            0.1400     7.1731     1.0902 H       
  53 H53           -1.5808     5.6665     2.0120 H       
  54 H54           -0.1202     5.6238     3.0313 H       
  55 H55           -2.5551    -5.6300     0.1685 H       
  56 H56           -1.3992    -7.7943    -0.0186 H       
  57 H57            2.3173    -5.7598    -0.5944 H       
  58 H58            1.1602    -3.5954    -0.4154 H       
  59 H59            2.7844    -7.4462    -1.6011 H       
  60 H60            3.0467    -7.3520     0.1573 H       
  61 H61            4.3853    -9.1821    -0.8753 H       
  62 H62            3.1892    -9.8152     0.2815 H       
  63 H63            0.8718   -10.9342    -2.3247 H       
  64 H64            1.1341   -10.8401    -0.5662 H       
  65 H65           -0.4668    -9.1042    -1.2921 H       
  66 H66            0.7293    -8.4711    -2.4489 H       
  67 H67            2.1510   -12.0721    -3.4547 H       
  68 H68            3.3101   -14.2355    -3.6384 H       
  69 H69            5.9230   -13.1134    -0.4549 H       
  70 H70            4.7722   -10.9457    -0.2693 H       
@<TRIPOS>BOND
   1    1    2 1
   2    1    9 ar
   3    1   10 ar
   4    2    3 1
   5    2    6 1
   6    3    4 2
   7    4    5 1
   8    4    8 1
   9    5    6 2
  10    6    7 1
  11    7   39 1
  12    7   40 1
  13    8   20 1
  14    8   41 1
  15    9   13 ar
  16   10   11 ar
  17   11   12 ar
  18   11   14 1
  19   12   13 ar
  20   12   19 1
  21   13   42 1
  22   14   15 1
  23   14   43 1
  24   14   44 1
  25   15   16 1
  26   15   45 1
  27   15   46 1
  28   16   17 1
  29   16   47 1
  30   16   48 1
  31   17   18 1
  32   17   49 1
  33   17   50 1
  34   18   19 1
  35   18   51 1
  36   18   52 1
  37   19   53 1
  38   19   54 1
  39   20   21 ar
  40   20   25 ar
  41   21   22 ar
  42   21   55 1
  43   22   23 ar
  44   22   56 1
  45   23   24 ar
  46   23   26 1
  47   24   25 ar
  48   24   57 1
  49   25   58 1
  50   26   27 1
  51   26   31 1
  52   27   28 1
  53   27   59 1
  54   27   60 1
  55   28   29 1
  56   28   61 1
  57   28   62 1
  58   29   30 1
  59   29   32 1
  60   30   31 1
  61   30   63 1
  62   30   64 1
  63   31   65 1
  64   31   66 1
  65   32   33 ar
  66   32   37 ar
  67   33   34 ar
  68   33   67 1
  69   34   35 ar
  70   34   68 1
  71   35   36 ar
  72   35   38 1
  73   36   37 ar
  74   36   69 1
  75   37   70 1

#	End of record

