#	Name: ASD01512001
#	Creating user name:	WinNT
#	Creation time:	15. 06. 2019 19:21

#	Modifying user name:	WinNT
#	Modification time:	15. 06. 2019 19:21

#	Program:	/corina/corina34_cracker 3.40 0067  02.08.2006

@<TRIPOS>MOLECULE
ASD01512001
  33   35    0    0    0
SMALL
NO_CHARGES


@<TRIPOS>ATOM
   1 C1            -0.0191     1.3850    -0.1009 C.ar    
   2 C2             0.0008    -0.0049    -0.0585 C.ar    
   3 C3            -1.1839    -0.7151     0.0019 C.ar    
   4 C4            -2.4023    -0.0241     0.0206 C.ar    
   5 C5            -2.4195     1.3813    -0.0218 C.ar    
   6 C6            -1.2208     2.0756    -0.0770 C.ar    
   7 C7            -3.6858    -0.7413     0.0840 C.2     
   8 C8            -4.8703     0.0399     0.0983 C.2     
   9 C9            -4.7777     1.3986     0.0538 C.2     
  10 O10           -3.5976     2.0393    -0.0035 O.3     
  11 O11           -1.1665    -2.0715     0.0425 O.3     
  12 O12            1.1501     2.0723    -0.1606 O.3     
  13 O13           -3.7297    -1.9606     0.1223 O.2     
  14 O14           -6.0890    -0.5631     0.1556 O.3     
  15 C15           -6.0182     2.1955     0.0694 C.ar    
  16 C16           -6.1374     3.2886     0.9321 C.ar    
  17 C17           -7.3017     4.0344     0.9442 C.ar    
  18 C18           -8.3547     3.6971     0.0986 C.ar    
  19 C19           -8.2392     2.6086    -0.7614 C.ar    
  20 C20           -7.0750     1.8629    -0.7825 C.ar    
  21 O21           -7.4183     5.0982     1.7834 O.3     
  22 O22           -9.4986     4.4320     0.1130 O.3     
  23 O23           -9.2703     2.2819    -1.5858 O.3     
  24 H24            0.9440    -0.5308    -0.0732 H       
  25 H25           -1.2235     3.1551    -0.1099 H       
  26 H26           -1.1324    -2.4379     0.9367 H       
  27 H27            1.4598     2.2442    -1.0604 H       
  28 H28           -6.0490    -1.5289     0.1835 H       
  29 H29           -5.3210     3.5504     1.5889 H       
  30 H30           -6.9860     1.0185    -1.4499 H       
  31 H31           -7.1197     5.9349     1.4016 H       
  32 H32           -9.4974     5.1737    -0.5074 H       
  33 H33           -9.2365     2.7163    -2.4491 H       
@<TRIPOS>BOND
   1    1    2 ar
   2    1   12 1
   3    1    6 ar
   4    2    3 ar
   5    2   24 1
   6    3    4 ar
   7    3   11 1
   8    4    5 ar
   9    4    7 1
  10    5    6 ar
  11    5   10 1
  12    6   25 1
  13    7    8 1
  14    7   13 2
  15    8    9 2
  16    8   14 1
  17    9   10 1
  18    9   15 1
  19   11   26 1
  20   12   27 1
  21   14   28 1
  22   15   16 ar
  23   15   20 ar
  24   16   17 ar
  25   16   29 1
  26   17   18 ar
  27   17   21 1
  28   18   19 ar
  29   18   22 1
  30   19   20 ar
  31   19   23 1
  32   20   30 1
  33   21   31 1
  34   22   32 1
  35   23   33 1

#	End of record

