#	Name: ASD01910106
#	Creating user name:	WinNT
#	Creation time:	15. 06. 2019 19:55

#	Modifying user name:	WinNT
#	Modification time:	15. 06. 2019 19:55

#	Program:	/corina/corina34_cracker 3.40 0067  02.08.2006

@<TRIPOS>MOLECULE
ASD01910106
  47   50    0    0    0
SMALL
NO_CHARGES


@<TRIPOS>ATOM
   1 C1             0.1115     0.4853     0.4011 C.ar    
   2 C2             0.3456    -0.8757     0.4500 C.ar    
   3 C3             1.6400    -1.3688     0.3880 C.ar    
   4 C4             2.7051    -0.4901     0.2759 C.ar    
   5 C5             2.4661     0.8984     0.2257 C.ar    
   6 C6             1.1676     1.3767     0.2890 C.ar    
   7 C7             4.1716    -0.6515     0.1868 C.2     
   8 N8             4.7321     0.5677     0.0919 N.am    
   9 C9             3.7957     1.5334     0.1077 C.2     
  10 C10            6.1727     0.8118    -0.0140 C.3     
  11 C11            6.5997     0.6821    -1.4535 C.ar    
  12 C12            6.4506     1.7553    -2.3219 C.ar    
  13 C13            6.8452     1.6324    -3.6481 C.ar    
  14 C14            7.3844     0.4440    -4.0993 C.ar    
  15 C15            7.5319    -0.6242    -3.2316 C.ar    
  16 C16            7.1449    -0.5025    -1.9087 C.ar    
  17 N17            5.9036     2.9580    -1.8622 N.am    
  18 C18            5.3572     3.8271    -2.7355 C.2     
  19 C19            4.8853     5.1474    -2.2669 C.ar    
  20 C20            4.3194     6.0489    -3.1686 C.ar    
  21 C21            3.8795     7.2839    -2.7224 C.ar    
  22 C22            4.0022     7.6222    -1.3817 C.ar    
  23 C23            4.5634     6.7298    -0.4867 C.ar    
  24 C24            4.9992     5.4943    -0.9194 C.ar    
  25 O25            5.2525     3.5254    -3.9084 O.2     
  26 O26            4.0073     2.7272     0.0374 O.2     
  27 O27            4.7705    -1.7080     0.1982 O.2     
  28 Cl28           8.2101    -2.1168    -3.8022 Cl      
  29 O29            3.3280     8.1654    -3.5976 O.3     
  30 C30            2.8960     9.4206    -3.0686 C.3     
  31 H31           -0.9015     0.8570     0.4461 H       
  32 H32           -0.4853    -1.5600     0.5373 H       
  33 H33            1.8172    -2.4335     0.4273 H       
  34 H34            0.9786     2.4393     0.2506 H       
  35 H35            6.3982     1.8168     0.3427 H       
  36 H36            6.7103     0.0822     0.5916 H       
  37 H37            6.7300     2.4654    -4.3257 H       
  38 H38            7.6910     0.3478    -5.1304 H       
  39 H39            7.2614    -1.3374    -1.2336 H       
  40 H40            5.9176     3.1664    -0.9150 H       
  41 H41            4.2248     5.7847    -4.2115 H       
  42 H42            3.6584     8.5860    -1.0363 H       
  43 H43            4.6564     6.9989     0.5551 H       
  44 H44            5.4370     4.7997    -0.2178 H       
  45 H45            2.1362     9.2512    -2.3056 H       
  46 H46            3.7458     9.9402    -2.6260 H       
  47 H47            2.4764    10.0279    -3.8706 H       
@<TRIPOS>BOND
   1    1    2 ar
   2    1    6 ar
   3    1   31 1
   4    2    3 ar
   5    2   32 1
   6    3    4 ar
   7    3   33 1
   8    4    5 ar
   9    4    7 1
  10    5    6 ar
  11    5    9 1
  12    6   34 1
  13    7    8 am
  14    7   27 2
  15    8    9 am
  16    8   10 1
  17    9   26 2
  18   10   11 1
  19   10   35 1
  20   10   36 1
  21   11   12 ar
  22   11   16 ar
  23   12   13 ar
  24   12   17 1
  25   13   14 ar
  26   13   37 1
  27   14   15 ar
  28   14   38 1
  29   15   16 ar
  30   15   28 1
  31   16   39 1
  32   17   18 am
  33   17   40 1
  34   18   19 1
  35   18   25 2
  36   19   20 ar
  37   19   24 ar
  38   20   21 ar
  39   20   41 1
  40   21   22 ar
  41   21   29 1
  42   22   23 ar
  43   22   42 1
  44   23   24 ar
  45   23   43 1
  46   24   44 1
  47   29   30 1
  48   30   45 1
  49   30   46 1
  50   30   47 1

#	End of record

