#	Name: ASD01040011
#	Creating user name:	WinNT
#	Creation time:	15. 06. 2019 18:58

#	Modifying user name:	WinNT
#	Modification time:	15. 06. 2019 18:58

#	Program:	/corina/corina34_cracker 3.40 0067  02.08.2006

@<TRIPOS>MOLECULE
ASD01040011
  56   59    0    0    0
SMALL
NO_CHARGES


@<TRIPOS>ATOM
   1 C1             0.7496    -1.3867     0.2840 C.3     
   2 C2            -0.2343    -0.2974    -0.1476 C.3     
   3 C3            -1.5649    -0.9238    -0.4762 C.2     
   4 C4            -2.5516    -1.1556     0.5894 C.ar    
   5 C5            -3.7739    -0.4740     0.5757 C.ar    
   6 C6            -4.6966    -0.6940     1.5767 C.ar    
   7 C7            -4.4196    -1.5867     2.5959 C.ar    
   8 C8            -3.2084    -2.2694     2.6202 C.ar    
   9 N9            -2.9347    -3.1697     3.6533 N.pl3   
  10 C10           -3.9781    -3.8686     4.2656 C.ar    
  11 C11           -5.1161    -4.1974     3.5397 C.ar    
  12 C12           -6.1453    -4.8887     4.1479 C.ar    
  13 C13           -6.0442    -5.2536     5.4779 C.ar    
  14 C14           -4.9128    -4.9280     6.2034 C.ar    
  15 C15           -3.8775    -4.2414     5.6001 C.ar    
  16 C16           -2.2751    -2.0619     1.6167 C.ar    
  17 C17           -1.8525    -1.2736    -1.7543 C.2     
  18 C18           -0.9189    -0.9196    -2.8460 C.ar    
  19 C19           -0.7212     0.4184    -3.1914 C.ar    
  20 C20            0.1499     0.7442    -4.2088 C.ar    
  21 C21            0.8304    -0.2566    -4.8899 C.ar    
  22 O22            1.6881     0.0684    -5.8921 O.3     
  23 C23            0.6367    -1.5889    -4.5489 C.ar    
  24 C24           -0.2290    -1.9224    -3.5295 C.ar    
  25 C25           -3.0998    -2.0093    -2.0571 C.ar    
  26 C26           -4.0920    -1.4131    -2.8373 C.ar    
  27 C27           -5.2526    -2.1019    -3.1176 C.ar    
  28 C28           -5.4354    -3.3874    -2.6250 C.ar    
  29 O29           -6.5807    -4.0632    -2.9035 O.3     
  30 C30           -4.4504    -3.9841    -1.8488 C.ar    
  31 C31           -3.2851    -3.3036    -1.5682 C.ar    
  32 H32            1.7373    -0.9484     0.4269 H       
  33 H33            0.4110    -1.8323     1.2193 H       
  34 H34            0.8014    -2.1556    -0.4869 H       
  35 H35           -0.3607     0.4200     0.6633 H       
  36 H36            0.1537     0.2145    -1.0283 H       
  37 H37           -3.9942     0.2243    -0.2182 H       
  38 H38           -5.6392    -0.1668     1.5647 H       
  39 H39           -5.1470    -1.7541     3.3765 H       
  40 H40           -2.0203    -3.3094     3.9453 H       
  41 H41           -5.1959    -3.9124     2.5010 H       
  42 H42           -7.0304    -5.1443     3.5842 H       
  43 H43           -6.8507    -5.7939     5.9512 H       
  44 H44           -4.8370    -5.2145     7.2420 H       
  45 H45           -2.9925    -3.9910     6.1662 H       
  46 H46           -1.3360    -2.5950     1.6311 H       
  47 H47           -1.2503     1.1972    -2.6623 H       
  48 H48            0.3031     1.7791    -4.4768 H       
  49 H49            2.5978     0.2154    -5.5991 H       
  50 H50            1.1679    -2.3644    -5.0807 H       
  51 H51           -0.3763    -2.9585    -3.2624 H       
  52 H52           -3.9507    -0.4133    -3.2204 H       
  53 H53           -6.0208    -1.6411    -3.7209 H       
  54 H54           -6.5390    -4.5911    -3.7126 H       
  55 H55           -4.5962    -4.9840    -1.4675 H       
  56 H56           -2.5194    -3.7684    -0.9648 H       
@<TRIPOS>BOND
   1    1    2 1
   2    1   32 1
   3    1   33 1
   4    1   34 1
   5    2   35 1
   6    2   36 1
   7    2    3 1
   8    3    4 1
   9    3   17 2
  10    4   16 ar
  11    4    5 ar
  12    5    6 ar
  13    5   37 1
  14    6    7 ar
  15    6   38 1
  16    7   39 1
  17    7    8 ar
  18    8    9 1
  19    8   16 ar
  20    9   10 1
  21    9   40 1
  22   10   15 ar
  23   10   11 ar
  24   11   12 ar
  25   11   41 1
  26   12   13 ar
  27   12   42 1
  28   13   43 1
  29   13   14 ar
  30   14   44 1
  31   14   15 ar
  32   15   45 1
  33   16   46 1
  34   17   18 1
  35   17   25 1
  36   18   24 ar
  37   18   19 ar
  38   19   20 ar
  39   19   47 1
  40   20   21 ar
  41   20   48 1
  42   21   22 1
  43   21   23 ar
  44   22   49 1
  45   23   50 1
  46   23   24 ar
  47   24   51 1
  48   25   26 ar
  49   25   31 ar
  50   26   52 1
  51   26   27 ar
  52   27   53 1
  53   27   28 ar
  54   28   30 ar
  55   28   29 1
  56   29   54 1
  57   30   31 ar
  58   30   55 1
  59   31   56 1

#	End of record

