#	Name: ASD07930935
#	Creating user name:	WinNT
#	Creation time:	15. 06. 2019 21:13

#	Modifying user name:	WinNT
#	Modification time:	15. 06. 2019 21:13

#	Program:	/corina/corina34_cracker 3.40 0067  02.08.2006

@<TRIPOS>MOLECULE
ASD07930935
  48   53    0    0    0
SMALL
NO_CHARGES


@<TRIPOS>ATOM
   1 N1            -0.0161     1.3386     0.0094 N.pl3   
   2 C2             0.0021    -0.0041     0.0020 C.2     
   3 C3             1.1793    -0.7101    -0.0125 C.2     
   4 C4             2.4649     0.0245    -0.0208 C.2     
   5 C5             2.3994     1.4984    -0.0142 C.ar    
   6 C6             3.5528     2.2766    -0.0218 C.ar    
   7 C7             3.4490     3.6522    -0.0158 C.ar    
   8 C8             2.2021     4.2571    -0.0020 C.ar    
   9 C9             1.0517     3.4965     0.0061 C.ar    
  10 C10            1.1343     2.1082     0.0025 C.ar    
  11 N11            2.8980    -2.1587    -0.0347 N.am    
  12 N12            3.4184    -0.8621    -0.0335 N.2     
  13 C13            1.5480    -2.1223    -0.0223 C.2     
  14 O14            0.7891    -3.0779    -0.0198 O.2     
  15 C15           -1.3130     2.0200     0.0191 C.3     
  16 N16           -2.8234     3.1066     5.3356 N.pl3   
  17 C17           -2.2406     4.3338     5.4986 C.2     
  18 C18           -1.6083     4.6935     4.3704 C.2     
  19 C19           -1.8021     3.6079     3.4061 C.ar    
  20 C20           -1.3961     3.3977     2.0868 C.ar    
  21 C21           -1.7510     2.2460     1.4432 C.ar    
  22 C22           -2.5124     1.2823     2.0906 C.ar    
  23 C23           -2.9239     1.4694     3.3918 C.ar    
  24 C24           -2.5740     2.6348     4.0664 C.ar    
  25 C25            3.6668    -3.3295    -0.0475 C.ar    
  26 C26            4.6177    -3.5284    -1.0432 C.ar    
  27 C27            5.3744    -4.6857    -1.0519 C.ar    
  28 C28            5.1859    -5.6437    -0.0723 C.ar    
  29 C29            4.2411    -5.4482     0.9179 C.ar    
  30 C30            3.4857    -4.2915     0.9366 C.ar    
  31 F31            4.8013    -2.5927    -2.0003 F       
  32 H32           -0.9340    -0.5427     0.0080 H       
  33 H33            4.5248     1.8059    -0.0319 H       
  34 H34            4.3420     4.2595    -0.0217 H       
  35 H35            2.1307     5.3347     0.0030 H       
  36 H36            0.0858     3.9794     0.0176 H       
  37 H37           -1.2230     2.9797    -0.4899 H       
  38 H38           -2.0510     1.4040    -0.4946 H       
  39 H39           -3.3329     2.6370     6.0145 H       
  40 H40           -2.2833     4.9255     6.4010 H       
  41 H41           -1.0607     5.6096     4.2050 H       
  42 H42           -0.8045     4.1434     1.5765 H       
  43 H43           -2.7850     0.3770     1.5687 H       
  44 H44           -3.5162     0.7140     3.8867 H       
  45 H45            6.1127    -4.8418    -1.8245 H       
  46 H46            5.7781    -6.5468    -0.0811 H       
  47 H47            4.0965    -6.1989     1.6807 H       
  48 H48            2.7516    -4.1379     1.7138 H       
@<TRIPOS>BOND
   1    1    2 1
   2    1   10 1
   3    1   15 1
   4    2    3 2
   5    2   32 1
   6    3    4 1
   7    3   13 1
   8    4    5 1
   9    4   12 2
  10    5    6 ar
  11    5   10 ar
  12    6    7 ar
  13    6   33 1
  14    7    8 ar
  15    7   34 1
  16    8    9 ar
  17    8   35 1
  18    9   10 ar
  19    9   36 1
  20   11   12 1
  21   11   13 am
  22   11   25 1
  23   13   14 2
  24   15   21 1
  25   15   37 1
  26   15   38 1
  27   16   17 1
  28   16   24 1
  29   16   39 1
  30   17   18 2
  31   17   40 1
  32   18   19 1
  33   18   41 1
  34   19   20 ar
  35   19   24 ar
  36   20   21 ar
  37   20   42 1
  38   21   22 ar
  39   22   23 ar
  40   22   43 1
  41   23   24 ar
  42   23   44 1
  43   25   26 ar
  44   25   30 ar
  45   26   27 ar
  46   26   31 1
  47   27   28 ar
  48   27   45 1
  49   28   29 ar
  50   28   46 1
  51   29   30 ar
  52   29   47 1
  53   30   48 1

#	End of record

