#	Name: ASD03331307
#	Creating user name:	WinNT
#	Creation time:	15. 06. 2019 20:38

#	Modifying user name:	WinNT
#	Modification time:	15. 06. 2019 20:38

#	Program:	/corina/corina34_cracker 3.40 0067  02.08.2006

@<TRIPOS>MOLECULE
ASD03331307
  57   59    0    0    0
SMALL
NO_CHARGES


@<TRIPOS>ATOM
   1 C1            -0.2031     1.7285    -0.4538 C.3     
   2 C2            -0.0491     0.2569    -0.1624 C.2     
   3 C3             1.0775    -0.4443    -0.4351 C.2     
   4 C4             2.3023     0.1710    -1.0658 C.3     
   5 C5             1.8918     1.5209    -1.6708 C.3     
   6 N6             1.1367     2.2976    -0.6783 N.3     
   7 N7            -0.3462    -1.8627     0.4636 N.2     
   8 N8            -0.9452    -0.5954     0.3914 N.am    
   9 C9             0.8712    -1.7728    -0.0332 C.2     
  10 C10           -2.1904    -0.2818     0.8009 C.2     
  11 O11           -2.5988     0.8568     0.6864 O.2     
  12 N12           -2.9824    -1.2311     1.3375 N.am    
  13 C13            1.8507    -2.8811    -0.1478 C.ar    
  14 C14            1.4568    -4.1116    -0.6757 C.ar    
  15 C15            2.3729    -5.1410    -0.7809 C.ar    
  16 C16            3.6798    -4.9529    -0.3635 C.ar    
  17 C17            4.0757    -3.7314     0.1619 C.ar    
  18 C18            3.1680    -2.6949     0.2660 C.ar    
  19 F19            5.3519    -3.5536     0.5680 F       
  20 F20            4.5719    -5.9621    -0.4678 F       
  21 F21            0.1819    -4.2962    -1.0828 F       
  22 C22            1.0494     3.7105    -1.0710 C.3     
  23 C23           -4.7743    -1.8623     2.8474 C.2     
  24 C24           -4.3359    -0.8901     1.7827 C.3     
  25 C25           -5.2976    -0.9664     0.5952 C.3     
  26 C26           -5.3474    -2.4027     0.0706 C.3     
  27 O27           -4.3084    -2.9818     2.8754 O.2     
  28 N28           -5.6841    -1.4878     3.7685 N.am    
  29 C29           -6.1913    -2.4639     4.7362 C.3     
  30 C30           -6.6965    -0.5384     1.0436 C.3     
  31 C31           -4.8108    -0.0341    -0.5160 C.3     
  32 H32           -0.8143     1.8644    -1.3460 H       
  33 H33           -0.6752     2.2237     0.3947 H       
  34 H34            3.0701     0.3246    -0.3075 H       
  35 H35            2.6825    -0.4843    -1.8494 H       
  36 H36            2.7845     2.0745    -1.9621 H       
  37 H37            1.2685     1.3507    -2.5486 H       
  38 H38           -2.6563    -2.1400     1.4290 H       
  39 H39            2.0690    -6.0936    -1.1890 H       
  40 H40            3.4782    -1.7430     0.6710 H       
  41 H41            0.5568     4.2774    -0.2811 H       
  42 H42            2.0526     4.1059    -1.2305 H       
  43 H43            0.4742     3.7965    -1.9929 H       
  44 H44           -4.3406     0.1210     2.1897 H       
  45 H45           -5.6942    -3.0669     0.8623 H       
  46 H46           -6.0326    -2.4570    -0.7754 H       
  47 H47           -4.3509    -2.7076    -0.2488 H       
  48 H48           -6.0031    -0.5721     3.7907 H       
  49 H49           -6.6758    -3.2835     4.2056 H       
  50 H50           -5.3627    -2.8534     5.3277 H       
  51 H51           -6.9127    -1.9809     5.3953 H       
  52 H52           -6.6750     0.5065     1.3533 H       
  53 H53           -7.3957    -0.6578     0.2160 H       
  54 H54           -7.0153    -1.1590     1.8810 H       
  55 H55           -3.8143    -0.3390    -0.8355 H       
  56 H56           -5.4960    -0.0884    -1.3620 H       
  57 H57           -4.7754     0.9892    -0.1423 H       
@<TRIPOS>BOND
   1    1    2 1
   2    1    6 1
   3    1   32 1
   4    1   33 1
   5    2    3 2
   6    2    8 1
   7    3    4 1
   8    3    9 1
   9    4    5 1
  10    4   34 1
  11    4   35 1
  12    5    6 1
  13    5   36 1
  14    5   37 1
  15    6   22 1
  16    7    8 1
  17    7    9 2
  18    8   10 am
  19    9   13 1
  20   10   11 2
  21   10   12 am
  22   12   24 1
  23   12   38 1
  24   13   14 ar
  25   13   18 ar
  26   14   15 ar
  27   14   21 1
  28   15   16 ar
  29   15   39 1
  30   16   17 ar
  31   16   20 1
  32   17   18 ar
  33   17   19 1
  34   18   40 1
  35   22   41 1
  36   22   42 1
  37   22   43 1
  38   23   27 2
  39   23   28 am
  40   23   24 1
  41   24   25 1
  42   24   44 1
  43   25   26 1
  44   25   30 1
  45   25   31 1
  46   26   45 1
  47   26   46 1
  48   26   47 1
  49   28   29 1
  50   28   48 1
  51   29   49 1
  52   29   50 1
  53   29   51 1
  54   30   52 1
  55   30   53 1
  56   30   54 1
  57   31   55 1
  58   31   56 1
  59   31   57 1

#	End of record

