#	Name: ASD01911777
#	Creating user name:	WinNT
#	Creation time:	15. 06. 2019 19:58

#	Modifying user name:	WinNT
#	Modification time:	15. 06. 2019 19:58

#	Program:	/corina/corina34_cracker 3.40 0067  02.08.2006

@<TRIPOS>MOLECULE
ASD01911777
  32   34    0    0    0
SMALL
NO_CHARGES


@<TRIPOS>ATOM
   1 C1            -0.0212     1.4744    -0.0261 C.ar    
   2 C2             0.0021    -0.0041     0.0020 C.2     
   3 C3            -1.2486    -0.7531     0.1203 C.2     
   4 C4            -1.3847    -2.1156     0.0307 C.2     
   5 S5            -2.8451    -0.0650     0.4108 S.3     
   6 C6            -3.5460    -1.6803     0.3764 C.2     
   7 N7            -2.5992    -2.5628     0.1684 N.2     
   8 C8            -4.9344    -1.9833     0.5529 C.1     
   9 C9            -6.0727    -2.2316     0.6977 C.1     
  10 C10           -7.4611    -2.5345     0.8742 C.ar    
  11 C11           -7.9027    -3.8605     0.8265 C.ar    
  12 C12           -9.2413    -4.1441     0.9973 C.ar    
  13 C13          -10.1469    -3.1204     1.2151 C.ar    
  14 C14           -9.7177    -1.8056     1.2632 C.ar    
  15 C15           -8.3814    -1.5064     1.1009 C.ar    
  16 C16            1.1016     2.2010     0.3744 C.ar    
  17 C17           -1.1641     2.1495    -0.4587 C.ar    
  18 C18           -1.1792     3.5286    -0.4824 C.ar    
  19 C19           -0.0649     4.2429    -0.0786 C.ar    
  20 C20            1.0731     3.5799     0.3458 C.ar    
  21 O21            1.0625    -0.5978    -0.0733 O.2     
  22 H22           -0.5435    -2.7705    -0.1424 H       
  23 H23           -7.1973    -4.6603     0.6559 H       
  24 H24           -9.5839    -5.1677     0.9608 H       
  25 H25          -11.1941    -3.3489     1.3479 H       
  26 H26          -10.4305    -1.0122     1.4332 H       
  27 H27           -8.0479    -0.4799     1.1390 H       
  28 H28            1.9903     1.6848     0.7061 H       
  29 H29           -2.0344     1.5932    -0.7743 H       
  30 H30           -2.0626     4.0521    -0.8171 H       
  31 H31           -0.0818     5.3225    -0.0995 H       
  32 H32            1.9393     4.1433     0.6599 H       
@<TRIPOS>BOND
   1    1    2 1
   2    1   17 ar
   3    1   16 ar
   4    2    3 1
   5    2   21 2
   6    3    4 2
   7    3    5 1
   8    4    7 1
   9    4   22 1
  10    5    6 1
  11    6    7 2
  12    6    8 1
  13    8    9 3
  14    9   10 1
  15   10   11 ar
  16   10   15 ar
  17   11   12 ar
  18   11   23 1
  19   12   13 ar
  20   12   24 1
  21   13   14 ar
  22   13   25 1
  23   14   15 ar
  24   14   26 1
  25   15   27 1
  26   16   20 ar
  27   16   28 1
  28   17   18 ar
  29   17   29 1
  30   18   19 ar
  31   18   30 1
  32   19   20 ar
  33   19   31 1
  34   20   32 1

#	End of record

