#	Name: ASD01913707
#	Creating user name:	WinNT
#	Creation time:	15. 06. 2019 20:02

#	Modifying user name:	WinNT
#	Modification time:	15. 06. 2019 20:02

#	Program:	/corina/corina34_cracker 3.40 0067  02.08.2006

@<TRIPOS>MOLECULE
ASD01913707
  42   44    0    0    0
SMALL
NO_CHARGES


@<TRIPOS>ATOM
   1 O1            -0.0163     1.3508     0.0095 O.3     
   2 C2             0.0021    -0.0041     0.0020 C.ar    
   3 N3             1.1629    -0.6408    -0.0125 N.ar    
   4 C4             1.2330    -1.9556    -0.0202 C.ar    
   5 C5             0.0719    -2.7293    -0.0137 C.ar    
   6 C6            -1.1744    -2.0856     0.0016 C.ar    
   7 C7            -1.1994    -0.7064     0.0154 C.ar    
   8 C8             0.1538    -4.2032    -0.0234 C.2     
   9 N9             1.3565    -4.8112    -0.0386 N.am    
  10 O10           -0.8637    -4.8686    -0.0177 O.2     
  11 C11            1.4378    -6.2739    -0.0482 C.3     
  12 C12            1.2480     2.0168     0.0010 C.3     
  13 C13            1.0303     3.5079     0.0111 C.ar    
  14 C14            0.9420     4.1849     1.2124 C.ar    
  15 C15            0.7419     5.5551     1.2214 C.ar    
  16 C16            0.6307     6.2452     0.0264 C.ar    
  17 C17            0.7194     5.5659    -1.1741 C.ar    
  18 C18            0.9247     4.1990    -1.1819 C.ar    
  19 F19            0.6550     6.2180     2.3954 F       
  20 C20            2.7655    -6.7069    -0.6732 C.3     
  21 C21            3.0420    -8.2082    -0.7752 C.3     
  22 C22            2.7117    -7.4039    -2.0341 C.3     
  23 C23            1.3543    -6.7988     1.3865 C.3     
  24 F24            0.1403    -6.4029     1.9580 F       
  25 F25            1.4319    -8.1956     1.3774 F       
  26 F26            2.4145    -6.2777     2.1361 F       
  27 H27            2.1983    -2.4397    -0.0320 H       
  28 H28           -2.0916    -2.6557     0.0069 H       
  29 H29           -2.1409    -0.1774     0.0278 H       
  30 H30            2.1684    -4.2803    -0.0432 H       
  31 H31            0.6118    -6.6799    -0.6322 H       
  32 H32            1.8174     1.7267     0.8840 H       
  33 H33            1.8004     1.7363    -0.8958 H       
  34 H34            1.0285     3.6455     2.1440 H       
  35 H35            0.4743     7.3138     0.0322 H       
  36 H36            0.6326     6.1040    -2.1065 H       
  37 H37            0.9942     3.6691    -2.1204 H       
  38 H38            3.6137    -6.0511    -0.4765 H       
  39 H39            4.0722    -8.5402    -0.6460 H       
  40 H40            2.2780    -8.8875    -0.3971 H       
  41 H41            1.7303    -7.5541    -2.4842 H       
  42 H42            3.5245    -7.2067    -2.7331 H       
@<TRIPOS>BOND
   1    1    2 1
   2    1   12 1
   3    2    3 ar
   4    2    7 ar
   5    3    4 ar
   6    4    5 ar
   7    4   27 1
   8    5    6 ar
   9    5    8 1
  10    6    7 ar
  11    6   28 1
  12    7   29 1
  13    8    9 am
  14    8   10 2
  15    9   11 1
  16    9   30 1
  17   11   20 1
  18   11   23 1
  19   11   31 1
  20   12   13 1
  21   12   32 1
  22   12   33 1
  23   13   14 ar
  24   13   18 ar
  25   14   15 ar
  26   14   34 1
  27   15   16 ar
  28   15   19 1
  29   16   17 ar
  30   16   35 1
  31   17   18 ar
  32   17   36 1
  33   18   37 1
  34   20   21 1
  35   20   22 1
  36   20   38 1
  37   21   22 1
  38   21   39 1
  39   21   40 1
  40   22   41 1
  41   22   42 1
  42   23   24 1
  43   23   25 1
  44   23   26 1

#	End of record

