#	Name: ASD01884697
#	Creating user name:	WinNT
#	Creation time:	15. 06. 2019 19:48

#	Modifying user name:	WinNT
#	Modification time:	15. 06. 2019 19:48

#	Program:	/corina/corina34_cracker 3.40 0067  02.08.2006

@<TRIPOS>MOLECULE
ASD01884697
  41   43    0    0    0
SMALL
NO_CHARGES


@<TRIPOS>ATOM
   1 C1            -0.0164     1.3598     0.0095 C.2     
   2 C2             0.0021    -0.0041     0.0020 C.2     
   3 C3             1.2342    -0.6727    -0.0133 C.2     
   4 C4             2.3874     0.0358    -0.0205 C.2     
   5 N5             2.3670     1.3933    -0.0126 N.am    
   6 C6             1.1996     2.0643     0.0017 C.2     
   7 O7             1.1975     3.2849     0.0083 O.2     
   8 C8             1.2747    -2.1791    -0.0213 C.3     
   9 C9             3.6294     2.1366    -0.0197 C.3     
  10 C10            4.0495     2.3996    -1.4429 C.ar    
  11 C11            3.6349     3.5518    -2.0843 C.ar    
  12 C12            4.0202     3.7930    -3.3897 C.ar    
  13 C13            4.8206     2.8822    -4.0536 C.ar    
  14 C14            5.2360     1.7304    -3.4120 C.ar    
  15 C15            4.8542     1.4913    -2.1051 C.ar    
  16 C16            1.1767    -2.6995     1.4141 C.3     
  17 C17            1.2171    -4.2060     1.4061 C.ar    
  18 C18            2.4288    -4.8654     1.4954 C.ar    
  19 C19            0.0421    -4.9285     1.3153 C.ar    
  20 C20            0.0792    -6.3103     1.3080 C.ar    
  21 C21            1.2913    -6.9696     1.3910 C.ar    
  22 C22            2.4659    -6.2472     1.4880 C.ar    
  23 H23           -0.9557     1.8927     0.0169 H       
  24 H24           -0.9222    -0.5627     0.0082 H       
  25 H25            3.3339    -0.4842    -0.0324 H       
  26 H26            0.4372    -2.5620    -0.6046 H       
  27 H27            2.2112    -2.5151    -0.4665 H       
  28 H28            3.4957     3.0849     0.5008 H       
  29 H29            4.3986     1.5511     0.4839 H       
  30 H30            3.0096     4.2634    -1.5655 H       
  31 H31            3.6957     4.6928    -3.8910 H       
  32 H32            5.1210     3.0703    -5.0738 H       
  33 H33            5.8610     1.0186    -3.9308 H       
  34 H34            5.1787     0.5914    -1.6037 H       
  35 H35            2.0141    -2.3167     1.9974 H       
  36 H36            0.2401    -2.3636     1.8593 H       
  37 H37            3.3465    -4.3009     1.5705 H       
  38 H38           -0.9049    -4.4134     1.2504 H       
  39 H39           -0.8389    -6.8748     1.2377 H       
  40 H40            1.3203    -8.0492     1.3857 H       
  41 H41            3.4129    -6.7623     1.5530 H       
@<TRIPOS>BOND
   1    1    2 2
   2    1    6 1
   3    1   23 1
   4    2    3 1
   5    2   24 1
   6    3    4 2
   7    3    8 1
   8    4    5 1
   9    4   25 1
  10    5    6 am
  11    5    9 1
  12    6    7 2
  13    8   16 1
  14    8   26 1
  15    8   27 1
  16    9   10 1
  17    9   28 1
  18    9   29 1
  19   10   11 ar
  20   10   15 ar
  21   11   12 ar
  22   11   30 1
  23   12   13 ar
  24   12   31 1
  25   13   14 ar
  26   13   32 1
  27   14   15 ar
  28   14   33 1
  29   15   34 1
  30   16   17 1
  31   16   35 1
  32   16   36 1
  33   17   18 ar
  34   17   19 ar
  35   18   22 ar
  36   18   37 1
  37   19   20 ar
  38   19   38 1
  39   20   21 ar
  40   20   39 1
  41   21   22 ar
  42   21   40 1
  43   22   41 1

#	End of record

