#	Name: ASD01200518
#	Creating user name:	WinNT
#	Creation time:	15. 06. 2019 19:09

#	Modifying user name:	WinNT
#	Modification time:	15. 06. 2019 19:09

#	Program:	/corina/corina34_cracker 3.40 0067  02.08.2006

@<TRIPOS>MOLECULE
ASD01200518
  26   27    0    0    0
SMALL
NO_CHARGES


@<TRIPOS>ATOM
   1 N1             2.2306     1.3387     0.5646 N.ar    
   2 C2             2.2415     0.0208     0.5646 C.ar    
   3 C3             1.2056    -0.6960    -0.0207 C.ar    
   4 C4             0.1516    -0.0017    -0.6089 C.ar    
   5 C5             0.1813     1.3832    -0.5853 C.ar    
   6 C6             1.2474     2.0255     0.0160 C.ar    
   7 N7             1.2212    -2.0949    -0.0195 N.am    
   8 C8             0.0667    -2.7816     0.0900 C.2     
   9 O9            -0.9780    -2.1885     0.2860 O.2     
  10 C10           -1.0590    -5.0126     0.0723 C.2     
  11 C11            0.0691    -4.2428    -0.0269 C.2     
  12 C12            1.2639    -5.0254    -0.2599 C.2     
  13 C13            1.0283    -6.3272    -0.3306 C.2     
  14 S14           -0.6800    -6.6639    -0.1140 S.3     
  15 O15           -2.3044    -4.5287     0.2938 O.3     
  16 C16           -3.3669    -5.4813     0.3680 C.3     
  17 F17           -3.4465    -6.1860    -0.8379 F       
  18 F18           -3.1193    -6.3754     1.4152 F       
  19 H19            3.0642    -0.5070     1.0239 H       
  20 H20           -0.6685    -0.5297    -1.0725 H       
  21 H21           -0.6189     1.9544    -1.0322 H       
  22 H22            1.2753     3.1050     0.0375 H       
  23 H23            2.0630    -2.5706    -0.0975 H       
  24 H24            2.2475    -4.5922    -0.3657 H       
  25 H25            1.7851    -7.0792    -0.4990 H       
  26 H26           -4.3083    -4.9623     0.5484 H       
@<TRIPOS>BOND
   1    1    2 ar
   2    1    6 ar
   3    2    3 ar
   4    2   19 1
   5    3    4 ar
   6    3    7 1
   7    4    5 ar
   8    4   20 1
   9    5    6 ar
  10    5   21 1
  11    6   22 1
  12    7    8 am
  13    7   23 1
  14    8    9 2
  15    8   11 1
  16   10   11 2
  17   10   14 1
  18   10   15 1
  19   11   12 1
  20   12   13 2
  21   12   24 1
  22   13   14 1
  23   13   25 1
  24   15   16 1
  25   16   17 1
  26   16   18 1
  27   16   26 1

#	End of record

