#	Name: ASD05872016
#	Creating user name:	WinNT
#	Creation time:	15. 06. 2019 21:04

#	Modifying user name:	WinNT
#	Modification time:	15. 06. 2019 21:04

#	Program:	/corina/corina34_cracker 3.40 0067  02.08.2006

@<TRIPOS>MOLECULE
ASD05872016
  39   40    0    0    0
SMALL
NO_CHARGES


@<TRIPOS>ATOM
   1 C1            -0.0168     1.3909     0.0097 C.ar    
   2 C2             0.0021    -0.0041     0.0020 C.ar    
   3 C3            -1.1845    -0.7121     0.0091 C.ar    
   4 C4            -2.3952    -0.0265     0.0243 C.ar    
   5 C5            -2.4171     1.3754     0.0325 C.ar    
   6 C6            -1.2170     2.0760     0.0306 C.ar    
   7 C7            -3.8128    -0.4423     0.0357 C.2     
   8 C8            -4.5353     0.7114     0.0493 C.2     
   9 O9            -3.7097     1.7642     0.0473 O.3     
  10 C10           -6.0401     0.7908     0.0635 C.3     
  11 O11            0.7018     3.9551     1.3180 O.3     
  12 C12            1.7637     3.8898     2.2721 C.3     
  13 O13            1.1896    -0.6677    -0.0129 O.3     
  14 S14            1.7432    -0.9772     1.3707 S.o2    
  15 O15            3.1393    -1.3444     1.1913 O.co2   
  16 O16            1.5947     0.2341     2.1624 O.co2   
  17 O17            0.9533    -2.0770     1.9021 O.co2   
  18 O18            1.1546     2.0818     0.0022 O.3     
  19 C19            1.0667     3.5081     0.0107 C.3     
  20 C20           -4.3345    -1.8156     0.0325 C.2     
  21 O21           -4.5400    -2.3902     1.0840 O.2     
  22 O22           -4.5853    -2.4387    -1.1365 O.3     
  23 C23           -5.3209    -4.3328    -2.4786 C.3     
  24 C24           -5.0994    -3.7947    -1.0636 C.3     
  25 H25           -1.1723    -1.7920     0.0025 H       
  26 H26           -1.2222     3.1560     0.0368 H       
  27 H27           -6.3935     0.8038     1.0946 H       
  28 H28           -6.3607     1.7018    -0.4419 H       
  29 H29           -6.4546    -0.0757    -0.4517 H       
  30 H30            2.1032     2.8585     2.3679 H       
  31 H31            2.5914     4.5152     1.9377 H       
  32 H32            1.4064     4.2460     3.2383 H       
  33 H33            0.3121     3.8299    -0.7071 H       
  34 H34            2.0325     3.9333    -0.2622 H       
  35 H35           -5.7069    -5.3507    -2.4240 H       
  36 H36           -6.0388    -3.6996    -3.0000 H       
  37 H37           -4.3749    -4.3315    -3.0201 H       
  38 H38           -4.3816    -4.4279    -0.5423 H       
  39 H39           -6.0454    -3.7960    -0.5222 H       
@<TRIPOS>BOND
   1    1    2 ar
   2    1   18 1
   3    1    6 ar
   4    2    3 ar
   5    2   13 1
   6    3    4 ar
   7    3   25 1
   8    4    5 ar
   9    4    7 1
  10    5    6 ar
  11    5    9 1
  12    6   26 1
  13    7    8 2
  14    7   20 1
  15    8    9 1
  16    8   10 1
  17   10   27 1
  18   10   28 1
  19   10   29 1
  20   11   12 1
  21   11   19 1
  22   12   30 1
  23   12   31 1
  24   12   32 1
  25   13   14 1
  26   14   15 ar
  27   14   16 ar
  28   14   17 ar
  29   18   19 1
  30   19   33 1
  31   19   34 1
  32   20   21 2
  33   20   22 1
  34   22   24 1
  35   23   24 1
  36   23   35 1
  37   23   36 1
  38   23   37 1
  39   24   38 1
  40   24   39 1

#	End of record

