#	Name: ASD01813608
#	Creating user name:	WinNT
#	Creation time:	15. 06. 2019 19:30

#	Modifying user name:	WinNT
#	Modification time:	15. 06. 2019 19:30

#	Program:	/corina/corina34_cracker 3.40 0067  02.08.2006

@<TRIPOS>MOLECULE
ASD01813608
  42   45    0    0    0
SMALL
NO_CHARGES


@<TRIPOS>ATOM
   1 C1            -0.0955     1.1740     0.1830 C.ar    
   2 C2            -0.0485    -0.2095     0.1067 C.ar    
   3 C3             1.1607    -0.8735     0.0725 C.ar    
   4 C4             2.3529    -0.1528     0.1143 C.ar    
   5 C5             2.3038     1.2496     0.1912 C.ar    
   6 C6             1.0724     1.9088     0.2256 C.ar    
   7 N7             3.5674    -0.8053     0.0818 N.pl3   
   8 C8             4.7392    -0.1587     0.1205 C.2     
   9 C9             4.8178     1.2173     0.1967 C.2     
  10 C10            3.5714     1.9998     0.2348 C.2     
  11 O11            3.5873     3.2165     0.3015 O.2     
  12 C12            6.1237     1.8899     0.2382 C.2     
  13 O13            6.1874     3.2344     0.3126 O.3     
  14 O14            7.1466     1.2338     0.2054 O.2     
  15 C15            3.5757    -2.2681     0.0020 C.3     
  16 C16            3.4365    -2.6934    -1.4370 C.ar    
  17 N17            2.2367    -2.7937    -1.9718 N.ar    
  18 C18            2.0668    -3.1642    -3.2346 C.ar    
  19 C19            3.1648    -3.4607    -4.0393 C.ar    
  20 C20            4.4373    -3.3636    -3.5031 C.ar    
  21 C21            4.5701    -2.9677    -2.1799 C.ar    
  22 F22            1.1890    -2.2222    -0.0011 F       
  23 F23            1.0250     3.2570     0.2991 F       
  24 C24            0.6970    -3.2638    -3.7939 C.ar    
  25 C25           -0.3129    -3.9190    -3.0859 C.ar    
  26 N26           -1.5314    -4.0074    -3.5840 N.ar    
  27 C27           -1.8433    -3.4877    -4.7558 C.ar    
  28 C28           -0.8985    -2.8238    -5.5161 C.ar    
  29 C29            0.3938    -2.6988    -5.0351 C.ar    
  30 F30           -0.0397    -4.4670    -1.8817 F       
  31 H31           -1.0497     1.6793     0.2049 H       
  32 H32           -0.9687    -0.7739     0.0739 H       
  33 H33            5.6535    -0.7329     0.0914 H       
  34 H34            7.0687     3.6314     0.3375 H       
  35 H35            4.5147    -2.6485     0.4041 H       
  36 H36            2.7437    -2.6683     0.5813 H       
  37 H37            3.0252    -3.7624    -5.0669 H       
  38 H38            5.3075    -3.5875    -4.1024 H       
  39 H39            5.5492    -2.8822    -1.7321 H       
  40 H40           -2.8529    -3.5827    -5.1273 H       
  41 H41           -1.1669    -2.4033    -6.4740 H       
  42 H42            1.1507    -2.1847    -5.6089 H       
@<TRIPOS>BOND
   1    1    2 ar
   2    1    6 ar
   3    1   31 1
   4    2    3 ar
   5    2   32 1
   6    3    4 ar
   7    3   22 1
   8    4    5 ar
   9    4    7 1
  10    5    6 ar
  11    5   10 1
  12    6   23 1
  13    7    8 1
  14    7   15 1
  15    8    9 2
  16    8   33 1
  17    9   10 1
  18    9   12 1
  19   10   11 2
  20   12   13 1
  21   12   14 2
  22   13   34 1
  23   15   16 1
  24   15   35 1
  25   15   36 1
  26   16   17 ar
  27   16   21 ar
  28   17   18 ar
  29   18   19 ar
  30   18   24 1
  31   19   20 ar
  32   19   37 1
  33   20   21 ar
  34   20   38 1
  35   21   39 1
  36   24   25 ar
  37   24   29 ar
  38   25   26 ar
  39   25   30 1
  40   26   27 ar
  41   27   28 ar
  42   27   40 1
  43   28   29 ar
  44   28   41 1
  45   29   42 1

#	End of record

