#	Name: ASD01881170
#	Creating user name:	WinNT
#	Creation time:	15. 06. 2019 19:42

#	Modifying user name:	WinNT
#	Modification time:	15. 06. 2019 19:42

#	Program:	/corina/corina34_cracker 3.40 0067  02.08.2006

@<TRIPOS>MOLECULE
ASD01881170
  57   60    0    0    0
SMALL
NO_CHARGES


@<TRIPOS>ATOM
   1 Cl1            7.6254     4.9082     1.9452 Cl      
   2 N2            -0.0340     1.2604    -0.1616 N.ar    
   3 C3             0.0484    -0.0529    -0.2000 C.ar    
   4 N4             1.1964    -0.6834    -0.0485 N.ar    
   5 C5             2.3219    -0.0148     0.1500 C.ar    
   6 C6             2.2860     1.3676     0.1982 C.ar    
   7 C7             1.0532     2.0042     0.0339 C.ar    
   8 C8             3.5443     2.1660     0.4226 C.3     
   9 O9             4.2258     2.3406    -0.8212 O.3     
  10 C10            5.3866     3.0432    -0.7944 C.ar    
  11 C11            6.1010     3.2503    -1.9709 C.ar    
  12 C12            7.2747     3.9611    -1.9437 C.ar    
  13 C13            7.7600     4.4808    -0.7387 C.ar    
  14 C14            7.0382     4.2707     0.4411 C.ar    
  15 C15            5.8573     3.5595     0.4061 C.ar    
  16 C16            8.2675     4.3568    -3.0082 C.3     
  17 N17            9.3190     5.1184    -2.3245 N.am    
  18 C18            9.0218     5.1872    -1.0155 C.2     
  19 O19            9.6991     5.7523    -0.1786 O.2     
  20 C20            0.9571     3.4835     0.0761 C.ar    
  21 C21            1.8858     4.2647    -0.6094 C.ar    
  22 C22            1.7914     5.6409    -0.5665 C.ar    
  23 C23            0.7779     6.2451     0.1553 C.ar    
  24 C24           -0.1463     5.4749     0.8380 C.ar    
  25 C25           -0.0657     4.0977     0.7968 C.ar    
  26 C26            4.2858    -0.9445    -1.0447 C.3     
  27 C27            3.6258    -0.7504     0.3219 C.3     
  28 C28           -1.4118    -1.0762    -1.9233 C.3     
  29 C29           -1.2054    -0.8588    -0.4229 C.3     
  30 C30           10.1750     7.1325    -3.4164 C.3     
  31 C31           10.4984     5.7073    -2.9636 C.3     
  32 H32            3.2870     3.1412     0.8359 H       
  33 H33            4.1919     1.6351     1.1203 H       
  34 H34            5.7322     2.8516    -2.9044 H       
  35 H35            5.2999     3.3972     1.3168 H       
  36 H36            8.6917     3.4674    -3.4742 H       
  37 H37            7.7825     4.9794    -3.7601 H       
  38 H38            2.6779     3.7940    -1.1727 H       
  39 H39            2.5105     6.2472    -1.0973 H       
  40 H40            0.7081     7.3224     0.1864 H       
  41 H41           -0.9353     5.9520     1.4003 H       
  42 H42           -0.7880     3.4973     1.3298 H       
  43 H43            5.2290    -1.4765    -0.9204 H       
  44 H44            3.6241    -1.5236    -1.6888 H       
  45 H45            4.4746     0.0284    -1.4985 H       
  46 H46            4.2876    -0.1713     0.9660 H       
  47 H47            3.4371    -1.7233     0.7757 H       
  48 H48           -2.3187    -1.6590    -2.0845 H       
  49 H49           -1.5071    -0.1109    -2.4206 H       
  50 H50           -0.5568    -1.6135    -2.3336 H       
  51 H51           -1.1101    -1.8240     0.0744 H       
  52 H52           -2.0604    -0.3214    -0.0126 H       
  53 H53           11.0525     7.5706    -3.8919 H       
  54 H54            9.3497     7.1092    -4.1280 H       
  55 H55            9.8923     7.7331    -2.5518 H       
  56 H56           11.3237     5.7306    -2.2519 H       
  57 H57           10.7811     5.1067    -3.8282 H       
@<TRIPOS>BOND
   1    1   14 1
   2    2    3 ar
   3    2    7 ar
   4    3    4 ar
   5    3   29 1
   6    4    5 ar
   7    5    6 ar
   8    5   27 1
   9    6    7 ar
  10    6    8 1
  11    7   20 1
  12    8    9 1
  13    8   32 1
  14    8   33 1
  15    9   10 1
  16   10   11 ar
  17   10   15 ar
  18   11   12 ar
  19   11   34 1
  20   12   13 ar
  21   12   16 1
  22   13   14 ar
  23   13   18 1
  24   14   15 ar
  25   15   35 1
  26   16   17 1
  27   16   36 1
  28   16   37 1
  29   17   18 am
  30   17   31 1
  31   18   19 2
  32   20   21 ar
  33   20   25 ar
  34   21   22 ar
  35   21   38 1
  36   22   23 ar
  37   22   39 1
  38   23   24 ar
  39   23   40 1
  40   24   25 ar
  41   24   41 1
  42   25   42 1
  43   26   27 1
  44   26   43 1
  45   26   44 1
  46   26   45 1
  47   27   46 1
  48   27   47 1
  49   28   29 1
  50   28   48 1
  51   28   49 1
  52   28   50 1
  53   29   51 1
  54   29   52 1
  55   30   31 1
  56   30   53 1
  57   30   54 1
  58   30   55 1
  59   31   56 1
  60   31   57 1

#	End of record

