#	Name: ASD01913913
#	Creating user name:	WinNT
#	Creation time:	15. 06. 2019 20:02

#	Modifying user name:	WinNT
#	Modification time:	15. 06. 2019 20:02

#	Program:	/corina/corina34_cracker 3.40 0067  02.08.2006

@<TRIPOS>MOLECULE
ASD01913913
  44   46    0    0    0
SMALL
NO_CHARGES


@<TRIPOS>ATOM
   1 C1            -0.0173     1.4278     0.0099 C.ar    
   2 C2             0.0021    -0.0041     0.0020 C.1     
   3 C3             0.0180    -1.1779    -0.0044 C.1     
   4 C4             0.0374    -2.6098    -0.0123 C.ar    
   5 C5            -1.1552    -3.3455    -0.0049 C.ar    
   6 C6             0.0738    -5.2913    -0.0280 C.ar    
   7 N7             1.2234    -4.6330    -0.0407 N.ar    
   8 C8             1.2495    -3.3127    -0.0336 C.ar    
   9 N9            -1.0934    -4.6646    -0.0130 N.ar    
  10 C10            1.1561     3.5287     0.0099 C.ar    
  11 C11           -1.2347     2.1133     0.0310 C.ar    
  12 C12           -0.0528     4.2003     0.0246 C.ar    
  13 C13           -1.2456     3.4943     0.0385 C.ar    
  14 N14            0.0926    -6.6794    -0.0366 N.am    
  15 C15            1.2707    -7.3204    -0.0574 C.2     
  16 N16            1.3654    -8.6583    -0.0776 N.am    
  17 C17            0.1722    -9.5062    -0.0656 C.3     
  18 C18           -0.9841    -8.7566    -0.7357 C.3     
  19 C19           -1.1735    -7.4138    -0.0166 C.3     
  20 C20            0.4561   -10.7993    -0.8326 C.3     
  21 C21           -0.2037    -9.8395     1.3796 C.3     
  22 O22            2.2932    -6.6628    -0.0585 O.2     
  23 C23            1.1827     2.1472     0.0023 C.ar    
  24 C24            2.6898    -9.2835    -0.1129 C.3     
  25 F25           -2.4217     4.1588     0.0589 F       
  26 F26            2.3645     1.4927    -0.0120 F       
  27 H27           -2.1103    -2.8414     0.0077 H       
  28 H28            2.1905    -2.7828    -0.0443 H       
  29 H29            2.0815     4.0853    -0.0012 H       
  30 H30           -2.1649     1.5645     0.0412 H       
  31 H31           -0.0674     5.2802     0.0305 H       
  32 H32           -0.7483    -8.5831    -1.7857 H       
  33 H33           -1.8977    -9.3458    -0.6555 H       
  34 H34           -1.4814    -7.5925     1.0136 H       
  35 H35           -1.9375    -6.8301    -0.5301 H       
  36 H36            1.2825   -11.3289    -0.3587 H       
  37 H37           -0.4328   -11.4300    -0.8232 H       
  38 H38            0.7209   -10.5601    -1.8626 H       
  39 H39           -0.4084    -8.9174     1.9236 H       
  40 H40           -1.0922   -10.4709     1.3875 H       
  41 H41            0.6216   -10.3676     1.8572 H       
  42 H42            3.4570    -8.5093    -0.1178 H       
  43 H43            2.8168    -9.9154     0.7661 H       
  44 H44            2.7809    -9.8911    -1.0133 H       
@<TRIPOS>BOND
   1    1    2 1
   2    1   23 ar
   3    1   11 ar
   4    2    3 3
   5    3    4 1
   6    4    5 ar
   7    4    8 ar
   8    5    9 ar
   9    5   27 1
  10    6    7 ar
  11    6   14 1
  12    6    9 ar
  13    7    8 ar
  14    8   28 1
  15   10   12 ar
  16   10   23 ar
  17   10   29 1
  18   11   13 ar
  19   11   30 1
  20   12   13 ar
  21   12   31 1
  22   13   25 1
  23   14   15 am
  24   14   19 1
  25   15   16 am
  26   15   22 2
  27   16   17 1
  28   16   24 1
  29   17   18 1
  30   17   20 1
  31   17   21 1
  32   18   19 1
  33   18   32 1
  34   18   33 1
  35   19   34 1
  36   19   35 1
  37   20   36 1
  38   20   37 1
  39   20   38 1
  40   21   39 1
  41   21   40 1
  42   21   41 1
  43   23   26 1
  44   24   42 1
  45   24   43 1
  46   24   44 1

#	End of record

