#	Name: ASD01880347
#	Creating user name:	WinNT
#	Creation time:	15. 06. 2019 19:40

#	Modifying user name:	WinNT
#	Modification time:	15. 06. 2019 19:40

#	Program:	/corina/corina34_cracker 3.40 0067  02.08.2006

@<TRIPOS>MOLECULE
ASD01880347
  35   37    0    0    0
SMALL
NO_CHARGES


@<TRIPOS>ATOM
   1 C1            -0.0158     1.3166     0.0093 C.ar    
   2 N2             0.0021    -0.0041     0.0020 N.ar    
   3 C3             1.1445    -0.6746    -0.0125 C.ar    
   4 C4             2.3648     0.0485    -0.0202 C.ar    
   5 C5             2.2891     1.4440    -0.0120 C.ar    
   6 N6             1.0857     2.0309     0.0026 N.ar    
   7 C7             3.7373    -0.4211    -0.0353 C.2     
   8 C8             4.6485     0.5323    -0.0385 C.2     
   9 S9             3.9102     2.1228    -0.0232 S.3     
  10 C10            6.1352     0.2862    -0.0535 C.3     
  11 N11            1.1474    -2.0578    -0.0195 N.pl3   
  12 C12           -0.1198    -2.7930    -0.0109 C.3     
  13 C13            0.1587    -4.2740    -0.0210 C.ar    
  14 C14            0.5237    -6.3050    -1.2357 C.ar    
  15 C15            0.6693    -6.9928    -0.0397 C.ar    
  16 C16            0.5535    -6.3159     1.1657 C.ar    
  17 C17            0.2978    -4.9583     1.1723 C.ar    
  18 C18            0.2689    -4.9473    -1.2237 C.ar    
  19 O19            0.9199    -8.3285    -0.0489 O.3     
  20 C20            1.0581    -8.9714     1.2198 C.3     
  21 H21           -0.9682     1.8258     0.0165 H       
  22 H22            3.9931    -1.4704    -0.0429 H       
  23 H23            6.4842     0.2324    -1.0847 H       
  24 H24            6.6437     1.1022     0.4601 H       
  25 H25            6.3530    -0.6539     0.4533 H       
  26 H26            1.9884    -2.5410    -0.0301 H       
  27 H27           -0.6832    -2.5354     0.8859 H       
  28 H28           -0.7005    -2.5264    -0.8939 H       
  29 H29            0.6137    -6.8297    -2.1753 H       
  30 H30            0.6664    -6.8491     2.0981 H       
  31 H31            0.2068    -4.4310     2.1104 H       
  32 H32            0.1555    -4.4114    -2.1544 H       
  33 H33            1.2553   -10.0328     1.0698 H       
  34 H34            1.8869    -8.5216     1.7667 H       
  35 H35            0.1376    -8.8500     1.7908 H       
@<TRIPOS>BOND
   1    1    2 ar
   2    1    6 ar
   3    1   21 1
   4    2    3 ar
   5    3    4 ar
   6    3   11 1
   7    4    5 ar
   8    4    7 1
   9    5    6 ar
  10    5    9 1
  11    7    8 2
  12    7   22 1
  13    8    9 1
  14    8   10 1
  15   10   23 1
  16   10   24 1
  17   10   25 1
  18   11   12 1
  19   11   26 1
  20   12   13 1
  21   12   27 1
  22   12   28 1
  23   13   17 ar
  24   13   18 ar
  25   14   15 ar
  26   14   18 ar
  27   14   29 1
  28   15   16 ar
  29   15   19 1
  30   16   17 ar
  31   16   30 1
  32   17   31 1
  33   18   32 1
  34   19   20 1
  35   20   33 1
  36   20   34 1
  37   20   35 1

#	End of record

