#	Name: ASD01912222
#	Creating user name:	WinNT
#	Creation time:	15. 06. 2019 19:59

#	Modifying user name:	WinNT
#	Modification time:	15. 06. 2019 19:59

#	Program:	/corina/corina34_cracker 3.40 0067  02.08.2006

@<TRIPOS>MOLECULE
ASD01912222
  46   48    0    0    0
SMALL
NO_CHARGES


@<TRIPOS>ATOM
   1 N1            -0.0172     1.4638     0.0263 N.am    
   2 C2             0.0021    -0.0046     0.0207 C.3     
   3 C3             0.7906    -0.4834    -1.2049 C.3     
   4 C4             2.1052     0.2642    -1.2497 C.2     
   5 C5             2.0754     1.7758    -1.1918 C.3     
   6 C6             1.2547     2.1979     0.0335 C.3     
   7 C7            -1.1887     2.1301     0.0192 C.2     
   8 S8            -2.6617     1.2702    -0.1286 S.2     
   9 N9            -1.2007     3.4734     0.1284 N.am    
  10 C10           -1.0419     4.0747     1.3814 C.ar    
  11 C11           -0.9489     5.4567     1.4834 C.ar    
  12 C12           -0.7921     6.0472     2.7219 C.ar    
  13 C13           -0.7277     5.2641     3.8598 C.ar    
  14 C14           -0.8196     3.8878     3.7617 C.ar    
  15 C15           -0.9826     3.2914     2.5267 C.ar    
  16 C16            3.2610    -0.3926    -1.3376 C.2     
  17 C17            4.4952     0.3324    -1.3789 C.1     
  18 C18            5.5070     0.9268    -1.4127 C.1     
  19 C19            6.7412     1.6519    -1.4539 C.ar    
  20 C20            7.9512     0.9578    -1.5462 C.ar    
  21 C21            9.1339     1.6731    -1.5849 C.ar    
  22 C22            9.0732     3.0594    -1.5304 C.ar    
  23 C23            7.8421     3.6830    -1.4396 C.ar    
  24 N24            6.7281     2.9810    -1.4097 N.ar    
  25 C25            7.7740     5.1873    -1.3804 C.3     
  26 H26            0.4832    -0.3671     0.9292 H       
  27 H27           -1.0187    -0.3833    -0.0307 H       
  28 H28            0.9797    -1.5538    -1.1243 H       
  29 H29            0.2206    -0.2781    -2.1110 H       
  30 H30            3.0916     2.1597    -1.1029 H       
  31 H31            1.6121     2.1686    -2.0969 H       
  32 H32            1.0585     3.2693    -0.0096 H       
  33 H33            1.8077     1.9619     0.9426 H       
  34 H34           -1.3194     4.0232    -0.6619 H       
  35 H35           -0.9988     6.0688     0.5950 H       
  36 H36           -0.7194     7.1218     2.8019 H       
  37 H37           -0.6051     5.7283     4.8272 H       
  38 H38           -0.7686     3.2789     4.6523 H       
  39 H39           -1.0594     2.2168     2.4512 H       
  40 H40            3.2671    -1.4718    -1.3778 H       
  41 H41            7.9621    -0.1214    -1.5862 H       
  42 H42           10.0841     1.1647    -1.6557 H       
  43 H43            9.9797     3.6457    -1.5584 H       
  44 H44            7.7011     5.5878    -2.3915 H       
  45 H45            6.8981     5.4890    -0.8061 H       
  46 H46            8.6736     5.5731    -0.9008 H       
@<TRIPOS>BOND
   1    1    2 1
   2    1    6 1
   3    1    7 am
   4    2    3 1
   5    2   26 1
   6    2   27 1
   7    3    4 1
   8    3   28 1
   9    3   29 1
  10    4    5 1
  11    4   16 2
  12    5    6 1
  13    5   30 1
  14    5   31 1
  15    6   32 1
  16    6   33 1
  17    7    8 2
  18    7    9 am
  19    9   10 1
  20    9   34 1
  21   10   11 ar
  22   10   15 ar
  23   11   12 ar
  24   11   35 1
  25   12   13 ar
  26   12   36 1
  27   13   14 ar
  28   13   37 1
  29   14   15 ar
  30   14   38 1
  31   15   39 1
  32   16   17 1
  33   16   40 1
  34   17   18 3
  35   18   19 1
  36   19   20 ar
  37   19   24 ar
  38   20   21 ar
  39   20   41 1
  40   21   22 ar
  41   21   42 1
  42   22   23 ar
  43   22   43 1
  44   23   24 ar
  45   23   25 1
  46   25   44 1
  47   25   45 1
  48   25   46 1

#	End of record

