#	Name: ASD02039240
#	Creating user name:	WinNT
#	Creation time:	15. 06. 2019 20:17

#	Modifying user name:	WinNT
#	Modification time:	15. 06. 2019 20:17

#	Program:	/corina/corina34_cracker 3.40 0067  02.08.2006

@<TRIPOS>MOLECULE
ASD02039240
  31   32    0    0    0
SMALL
NO_CHARGES


@<TRIPOS>ATOM
   1 N1            -0.0162     1.3414     0.0094 N.am    
   2 C2             0.0021    -0.0041     0.0020 C.2     
   3 C3             1.3057    -0.7561     0.0042 C.3     
   4 C4             2.3475     0.0053    -0.8158 C.3     
   5 C5             2.3611     1.4520    -0.3949 C.ar    
   6 C6             3.5432     2.1655    -0.4038 C.ar    
   7 C7             3.5520     3.4973    -0.0161 C.ar    
   8 C8             2.3736     4.1128     0.3806 C.ar    
   9 C9             1.1910     3.4002     0.3903 C.ar    
  10 C10            1.1814     2.0671     0.0019 C.ar    
  11 O11           -1.0441    -0.6178    -0.0061 O.2     
  12 O12            4.7161     4.1998    -0.0245 O.3     
  13 C13            4.6519     5.5668     0.3869 C.3     
  14 C14            6.0482     6.1880     0.3121 C.3     
  15 C15            5.9596     7.6816     0.6319 C.3     
  16 O16            6.9056     5.5480     1.2593 O.3     
  17 Br17           7.7241     8.5114     0.3801 Br      
  18 H18           -0.8645     1.8117     0.0160 H       
  19 H19            1.6599    -0.8636     1.0295 H       
  20 H20            1.1543    -1.7442    -0.4305 H       
  21 H21            3.3320    -0.4311    -0.6473 H       
  22 H22            2.0968    -0.0625    -1.8744 H       
  23 H23            4.4608     1.6866    -0.7122 H       
  24 H24            2.3813     5.1498     0.6824 H       
  25 H25            0.2740     3.8793     0.7000 H       
  26 H26            3.9757     6.1128    -0.2709 H       
  27 H27            4.2846     5.6210     1.4117 H       
  28 H28            6.4519     6.0547    -0.6916 H       
  29 H29            5.2377     8.1537    -0.0344 H       
  30 H30            5.6403     7.8135     1.6657 H       
  31 H31            6.6071     5.6264     2.1758 H       
@<TRIPOS>BOND
   1    1    2 am
   2    1   10 1
   3    1   18 1
   4    2    3 1
   5    2   11 2
   6    3    4 1
   7    3   19 1
   8    3   20 1
   9    4    5 1
  10    4   21 1
  11    4   22 1
  12    5    6 ar
  13    5   10 ar
  14    6    7 ar
  15    6   23 1
  16    7    8 ar
  17    7   12 1
  18    8    9 ar
  19    8   24 1
  20    9   10 ar
  21    9   25 1
  22   12   13 1
  23   13   14 1
  24   13   26 1
  25   13   27 1
  26   14   15 1
  27   14   16 1
  28   14   28 1
  29   15   17 1
  30   15   29 1
  31   15   30 1
  32   16   31 1

#	End of record

