#	Name: ASD02198556
#	Creating user name:	WinNT
#	Creation time:	15. 06. 2019 20:19

#	Modifying user name:	WinNT
#	Modification time:	15. 06. 2019 20:19

#	Program:	/corina/corina34_cracker 3.40 0067  02.08.2006

@<TRIPOS>MOLECULE
ASD02198556
  49   52    0    0    0
SMALL
NO_CHARGES


@<TRIPOS>ATOM
   1 C1             0.0071     1.5099     0.1334 C.2     
   2 C2             0.0746     0.1699    -0.0948 C.2     
   3 N3            -1.0516    -0.5603    -0.2650 N.pl3   
   4 N4            -2.2297    -0.0570    -0.2247 N.2     
   5 C5            -2.4374     1.2259    -0.0114 C.2     
   6 C6            -1.2792     2.1067     0.1922 C.2     
   7 C7            -0.9238    -1.9343    -0.4972 C.ar    
   8 C8            -1.3826    -3.8658    -1.8485 C.ar    
   9 C9            -0.6714    -4.6547    -0.9561 C.ar    
  10 C10           -0.0915    -4.0830     0.1681 C.ar    
  11 C11           -0.2168    -2.7278     0.3974 C.ar    
  12 C12           -3.8107     1.7688     0.0275 C.2     
  13 N13           -4.3736     2.4810     1.0489 N.pl3   
  14 N14           -5.6851     2.7993     0.6751 N.2     
  15 C15           -5.9146     2.3067    -0.5160 C.2     
  16 C16           -4.7631     1.6575    -0.9616 C.2     
  17 C17           -3.7506     2.8297     2.2540 C.ar    
  18 C18           -2.9575     1.9049     2.9204 C.ar    
  19 O19           -1.4173     3.3046     0.3938 O.2     
  20 C20           -3.9202     4.1029     2.7820 C.ar    
  21 C21           -3.3046     4.4436     3.9704 C.ar    
  22 C22           -2.5201     3.5186     4.6345 C.ar    
  23 C23           -2.3446     2.2518     4.1084 C.ar    
  24 C24           -1.5097    -2.5081    -1.6214 C.ar    
  25 F25           -2.2025    -1.7392    -2.4898 F       
  26 O26            1.1344     2.2512     0.3051 O.3     
  27 C27            2.3828     1.5595     0.2346 C.3     
  28 O28           -0.5468    -5.9894    -1.1799 O.3     
  29 S29            0.6743    -6.3671    -2.0062 S.o2    
  30 C30            2.0686    -6.1939    -0.8587 C.3     
  31 O31            0.4659    -7.7338    -2.3349 O.2     
  32 O32            0.7346    -5.3712    -3.0180 O.2     
  33 F33            1.8871    -7.0550     0.2289 F       
  34 F34            3.2585    -6.5199    -1.5181 F       
  35 F35            2.1352    -4.8733    -0.4019 F       
  36 H36            1.0380    -0.3160    -0.1409 H       
  37 H37           -1.8331    -4.3115    -2.7231 H       
  38 H38            0.4615    -4.6986     0.8620 H       
  39 H39            0.2352    -2.2841     1.2722 H       
  40 H40           -6.8408     2.3928    -1.0649 H       
  41 H41           -4.6425     1.1522    -1.9084 H       
  42 H42           -2.8204     0.9153     2.5102 H       
  43 H43           -4.5325     4.8259     2.2636 H       
  44 H44           -3.4359     5.4337     4.3814 H       
  45 H45           -2.0398     3.7874     5.5637 H       
  46 H46           -1.7316     1.5314     4.6296 H       
  47 H47            2.4168     0.7916     1.0073 H       
  48 H48            2.4851     1.0935    -0.7455 H       
  49 H49            3.1987     2.2658     0.3880 H       
@<TRIPOS>BOND
   1    1    2 2
   2    1   26 1
   3    1    6 1
   4    2    3 1
   5    2   36 1
   6    3    4 1
   7    3    7 1
   8    4    5 2
   9    5    6 1
  10    5   12 1
  11    6   19 2
  12    7   24 ar
  13    7   11 ar
  14    8    9 ar
  15    8   24 ar
  16    8   37 1
  17    9   10 ar
  18    9   28 1
  19   10   11 ar
  20   10   38 1
  21   11   39 1
  22   12   13 1
  23   12   16 2
  24   13   14 1
  25   13   17 1
  26   14   15 2
  27   15   16 1
  28   15   40 1
  29   16   41 1
  30   17   20 ar
  31   17   18 ar
  32   18   23 ar
  33   18   42 1
  34   20   21 ar
  35   20   43 1
  36   21   22 ar
  37   21   44 1
  38   22   23 ar
  39   22   45 1
  40   23   46 1
  41   24   25 1
  42   26   27 1
  43   27   47 1
  44   27   48 1
  45   27   49 1
  46   28   29 1
  47   29   30 1
  48   29   31 2
  49   29   32 2
  50   30   33 1
  51   30   34 1
  52   30   35 1

#	End of record

