#	Name: ASD00311259
#	Creating user name:	WinNT
#	Creation time:	15. 06. 2019 18:34

#	Modifying user name:	WinNT
#	Modification time:	15. 06. 2019 18:34

#	Program:	/corina/corina34_cracker 3.40 0067  02.08.2006

@<TRIPOS>MOLECULE
ASD00311259
  36   39    0    0    0
SMALL
NO_CHARGES


@<TRIPOS>ATOM
   1 C1            -0.0167     1.3778     0.0096 C.2     
   2 C2             0.0021    -0.0041     0.0020 C.2     
   3 C3             1.2589    -0.6766    -0.0140 C.2     
   4 C4             2.4315     0.0674    -0.0217 C.2     
   5 C5             2.3574     1.4753    -0.0134 C.2     
   6 N6             1.1648     2.0904     0.0022 N.am    
   7 C7            -1.3431    -0.5750     0.0123 C.2     
   8 C8            -2.3223     0.3256     0.0268 C.2     
   9 S9            -1.6794     1.9560     0.0358 S.3     
  10 O10            3.3822     2.1374    -0.0200 O.2     
  11 C11            3.7477    -0.6118    -0.0379 C.ar    
  12 C12            4.5931    -0.4744    -1.1387 C.ar    
  13 C13            5.8181    -1.1092    -1.1477 C.ar    
  14 C14            6.2085    -1.8808    -0.0677 C.ar    
  15 C15            5.3744    -2.0209     1.0271 C.ar    
  16 C16            4.1491    -1.3868     1.0501 C.ar    
  17 O17            1.3089    -2.0291    -0.0214 O.3     
  18 C18           -1.5955    -2.0355     0.0065 C.ar    
  19 C19           -2.4693    -2.5982     0.9360 C.ar    
  20 C20           -2.7006    -3.9585     0.9262 C.ar    
  21 C21           -2.0670    -4.7641    -0.0043 C.ar    
  22 C22           -1.1983    -4.2107    -0.9291 C.ar    
  23 C23           -0.9645    -2.8509    -0.9322 C.ar    
  24 Br24          -2.3890    -6.6274    -0.0116 Br      
  25 H25            1.1326     3.0599     0.0073 H       
  26 H26           -3.3749     0.0838     0.0354 H       
  27 H27            4.2892     0.1274    -1.9825 H       
  28 H28            6.4735    -1.0039    -1.9996 H       
  29 H29            7.1682    -2.3760    -0.0795 H       
  30 H30            5.6846    -2.6246     1.8671 H       
  31 H31            3.5006    -1.4936     1.9070 H       
  32 H32            2.2062    -2.3895    -0.0322 H       
  33 H33           -2.9638    -1.9706     1.6626 H       
  34 H34           -3.3769    -4.3955     1.6459 H       
  35 H35           -0.7064    -4.8439    -1.6526 H       
  36 H36           -0.2902    -2.4195    -1.6572 H       
@<TRIPOS>BOND
   1    1    2 2
   2    1    6 1
   3    1    9 1
   4    2    3 1
   5    2    7 1
   6    3    4 2
   7    3   17 1
   8    4    5 1
   9    4   11 1
  10    5    6 am
  11    5   10 2
  12    6   25 1
  13    7    8 2
  14    7   18 1
  15    8    9 1
  16    8   26 1
  17   11   12 ar
  18   11   16 ar
  19   12   13 ar
  20   12   27 1
  21   13   14 ar
  22   13   28 1
  23   14   15 ar
  24   14   29 1
  25   15   16 ar
  26   15   30 1
  27   16   31 1
  28   17   32 1
  29   18   19 ar
  30   18   23 ar
  31   19   20 ar
  32   19   33 1
  33   20   21 ar
  34   20   34 1
  35   21   22 ar
  36   21   24 1
  37   22   23 ar
  38   22   35 1
  39   23   36 1

#	End of record

