#	Name: ASD01882143
#	Creating user name:	WinNT
#	Creation time:	15. 06. 2019 19:44

#	Modifying user name:	WinNT
#	Modification time:	15. 06. 2019 19:44

#	Program:	/corina/corina34_cracker 3.40 0067  02.08.2006

@<TRIPOS>MOLECULE
ASD01882143
  43   46    0    0    0
SMALL
NO_CHARGES


@<TRIPOS>ATOM
   1 C1            -0.8096    -0.0513     1.1156 C.2     
   2 C2             0.0021    -0.0041     0.0020 C.2     
   3 C3            -0.4062     0.7467    -1.1210 C.2     
   4 C4            -1.5784     1.4103    -1.1030 C.2     
   5 N5            -2.3895     1.3704    -0.0051 N.pl3   
   6 C6            -2.0310     0.6477     1.1033 C.2     
   7 C7            -3.6062     1.9434     0.2676 C.2     
   8 C8            -3.9529     1.5680     1.5167 C.2     
   9 N9            -2.9903     0.7832     2.0101 N.2     
  10 N10            1.2139    -0.6906    -0.0142 N.pl3   
  11 Cl11          -0.3345    -0.9669     2.5119 Cl      
  12 C12           -4.4058     2.8267    -0.6551 C.3     
  13 C13            1.2520    -2.1574     0.0876 C.3     
  14 C14            2.1136    -2.7025    -1.0565 C.3     
  15 N15            3.4264    -2.0439    -1.0332 N.3     
  16 C16            3.3022    -0.5993    -1.2688 C.3     
  17 C17            2.4890     0.0316    -0.1396 C.3     
  18 C18            4.2883    -2.6234    -1.9481 C.ar    
  19 N19            5.5216    -2.1530    -2.0626 N.ar    
  20 C20            6.3703    -2.6840    -2.9271 C.ar    
  21 C21            5.9553    -3.7442    -3.7177 C.ar    
  22 C22            4.6586    -4.2114    -3.5722 C.ar    
  23 N23            3.8621    -3.6388    -2.6848 N.ar    
  24 C24           -4.1012     4.2942    -0.3473 C.3     
  25 F25           -2.7364     4.5367    -0.5361 F       
  26 F26           -4.8435     5.1141    -1.2039 F       
  27 F27           -4.4453     4.5734     0.9797 F       
  28 H28            0.2233     0.7897    -1.9975 H       
  29 H29           -1.8806     1.9816    -1.9683 H       
  30 H30           -4.8590     1.8523     2.0310 H       
  31 H31           -4.1378     2.6092    -1.6890 H       
  32 H32           -5.4692     2.6377    -0.5080 H       
  33 H33            1.6875    -2.4469     1.0439 H       
  34 H34            0.2409    -2.5564     0.0067 H       
  35 H35            2.2437    -3.7776    -0.9333 H       
  36 H36            1.6228    -2.5018    -2.0088 H       
  37 H37            4.2944    -0.1491    -1.2997 H       
  38 H38            2.7949    -0.4279    -2.2182 H       
  39 H39            2.2970     1.0799    -0.3682 H       
  40 H40            3.0410    -0.0467     0.7970 H       
  41 H41            7.3743    -2.2961    -3.0161 H       
  42 H42            6.6278    -4.1961    -4.4319 H       
  43 H43            4.3039    -5.0356    -4.1733 H       
@<TRIPOS>BOND
   1    1    2 2
   2    1   11 1
   3    1    6 1
   4    2    3 1
   5    2   10 1
   6    3    4 2
   7    3   28 1
   8    4    5 1
   9    4   29 1
  10    5    6 1
  11    5    7 1
  12    6    9 2
  13    7    8 2
  14    7   12 1
  15    8    9 1
  16    8   30 1
  17   10   13 1
  18   10   17 1
  19   12   24 1
  20   12   31 1
  21   12   32 1
  22   13   14 1
  23   13   33 1
  24   13   34 1
  25   14   15 1
  26   14   35 1
  27   14   36 1
  28   15   16 1
  29   15   18 1
  30   16   17 1
  31   16   37 1
  32   16   38 1
  33   17   39 1
  34   17   40 1
  35   18   19 ar
  36   18   23 ar
  37   19   20 ar
  38   20   21 ar
  39   20   41 1
  40   21   22 ar
  41   21   42 1
  42   22   23 ar
  43   22   43 1
  44   24   25 1
  45   24   26 1
  46   24   27 1

#	End of record

