#	Name: ASD00311489
#	Creating user name:	WinNT
#	Creation time:	15. 06. 2019 18:34

#	Modifying user name:	WinNT
#	Modification time:	15. 06. 2019 18:34

#	Program:	/corina/corina34_cracker 3.40 0067  02.08.2006

@<TRIPOS>MOLECULE
ASD00311489
  54   58    0    0    0
SMALL
NO_CHARGES


@<TRIPOS>ATOM
   1 C1            -0.0167     1.3777     0.0096 C.2     
   2 C2             0.0021    -0.0041     0.0020 C.2     
   3 C3             1.2588    -0.6767    -0.0140 C.2     
   4 C4             2.4315     0.0672    -0.0217 C.2     
   5 C5             2.3574     1.4751    -0.0134 C.2     
   6 N6             1.1648     2.0902     0.0022 N.am    
   7 C7            -1.3433    -0.5752     0.0123 C.2     
   8 C8            -2.3228     0.3262     0.0268 C.2     
   9 S9            -1.6792     1.9562     0.0358 S.3     
  10 O10            3.3822     2.1373    -0.0200 O.2     
  11 C11            3.7476    -0.6120    -0.0379 C.ar    
  12 C12            4.5930    -0.4746    -1.1387 C.ar    
  13 C13            5.8181    -1.1095    -1.1477 C.ar    
  14 C14            6.2082    -1.8815    -0.0679 C.ar    
  15 C15            5.3741    -2.0216     1.0269 C.ar    
  16 C16            4.1491    -1.3870     1.0501 C.ar    
  17 C17           -2.0690    -4.7662    -0.0052 C.ar    
  18 C18           -2.7056    -3.9523     0.9315 C.ar    
  19 C19           -2.4706    -2.5954     0.9379 C.ar    
  20 C20           -1.5956    -2.0347     0.0065 C.ar    
  21 C21           -0.9588    -2.8494    -0.9306 C.ar    
  22 C22           -1.1941    -4.2063    -0.9360 C.ar    
  23 C23           -2.3177    -6.2283    -0.0077 C.ar    
  24 C24           -1.6827    -7.0429    -0.9428 C.ar    
  25 C25           -1.9173    -8.4084    -0.9424 C.ar    
  26 C26           -2.7833    -8.9647    -0.0125 C.ar    
  27 C27           -3.4176    -8.1563     0.9196 C.ar    
  28 C28           -3.1826    -6.7909     0.9286 C.ar    
  29 O29           -4.2657    -8.7052     1.8287 O.3     
  30 C30           -4.4566   -10.1200     1.7662 C.3     
  31 O31           -1.2986    -9.2036    -1.8544 O.3     
  32 C32           -1.5863   -10.6022    -1.7968 C.3     
  33 O33            1.3087    -2.0292    -0.0214 O.3     
  34 H34            1.1326     3.0597     0.0073 H       
  35 H35           -3.3754     0.0847     0.0354 H       
  36 H36            4.2892     0.1271    -1.9825 H       
  37 H37            6.4735    -1.0039    -1.9995 H       
  38 H38            7.1677    -2.3771    -0.0799 H       
  39 H39            5.6840    -2.6258     1.8666 H       
  40 H40            3.5006    -1.4935     1.9072 H       
  41 H41           -3.3833    -4.3863     1.6519 H       
  42 H42           -2.9639    -1.9652     1.6631 H       
  43 H43           -0.2819    -2.4158    -1.6518 H       
  44 H44           -0.7014    -4.8369    -1.6612 H       
  45 H45           -1.0086    -6.6104    -1.6673 H       
  46 H46           -2.9645   -10.0294    -0.0143 H       
  47 H47           -3.6727    -6.1629     1.6578 H       
  48 H48           -5.1550   -10.4271     2.5448 H       
  49 H49           -4.8595   -10.3895     0.7899 H       
  50 H50           -3.5011   -10.6225     1.9164 H       
  51 H51           -1.2951   -10.9932    -0.8219 H       
  52 H52           -2.6542   -10.7600    -1.9473 H       
  53 H53           -1.0289   -11.1202    -2.5773 H       
  54 H54            2.2059    -2.3896    -0.0322 H       
@<TRIPOS>BOND
   1    1    2 2
   2    1    6 1
   3    1    9 1
   4    2    3 1
   5    2    7 1
   6    3    4 2
   7    3   33 1
   8    4    5 1
   9    4   11 1
  10    5    6 am
  11    5   10 2
  12    6   34 1
  13    7    8 2
  14    7   20 1
  15    8    9 1
  16    8   35 1
  17   11   12 ar
  18   11   16 ar
  19   12   13 ar
  20   12   36 1
  21   13   14 ar
  22   13   37 1
  23   14   15 ar
  24   14   38 1
  25   15   16 ar
  26   15   39 1
  27   16   40 1
  28   17   18 ar
  29   17   22 ar
  30   17   23 1
  31   18   19 ar
  32   18   41 1
  33   19   20 ar
  34   19   42 1
  35   20   21 ar
  36   21   22 ar
  37   21   43 1
  38   22   44 1
  39   23   24 ar
  40   23   28 ar
  41   24   25 ar
  42   24   45 1
  43   25   26 ar
  44   25   31 1
  45   26   27 ar
  46   26   46 1
  47   27   28 ar
  48   27   29 1
  49   28   47 1
  50   29   30 1
  51   30   48 1
  52   30   49 1
  53   30   50 1
  54   31   32 1
  55   32   51 1
  56   32   52 1
  57   32   53 1
  58   33   54 1

#	End of record

