#	Name: ASD03430231
#	Creating user name:	WinNT
#	Creation time:	15. 06. 2019 20:40

#	Modifying user name:	WinNT
#	Modification time:	15. 06. 2019 20:40

#	Program:	/corina/corina34_cracker 3.40 0067  02.08.2006

@<TRIPOS>MOLECULE
ASD03430231
  45   50    0    0    0
SMALL
NO_CHARGES


@<TRIPOS>ATOM
   1 C1            -1.0482     1.1705     0.5690 C.ar    
   2 C2            -0.8540    -0.2968     0.4510 C.ar    
   3 C3             0.4544    -0.8074     0.4206 C.ar    
   4 C4             1.5302     0.0289     0.5132 C.ar    
   5 C5             1.3542     1.4286     0.6176 C.ar    
   6 C6             0.1342     2.0102     0.6479 C.ar    
   7 O7             2.7057    -0.6687     0.5023 O.3     
   8 C8             0.9952    -2.2074     0.2840 C.3     
   9 C9             2.4757    -1.9797    -0.0469 C.3     
  10 C10            0.0743    -4.1299     1.1647 C.ar    
  11 C11            0.8160    -3.0112     1.5374 C.ar    
  12 C12            0.2928    -2.9842    -0.7918 C.2     
  13 N13           -0.2149    -4.0846    -0.2012 N.am    
  14 O14            0.2002    -2.6812    -1.9626 O.2     
  15 C15            1.2191    -2.8410     2.8426 C.ar    
  16 C16            0.8873    -3.7844     3.7992 C.ar    
  17 C17            0.1503    -4.8981     3.4409 C.ar    
  18 C18           -0.2552    -5.0738     2.1338 C.ar    
  19 C19           -0.9807    -5.1132    -0.9094 C.3     
  20 C20           -0.0339    -6.1194    -1.5110 C.ar    
  21 N21            0.8037    -6.7737    -0.7307 N.ar    
  22 C22            1.6500    -7.6630    -1.2128 C.ar    
  23 C23            1.6881    -7.9416    -2.5657 C.ar    
  24 C24            0.8220    -7.2732    -3.4179 C.ar    
  25 C25           -0.0573    -6.3499    -2.8737 C.ar    
  26 N26           -2.0856    -0.7457     0.4044 N.2     
  27 O27           -2.8534     0.1930     0.4744 O.3     
  28 N28           -2.3497     1.2946     0.5728 N.2     
  29 C29           -1.0184    -5.5983    -3.7583 C.3     
  30 F30           -0.8958    -6.0557    -5.0747 F       
  31 F31           -2.3269    -5.8101    -3.3110 F       
  32 F32           -0.7247    -4.2313    -3.7103 F       
  33 H33            2.2299     2.0581     0.6758 H       
  34 H34            0.0402     3.0830     0.7292 H       
  35 H35            2.6391    -1.9847    -1.1246 H       
  36 H36            3.1033    -2.7234     0.4442 H       
  37 H37            1.7951    -1.9706     3.1203 H       
  38 H38            1.2035    -3.6513     4.8233 H       
  39 H39           -0.1089    -5.6341     4.1876 H       
  40 H40           -0.8301    -5.9465     1.8615 H       
  41 H41           -1.6482    -5.6157    -0.2094 H       
  42 H42           -1.5680    -4.6482    -1.7013 H       
  43 H43            2.3212    -8.1793    -0.5424 H       
  44 H44            2.3838    -8.6704    -2.9545 H       
  45 H45            0.8296    -7.4702    -4.4797 H       
@<TRIPOS>BOND
   1    1    2 ar
   2    1    6 ar
   3    1   28 2
   4    2    3 ar
   5    2   26 2
   6    3    4 ar
   7    3    8 1
   8    4    5 ar
   9    4    7 1
  10    5    6 ar
  11    5   33 1
  12    6   34 1
  13    7    9 1
  14    8    9 1
  15    8   11 1
  16    8   12 1
  17    9   35 1
  18    9   36 1
  19   10   11 ar
  20   10   13 1
  21   10   18 ar
  22   11   15 ar
  23   12   13 am
  24   12   14 2
  25   13   19 1
  26   15   16 ar
  27   15   37 1
  28   16   17 ar
  29   16   38 1
  30   17   18 ar
  31   17   39 1
  32   18   40 1
  33   19   20 1
  34   19   41 1
  35   19   42 1
  36   20   21 ar
  37   20   25 ar
  38   21   22 ar
  39   22   23 ar
  40   22   43 1
  41   23   24 ar
  42   23   44 1
  43   24   25 ar
  44   24   45 1
  45   25   29 1
  46   26   27 1
  47   27   28 1
  48   29   30 1
  49   29   31 1
  50   29   32 1

#	End of record

