#	Name: ASD01917432
#	Creating user name:	WinNT
#	Creation time:	15. 06. 2019 20:09

#	Modifying user name:	WinNT
#	Modification time:	15. 06. 2019 20:09

#	Program:	/corina/corina34_cracker 3.40 0067  02.08.2006

@<TRIPOS>MOLECULE
ASD01917432
  48   52    0    0    0
SMALL
NO_CHARGES


@<TRIPOS>ATOM
   1 C1            -0.0171     1.4099     0.0098 C.ar    
   2 C2             0.0021    -0.0041     0.0020 C.ar    
   3 C3            -1.1917    -0.7239     0.0401 C.ar    
   4 C4            -2.3836    -0.0594     0.0717 C.ar    
   5 C5            -2.4188     1.3398     0.0667 C.ar    
   6 C6            -1.2414     2.0757     0.0362 C.ar    
   7 N7             1.1596     2.0752     0.0021 N.2     
   8 C8             2.3195     1.4675    -0.0394 C.2     
   9 N9             2.4197     0.1193    -0.1564 N.am    
  10 C10            1.3098    -0.6629    -0.0613 C.2     
  11 O11            1.4008    -1.8765    -0.0300 O.2     
  12 C12           -3.7246     2.0425     0.0939 C.2     
  13 C13            3.5356     2.3449     0.1018 C.3     
  14 C14            4.7919     1.6918    -0.4307 C.3     
  15 C15            4.8962     0.2357    -0.0258 C.3     
  16 C16            3.6791    -0.5625    -0.4349 C.3     
  17 C17            6.1343    -0.3750    -0.6854 C.3     
  18 C18            5.0553     0.1536     1.4936 C.3     
  19 N19           -3.9015     3.3688    -0.0030 N.2     
  20 N20           -5.1570     3.6472     0.0548 N.2     
  21 N21           -5.8686     2.4471     0.1983 N.pl3   
  22 C22           -4.9440     1.4483     0.2153 C.2     
  23 C23           -7.2568     2.3040     0.2964 C.ar    
  24 N24           -7.7839     1.0970     0.4205 N.ar    
  25 C25           -9.0870     0.9173     0.5160 C.ar    
  26 C26           -9.9539     1.9924     0.4896 C.ar    
  27 C27           -9.4407     3.2754     0.3606 C.ar    
  28 C28           -8.0683     3.4312     0.2683 C.ar    
  29 H29           -1.1733    -1.8037     0.0442 H       
  30 H30           -3.3074    -0.6181     0.1004 H       
  31 H31           -1.2742     3.1552     0.0325 H       
  32 H32            3.3643     3.2739    -0.4420 H       
  33 H33            3.6804     2.5786     1.1565 H       
  34 H34            4.7905     1.7571    -1.5187 H       
  35 H35            5.6594     2.2286    -0.0469 H       
  36 H36            3.6881    -1.5123     0.0998 H       
  37 H37            3.7375    -0.7658    -1.5042 H       
  38 H38            7.0235     0.1632    -0.3571 H       
  39 H39            6.2182    -1.4236    -0.3999 H       
  40 H40            6.0433    -0.2996    -1.7689 H       
  41 H41            4.1895     0.6086     1.9748 H       
  42 H42            5.1313    -0.8911     1.7951 H       
  43 H43            5.9586     0.6849     1.7935 H       
  44 H44           -5.1394     0.3901     0.3070 H       
  45 H45           -9.4812    -0.0832     0.6158 H       
  46 H46          -11.0197     1.8362     0.5681 H       
  47 H47          -10.0968     4.1329     0.3370 H       
  48 H48           -7.6348     4.4153     0.1674 H       
@<TRIPOS>BOND
   1    1    2 ar
   2    1    7 1
   3    1    6 ar
   4    2    3 ar
   5    2   10 1
   6    3    4 ar
   7    3   29 1
   8    4    5 ar
   9    4   30 1
  10    5    6 ar
  11    5   12 1
  12    6   31 1
  13    7    8 2
  14    8    9 1
  15    8   13 1
  16    9   10 am
  17    9   16 1
  18   10   11 2
  19   12   19 1
  20   12   22 2
  21   13   14 1
  22   13   32 1
  23   13   33 1
  24   14   15 1
  25   14   34 1
  26   14   35 1
  27   15   16 1
  28   15   17 1
  29   15   18 1
  30   16   36 1
  31   16   37 1
  32   17   38 1
  33   17   39 1
  34   17   40 1
  35   18   41 1
  36   18   42 1
  37   18   43 1
  38   19   20 2
  39   20   21 1
  40   21   23 1
  41   21   22 1
  42   22   44 1
  43   23   24 ar
  44   23   28 ar
  45   24   25 ar
  46   25   26 ar
  47   25   45 1
  48   26   27 ar
  49   26   46 1
  50   27   28 ar
  51   27   47 1
  52   28   48 1

#	End of record

