#	Name: ASD04590934
#	Creating user name:	WinNT
#	Creation time:	15. 06. 2019 20:51

#	Modifying user name:	WinNT
#	Modification time:	15. 06. 2019 20:51

#	Program:	/corina/corina34_cracker 3.40 0067  02.08.2006

@<TRIPOS>MOLECULE
ASD04590934
  63   67    0    0    0
SMALL
NO_CHARGES


@<TRIPOS>ATOM
   1 N1            -2.3785    -2.7059     0.0212 N.ar    
   2 C2            -1.2116    -2.0738     0.0044 C.ar    
   3 N3            -0.0576    -2.7200    -0.0182 N.ar    
   4 C4            -0.0260    -4.0496    -0.0250 C.ar    
   5 C5            -1.2484    -4.7504    -0.0076 C.ar    
   6 C6            -2.4372    -4.0272     0.0159 C.ar    
   7 N7             0.9980    -4.9638    -0.0460 N.pl3   
   8 C8             0.4951    -6.2534    -0.0431 C.ar    
   9 C9            -0.9091    -6.1791    -0.0193 C.ar    
  10 C10            1.0916    -7.5075    -0.0579 C.ar    
  11 N11            0.3553    -8.6000    -0.0503 N.ar    
  12 C12           -0.9654    -8.5647    -0.0281 C.ar    
  13 C13           -1.6435    -7.3644    -0.0121 C.ar    
  14 N14           -1.2019    -0.6887     0.0103 N.pl3   
  15 C15           -2.4014     0.0175    -0.0793 C.ar    
  16 N16           -3.5344    -0.6391    -0.2708 N.ar    
  17 C17           -4.6920    -0.0127    -0.3612 C.ar    
  18 C18           -4.7608     1.3688    -0.2576 C.ar    
  19 C19           -3.5880     2.0942    -0.0557 C.ar    
  20 C20           -2.3937     1.4026     0.0394 C.ar    
  21 N21           -5.9928     2.0263    -0.3551 N.3     
  22 C22            2.4225    -4.6225    -0.0691 C.3     
  23 C23           -6.2394     2.8602     0.8283 C.3     
  24 C24            2.9432    -4.5097     1.3652 C.3     
  25 C25           -7.0854     1.0682    -0.5665 C.3     
  26 C26           -8.3910     1.8276    -0.8131 C.3     
  27 C27           -8.6943     2.7174     0.3955 C.3     
  28 C28           -7.5198     3.6730     0.6233 C.3     
  29 C29            4.4552    -4.2767     1.3420 C.3     
  30 O30            2.3022    -3.4130     2.0198 O.3     
  31 N31           -9.9156     3.4927     0.1402 N.3     
  32 C32          -10.3033     4.2697     1.3251 C.3     
  33 C33           -9.7505     4.3648    -1.0303 C.3     
  34 H34           -3.3900    -4.5355     0.0300 H       
  35 H35            2.1685    -7.5879    -0.0762 H       
  36 H36           -1.5221    -9.4902    -0.0228 H       
  37 H37           -2.7231    -7.3426     0.0065 H       
  38 H38           -0.3609    -0.2099     0.0767 H       
  39 H39           -5.5962    -0.5820    -0.5181 H       
  40 H40           -3.6115     3.1706     0.0288 H       
  41 H41           -1.4659     1.9327     0.1961 H       
  42 H42            2.9742    -5.4012    -0.5957 H       
  43 H43            2.5597    -3.6702    -0.5814 H       
  44 H44           -6.3506     2.2224     1.7052 H       
  45 H45           -5.3988     3.5380     0.9765 H       
  46 H46            2.7259    -5.4318     1.9042 H       
  47 H47           -6.8592     0.4445    -1.4313 H       
  48 H48           -7.1926     0.4388     0.3169 H       
  49 H49           -8.2892     2.4467    -1.7044 H       
  50 H50           -9.2046     1.1161    -0.9545 H       
  51 H51           -8.8347     2.0955     1.2796 H       
  52 H52           -7.7110     4.2801     1.5082 H       
  53 H53           -7.4042     4.3212    -0.2454 H       
  54 H54            4.6724    -3.3545     0.8030 H       
  55 H55            4.8261    -4.1963     2.3638 H       
  56 H56            4.9441    -5.1132     0.8427 H       
  57 H57            2.4527    -2.5582     1.5935 H       
  58 H58           -9.5002     4.9587     1.5865 H       
  59 H59          -11.2103     4.8342     1.1086 H       
  60 H60          -10.4871     3.5927     2.1593 H       
  61 H61           -9.5324     3.7570    -1.9084 H       
  62 H62          -10.6692     4.9273    -1.1968 H       
  63 H63           -8.9273     5.0573    -0.8542 H       
@<TRIPOS>BOND
   1    1    2 ar
   2    1    6 ar
   3    2    3 ar
   4    2   14 1
   5    3    4 ar
   6    4    5 ar
   7    4    7 1
   8    5    6 ar
   9    5    9 1
  10    6   34 1
  11    7    8 1
  12    7   22 1
  13    8    9 ar
  14    8   10 ar
  15    9   13 ar
  16   10   11 ar
  17   10   35 1
  18   11   12 ar
  19   12   13 ar
  20   12   36 1
  21   13   37 1
  22   14   15 1
  23   14   38 1
  24   15   16 ar
  25   15   20 ar
  26   16   17 ar
  27   17   18 ar
  28   17   39 1
  29   18   19 ar
  30   18   21 1
  31   19   20 ar
  32   19   40 1
  33   20   41 1
  34   21   25 1
  35   21   23 1
  36   22   24 1
  37   22   42 1
  38   22   43 1
  39   23   28 1
  40   23   44 1
  41   23   45 1
  42   24   29 1
  43   24   30 1
  44   24   46 1
  45   25   26 1
  46   25   47 1
  47   25   48 1
  48   26   27 1
  49   26   49 1
  50   26   50 1
  51   27   28 1
  52   27   31 1
  53   27   51 1
  54   28   52 1
  55   28   53 1
  56   29   54 1
  57   29   55 1
  58   29   56 1
  59   30   57 1
  60   31   32 1
  61   31   33 1
  62   32   58 1
  63   32   59 1
  64   32   60 1
  65   33   61 1
  66   33   62 1
  67   33   63 1

#	End of record

