#	Name: ASD01900331
#	Creating user name:	WinNT
#	Creation time:	15. 06. 2019 19:51

#	Modifying user name:	WinNT
#	Modification time:	15. 06. 2019 19:51

#	Program:	/corina/corina34_cracker 3.40 0067  02.08.2006

@<TRIPOS>MOLECULE
ASD01900331
  39   42    0    0    0
SMALL
NO_CHARGES


@<TRIPOS>ATOM
   1 C1            -0.0168     1.3891     0.0097 C.ar    
   2 C2             0.0021    -0.0041     0.0020 C.ar    
   3 C3             1.2224    -0.6606    -0.0132 C.ar    
   4 C4             2.3820     0.0992    -0.0202 C.ar    
   5 C5             2.2884     1.4815    -0.0119 C.ar    
   6 N6             1.1169     2.0792     0.0026 N.ar    
   7 C7            -1.3131     2.1060     0.0197 C.2     
   8 O8            -2.3544     1.4790     0.0212 O.2     
   9 N9            -1.3378     3.4535     0.0271 N.am    
  10 N10           -4.0866     5.7298     0.0525 N.am    
  11 C11           -2.7427     5.4762     0.0448 C.2     
  12 C12           -2.5683     4.1341     0.0367 C.2     
  13 C13           -3.8517     3.5436     0.0395 C.2     
  14 C14           -4.7569     4.5428     0.0492 C.2     
  15 S15           -4.7846     7.2314     0.0702 S.o2    
  16 O16           -6.0849     7.0631     0.6180 O.2     
  17 O17           -3.8183     8.1166     0.6197 O.2     
  18 O18           -5.3025     8.9737    -5.5179 O.3     
  19 C19           -3.9056     9.2298    -5.7552 C.3     
  20 O20           -3.3767     9.4866    -4.4408 O.3     
  21 C21           -4.1885     8.8041    -3.5816 C.ar    
  22 C22           -5.3728     8.4886    -4.2440 C.ar    
  23 C23           -6.3681     7.7903    -3.5807 C.ar    
  24 C24           -6.1857     7.4079    -2.2644 C.ar    
  25 C25           -5.0109     7.7211    -1.6072 C.ar    
  26 C26           -4.0130     8.4184    -2.2630 C.ar    
  27 H27           -0.9212    -0.5644     0.0082 H       
  28 H28            1.2690    -1.7395    -0.0191 H       
  29 H29            3.3489    -0.3818    -0.0317 H       
  30 H30            3.1898     2.0763    -0.0170 H       
  31 H31           -0.5068     3.9539     0.0259 H       
  32 H32           -1.9574     6.2177     0.0448 H       
  33 H33           -4.0681     2.4856     0.0351 H       
  34 H34           -5.8302     4.4231     0.0537 H       
  35 H35           -3.4258     8.3566    -6.1972 H       
  36 H36           -3.7797    10.1026    -6.3960 H       
  37 H37           -7.2873     7.5446    -4.0917 H       
  38 H38           -6.9630     6.8637    -1.7487 H       
  39 H39           -3.0959     8.6617    -1.7470 H       
@<TRIPOS>BOND
   1    1    2 ar
   2    1    6 ar
   3    1    7 1
   4    2    3 ar
   5    2   27 1
   6    3    4 ar
   7    3   28 1
   8    4    5 ar
   9    4   29 1
  10    5    6 ar
  11    5   30 1
  12    7    8 2
  13    7    9 am
  14    9   12 1
  15    9   31 1
  16   10   11 1
  17   10   14 1
  18   10   15 am
  19   11   12 2
  20   11   32 1
  21   12   13 1
  22   13   14 2
  23   13   33 1
  24   14   34 1
  25   15   16 2
  26   15   17 2
  27   15   25 1
  28   18   19 1
  29   18   22 1
  30   19   20 1
  31   19   35 1
  32   19   36 1
  33   20   21 1
  34   21   22 ar
  35   21   26 ar
  36   22   23 ar
  37   23   24 ar
  38   23   37 1
  39   24   25 ar
  40   24   38 1
  41   25   26 ar
  42   26   39 1

#	End of record

