#	Name: ASD01813023
#	Creating user name:	WinNT
#	Creation time:	15. 06. 2019 19:29

#	Modifying user name:	WinNT
#	Modification time:	15. 06. 2019 19:29

#	Program:	/corina/corina34_cracker 3.40 0067  02.08.2006

@<TRIPOS>MOLECULE
ASD01813023
  50   53    0    0    0
SMALL
NO_CHARGES


@<TRIPOS>ATOM
   1 C1            -1.5415     1.7270     0.2995 C.2     
   2 C2            -1.7603     0.4014     0.2936 C.2     
   3 N3            -0.7255    -0.4775     0.1404 N.pl3   
   4 C4             0.5500    -0.0969     0.0016 C.2     
   5 C5             0.8780     1.2445     0.0052 C.2     
   6 C6            -0.2129     2.2159     0.1572 C.2     
   7 O7             0.0158     3.4150     0.1686 O.2     
   8 C8            -1.0278    -1.9109     0.1278 C.3     
   9 C9            -0.8615    -2.4716     1.5166 C.ar    
  10 C10           -2.6409     2.7453     0.4445 C.3     
  11 C11           -3.9048     2.1010     1.0098 C.3     
  12 C12           -4.2154     0.8497     0.1790 C.3     
  13 C13           -3.1372    -0.1927     0.4632 C.3     
  14 O14           -2.2074     3.7832     1.3259 O.3     
  15 C15           -1.9623    -2.6090     2.3419 C.ar    
  16 C16           -1.8125    -3.1223     3.6156 C.ar    
  17 C17           -0.5559    -3.5006     4.0664 C.ar    
  18 C18            0.5471    -3.3621     3.2361 C.ar    
  19 C19            0.3910    -2.8531     1.9614 C.ar    
  20 O20           -0.4058    -4.0053     5.3191 O.3     
  21 C21           -1.5063    -4.0811     6.1125 C.ar    
  22 C22           -2.4243    -5.1058     5.9315 C.ar    
  23 C23           -3.5423    -5.1805     6.7394 C.ar    
  24 C24           -3.7470    -4.2354     7.7277 C.ar    
  25 C25           -2.8340    -3.2131     7.9099 C.ar    
  26 C26           -1.7112    -3.1373     7.1088 C.ar    
  27 C27            2.2738     1.6860    -0.1428 C.2     
  28 O28            3.1606     0.8648    -0.2711 O.2     
  29 O29            2.5689     3.0011    -0.1362 O.3     
  30 H30            1.3247    -0.8406    -0.1131 H       
  31 H31           -2.0547    -2.0627    -0.2048 H       
  32 H32           -0.3463    -2.4200    -0.5537 H       
  33 H33           -2.8632     3.1747    -0.5324 H       
  34 H34           -3.7411     1.8206     2.0503 H       
  35 H35           -4.7365     2.8024     0.9436 H       
  36 H36           -5.1917     0.4548     0.4603 H       
  37 H37           -4.2120     1.1022    -0.8813 H       
  38 H38           -3.2550    -1.0281    -0.2269 H       
  39 H39           -3.2483    -0.5543     1.4854 H       
  40 H40           -2.8647     4.4780     1.4686 H       
  41 H41           -2.9402    -2.3144     1.9905 H       
  42 H42           -2.6726    -3.2287     4.2600 H       
  43 H43            1.5262    -3.6558     3.5846 H       
  44 H44            1.2491    -2.7455     1.3146 H       
  45 H45           -2.2651    -5.8440     5.1595 H       
  46 H46           -4.2573    -5.9776     6.5987 H       
  47 H47           -4.6217    -4.2957     8.3583 H       
  48 H48           -2.9966    -2.4758     8.6821 H       
  49 H49           -0.9982    -2.3388     7.2516 H       
  50 H50            3.4998     3.2426    -0.2366 H       
@<TRIPOS>BOND
   1    1    2 2
   2    1   10 1
   3    1    6 1
   4    2    3 1
   5    2   13 1
   6    3    4 1
   7    3    8 1
   8    4    5 2
   9    4   30 1
  10    5    6 1
  11    5   27 1
  12    6    7 2
  13    8    9 1
  14    8   31 1
  15    8   32 1
  16    9   15 ar
  17    9   19 ar
  18   10   11 1
  19   10   14 1
  20   10   33 1
  21   11   12 1
  22   11   34 1
  23   11   35 1
  24   12   13 1
  25   12   36 1
  26   12   37 1
  27   13   38 1
  28   13   39 1
  29   14   40 1
  30   15   16 ar
  31   15   41 1
  32   16   17 ar
  33   16   42 1
  34   17   18 ar
  35   17   20 1
  36   18   19 ar
  37   18   43 1
  38   19   44 1
  39   20   21 1
  40   21   22 ar
  41   21   26 ar
  42   22   23 ar
  43   22   45 1
  44   23   24 ar
  45   23   46 1
  46   24   25 ar
  47   24   47 1
  48   25   26 ar
  49   25   48 1
  50   26   49 1
  51   27   28 2
  52   27   29 1
  53   29   50 1

#	End of record

