#	Name: ASD02560517
#	Creating user name:	WinNT
#	Creation time:	15. 06. 2019 20:25

#	Modifying user name:	WinNT
#	Modification time:	15. 06. 2019 20:25

#	Program:	/corina/corina34_cracker 3.40 0067  02.08.2006

@<TRIPOS>MOLECULE
ASD02560517
  50   53    0    0    0
SMALL
NO_CHARGES


@<TRIPOS>ATOM
   1 C1             0.9997     0.8691     1.9814 C.2     
   2 C2             1.9455     0.0261     2.5841 C.2     
   3 C3             2.9880    -0.4580     1.8633 C.2     
   4 N4             3.1298    -0.1308     0.5404 N.pl3   
   5 C5             2.2151     0.6940    -0.0738 C.2     
   6 C6             1.1285     1.2021     0.6683 C.2     
   7 C7             4.0662    -0.4724    -0.3994 C.2     
   8 C8             3.7016     0.1534    -1.5710 C.2     
   9 N9             2.5738     0.8528    -1.3375 N.2     
  10 C10            4.4235     0.0722    -2.8622 C.ar    
  11 N11            5.1763    -1.2962    -0.2068 N.3     
  12 C12            6.4035    -0.5013    -0.0653 C.3     
  13 C13            4.2986    -1.0616    -3.6640 C.ar    
  14 C14            5.2271     1.1330    -3.2838 C.ar    
  15 C15            6.8520    -0.5117     1.3975 C.3     
  16 C16            7.5046    -1.1031    -0.9406 C.3     
  17 C17            8.7828    -0.2752    -0.7933 C.3     
  18 C18            9.2314    -0.2855     0.6695 C.3     
  19 C19            8.1302     0.3162     1.5448 C.3     
  20 O20            3.8956    -1.2705     2.4560 O.3     
  21 C21            4.9733    -1.1314    -4.8660 C.ar    
  22 C22            5.7727    -0.0797    -5.2762 C.ar    
  23 C23            5.8968     1.0509    -4.4884 C.ar    
  24 Cl24           5.3835     2.5520    -2.2962 Cl      
  25 C25            3.7614    -1.4750     3.8639 C.3     
  26 C26            4.9354    -2.3147     4.3714 C.3     
  27 H27            0.1689     1.2494     2.5572 H       
  28 H28            1.8434    -0.2383     3.6263 H       
  29 H29            0.4038     1.8500     0.1977 H       
  30 H30            5.0436    -1.9014     0.5896 H       
  31 H31            6.2101     0.5246    -0.3787 H       
  32 H32            3.6754    -1.8839    -3.3448 H       
  33 H33            6.0676    -0.0830     2.0211 H       
  34 H34            7.0455    -1.5376     1.7109 H       
  35 H35            7.6981    -2.1290    -0.6272 H       
  36 H36            7.1851    -1.0957    -1.9827 H       
  37 H37            9.5673    -0.7039    -1.4169 H       
  38 H38            8.5894     0.7507    -1.1068 H       
  39 H39            9.4248    -1.3114     0.9829 H       
  40 H40           10.1420     0.3043     0.7744 H       
  41 H41            7.9368     1.3421     1.2314 H       
  42 H42            8.4498     0.3088     2.5869 H       
  43 H43            4.8770    -2.0093    -5.4876 H       
  44 H44            6.2987    -0.1395    -6.2176 H       
  45 H45            6.5222     1.8689    -4.8142 H       
  46 H46            3.7577    -0.5108     4.3723 H       
  47 H47            2.8265    -1.9968     4.0678 H       
  48 H48            4.8884    -3.3098     3.9291 H       
  49 H49            5.8732    -1.8358     4.0898 H       
  50 H50            4.8810    -2.3966     5.4570 H       
@<TRIPOS>BOND
   1    1    2 1
   2    1    6 2
   3    1   27 1
   4    2    3 2
   5    2   28 1
   6    3    4 1
   7    3   20 1
   8    4    5 1
   9    4    7 1
  10    5    6 1
  11    5    9 2
  12    6   29 1
  13    7    8 2
  14    7   11 1
  15    8    9 1
  16    8   10 1
  17   10   13 ar
  18   10   14 ar
  19   11   12 1
  20   11   30 1
  21   12   16 1
  22   12   15 1
  23   12   31 1
  24   13   21 ar
  25   13   32 1
  26   14   24 1
  27   14   23 ar
  28   15   19 1
  29   15   33 1
  30   15   34 1
  31   16   17 1
  32   16   35 1
  33   16   36 1
  34   17   18 1
  35   17   37 1
  36   17   38 1
  37   18   19 1
  38   18   39 1
  39   18   40 1
  40   19   41 1
  41   19   42 1
  42   20   25 1
  43   21   22 ar
  44   21   43 1
  45   22   23 ar
  46   22   44 1
  47   23   45 1
  48   25   26 1
  49   25   46 1
  50   25   47 1
  51   26   48 1
  52   26   49 1
  53   26   50 1

#	End of record

