#	Name: ASD01810405
#	Creating user name:	WinNT
#	Creation time:	15. 06. 2019 19:24

#	Modifying user name:	WinNT
#	Modification time:	15. 06. 2019 19:24

#	Program:	/corina/corina34_cracker 3.40 0067  02.08.2006

@<TRIPOS>MOLECULE
ASD01810405
  28   29    0    0    0
SMALL
NO_CHARGES


@<TRIPOS>ATOM
   1 C1            -0.0225     1.8097     0.0120 C.3     
   2 S2             0.0021    -0.0041     0.0020 S.o2    
   3 O3             0.8448    -0.4970     1.0346 O.2     
   4 O4            -1.3093    -0.5195    -0.1821 O.2     
   5 O5             0.7319    -0.3669    -1.2834 O.3     
   6 C6             2.1455    -0.1659    -1.2258 C.3     
   7 N7             4.4121    -1.3672    -6.2261 N.pl3   
   8 N8             4.3069    -0.1055    -6.8206 N.2     
   9 C9             3.7595     0.7358    -5.9906 C.2     
  10 C10            3.4699     0.0173    -4.7539 C.ar    
  11 C11            2.8973     0.3798    -3.5295 C.ar    
  12 C12            2.7624    -0.5550    -2.5445 C.ar    
  13 C13            3.1888    -1.8622    -2.7457 C.ar    
  14 C14            3.7515    -2.2399    -3.9317 C.ar    
  15 C15            3.9018    -1.3077    -4.9557 C.ar    
  16 C16            4.9722    -2.5623    -6.8620 C.3     
  17 H17            1.0001     2.1870     0.0043 H       
  18 H18           -0.5497     2.1708    -0.8711 H       
  19 H19           -0.5327     2.1613     0.9088 H       
  20 H20            2.3551     0.8842    -1.0223 H       
  21 H21            2.5679    -0.7812    -0.4314 H       
  22 H22            3.5567     1.7790    -6.1830 H       
  23 H23            2.5645     1.3940    -3.3648 H       
  24 H24            3.0742    -2.5884    -1.9546 H       
  25 H25            4.0794    -3.2589    -4.0750 H       
  26 H26            6.0424    -2.6127    -6.6616 H       
  27 H27            4.4849    -3.4503    -6.4594 H       
  28 H28            4.8060    -2.5131    -7.9381 H       
@<TRIPOS>BOND
   1    1    2 1
   2    1   17 1
   3    1   18 1
   4    1   19 1
   5    2    3 2
   6    2    4 2
   7    2    5 1
   8    5    6 1
   9    6   12 1
  10    6   20 1
  11    6   21 1
  12    7    8 1
  13    7   15 1
  14    7   16 1
  15    8    9 2
  16    9   10 1
  17    9   22 1
  18   10   11 ar
  19   10   15 ar
  20   11   12 ar
  21   11   23 1
  22   12   13 ar
  23   13   14 ar
  24   13   24 1
  25   14   15 ar
  26   14   25 1
  27   16   26 1
  28   16   27 1
  29   16   28 1

#	End of record

