#	Name: ASD00310087
#	Creating user name:	WinNT
#	Creation time:	15. 06. 2019 18:33

#	Modifying user name:	WinNT
#	Modification time:	15. 06. 2019 18:33

#	Program:	/corina/corina34_cracker 3.40 0067  02.08.2006

@<TRIPOS>MOLECULE
ASD00310087
  30   31    0    0    0
SMALL
NO_CHARGES


@<TRIPOS>ATOM
   1 N1            -0.0179     1.4660     0.0101 N.am    
   2 C2             0.0021    -0.0041     0.0020 C.3     
   3 C3             1.4817    -0.4423     0.0128 C.3     
   4 C4             2.2073     0.7983     0.5975 C.3     
   5 C5             1.3719     1.9577    -0.0005 C.3     
   6 C6            -1.1236     2.2365     0.0197 C.2     
   7 O7            -2.2237     1.7205     0.0223 O.2     
   8 O8            -1.0093     3.5780     0.0264 O.3     
   9 C9             1.6759    -1.6424     0.9033 C.ar    
  10 C10            2.1978    -2.8119     0.3828 C.ar    
  11 C11            2.3765    -3.9127     1.1993 C.ar    
  12 C12            2.0331    -3.8441     2.5375 C.ar    
  13 C13            1.5109    -2.6736     3.0579 C.ar    
  14 C14            1.3375    -1.5716     2.2418 C.ar    
  15 Br15           2.2767    -5.3500     3.6549 Br      
  16 C16           -2.2424     4.3446     0.0367 C.3     
  17 H17           -0.5043    -0.3865     0.8883 H       
  18 H18           -0.4883    -0.3765    -0.8974 H       
  19 H19            1.8295    -0.6512    -0.9989 H       
  20 H20            2.1582     0.8025     1.6863 H       
  21 H21            3.2409     0.8441     0.2544 H       
  22 H22            1.6918     2.1688    -1.0209 H       
  23 H23            1.4634     2.8499     0.6189 H       
  24 H24            2.4656    -2.8656    -0.6621 H       
  25 H25            2.7839    -4.8265     0.7925 H       
  26 H26            1.2423    -2.6197     4.1025 H       
  27 H27            0.9336    -0.6565     2.6489 H       
  28 H28           -2.8179     4.0953     0.9281 H       
  29 H29           -2.0083     5.4092     0.0413 H       
  30 H30           -2.8266     4.1049    -0.8518 H       
@<TRIPOS>BOND
   1    1    2 1
   2    1    5 1
   3    1    6 am
   4    2    3 1
   5    2   17 1
   6    2   18 1
   7    3    4 1
   8    3    9 1
   9    3   19 1
  10    4    5 1
  11    4   20 1
  12    4   21 1
  13    5   22 1
  14    5   23 1
  15    6    7 2
  16    6    8 1
  17    8   16 1
  18    9   10 ar
  19    9   14 ar
  20   10   11 ar
  21   10   24 1
  22   11   12 ar
  23   11   25 1
  24   12   13 ar
  25   12   15 1
  26   13   14 ar
  27   13   26 1
  28   14   27 1
  29   16   28 1
  30   16   29 1
  31   16   30 1

#	End of record

