#	Name: ASD01180225
#	Creating user name:	WinNT
#	Creation time:	15. 06. 2019 19:07

#	Modifying user name:	WinNT
#	Modification time:	15. 06. 2019 19:07

#	Program:	/corina/corina34_cracker 3.40 0067  02.08.2006

@<TRIPOS>MOLECULE
ASD01180225
  56   58    0    0    0
SMALL
NO_CHARGES


@<TRIPOS>ATOM
   1 C1             0.2490     1.5339     0.0379 C.2     
   2 C2             0.1468     0.0609    -0.0067 C.ar    
   3 C3             1.2773    -0.7240    -0.2676 C.ar    
   4 C4             1.1278    -2.0989    -0.2985 C.ar    
   5 C5            -0.1212    -2.6497    -0.0729 C.ar    
   6 N6            -1.1689    -1.8855     0.1701 N.ar    
   7 C7            -1.0767    -0.5727     0.2161 C.ar    
   8 O8             1.3200     2.0744    -0.1525 O.2     
   9 O9            -0.8466     2.2779     0.2844 O.3     
  10 C10           -0.2878    -4.1471    -0.1057 C.3     
  11 C11           -0.9187    -4.6189     1.2059 C.3     
  12 C12           -0.9303    -6.1484     1.2450 C.3     
  13 C13           -1.4296    -6.6198     2.6122 C.3     
  14 O14           -1.1346    -4.5083    -1.1987 O.3     
  15 C15            0.6442    -4.8748    -4.9066 C.ar    
  16 C16           -0.7372    -5.0091    -4.7785 C.ar    
  17 C17           -1.3286    -4.8857    -3.5388 C.ar    
  18 C18           -0.5493    -4.6289    -2.4189 C.ar    
  19 C19            0.8269    -4.4946    -2.5434 C.ar    
  20 C20            1.4239    -4.6165    -3.7805 C.ar    
  21 C21            1.2841    -5.0130    -6.2379 C.ar    
  22 C22            2.6651    -4.8790    -6.3674 C.ar    
  23 C23            3.2551    -5.0085    -7.6083 C.ar    
  24 C24            2.4782    -5.2708    -8.7223 C.ar    
  25 C25            1.1069    -5.4049    -8.5997 C.ar    
  26 C26            0.5070    -5.2830    -7.3627 C.ar    
  27 C27            3.1281    -5.4107   -10.0748 C.3     
  28 F28            3.4744    -6.7490   -10.2896 F       
  29 F29            2.2337    -4.9954   -11.0671 F       
  30 F30            4.2795    -4.6175   -10.1231 F       
  31 C31           -1.8596    -6.6795     0.1517 C.3     
  32 C32           -0.6718     3.7191     0.3134 C.3     
  33 H33            2.2407    -0.2675    -0.4406 H       
  34 H34            1.9772    -2.7358    -0.4970 H       
  35 H35           -1.9562     0.0190     0.4229 H       
  36 H36            0.6871    -4.6184    -0.2302 H       
  37 H37           -0.3378    -4.2384     2.0460 H       
  38 H38           -1.9408    -4.2460     1.2722 H       
  39 H39            0.0793    -6.5238     1.0777 H       
  40 H40           -2.4392    -6.2444     2.7795 H       
  41 H41           -1.4379    -7.7094     2.6401 H       
  42 H42           -0.7676    -6.2414     3.3911 H       
  43 H43           -1.3439    -5.2089    -5.6493 H       
  44 H44           -2.3989    -4.9897    -3.4389 H       
  45 H45            1.4306    -4.2941    -1.6705 H       
  46 H46            2.4946    -4.5124    -3.8767 H       
  47 H47            3.2726    -4.6738    -5.4983 H       
  48 H48            4.3252    -4.9045    -7.7099 H       
  49 H49            0.5051    -5.6097    -9.4728 H       
  50 H50           -0.5632    -5.3926    -7.2673 H       
  51 H51           -1.4324    -6.4597    -0.8267 H       
  52 H52           -1.9741    -7.7576     0.2643 H       
  53 H53           -2.8344    -6.1996     0.2387 H       
  54 H54            0.0427     3.9828     1.0931 H       
  55 H55           -0.2979     4.0593    -0.6523 H       
  56 H56           -1.6292     4.1970     0.5212 H       
@<TRIPOS>BOND
   1    1    2 1
   2    1    8 2
   3    1    9 1
   4    2    3 ar
   5    2    7 ar
   6    3    4 ar
   7    3   33 1
   8    4    5 ar
   9    4   34 1
  10    5    6 ar
  11    5   10 1
  12    6    7 ar
  13    7   35 1
  14    9   32 1
  15   10   11 1
  16   10   14 1
  17   10   36 1
  18   11   12 1
  19   11   37 1
  20   11   38 1
  21   12   13 1
  22   12   31 1
  23   12   39 1
  24   13   40 1
  25   13   41 1
  26   13   42 1
  27   14   18 1
  28   15   16 ar
  29   15   20 ar
  30   15   21 1
  31   16   17 ar
  32   16   43 1
  33   17   18 ar
  34   17   44 1
  35   18   19 ar
  36   19   20 ar
  37   19   45 1
  38   20   46 1
  39   21   22 ar
  40   21   26 ar
  41   22   23 ar
  42   22   47 1
  43   23   24 ar
  44   23   48 1
  45   24   25 ar
  46   24   27 1
  47   25   26 ar
  48   25   49 1
  49   26   50 1
  50   27   28 1
  51   27   29 1
  52   27   30 1
  53   31   51 1
  54   31   52 1
  55   31   53 1
  56   32   54 1
  57   32   55 1
  58   32   56 1

#	End of record

