#	Name: ASD08830003
#	Creating user name:	WinNT
#	Creation time:	15. 06. 2019 21:19

#	Modifying user name:	WinNT
#	Modification time:	15. 06. 2019 21:19

#	Program:	/corina/corina34_cracker 3.40 0067  02.08.2006

@<TRIPOS>MOLECULE
ASD08830003
  47   49    0    0    0
SMALL
NO_CHARGES


@<TRIPOS>ATOM
   1 C1             0.3019     0.2590    -0.8161 C.ar    
   2 C2             0.5147    -1.1153    -0.8986 C.ar    
   3 C3             1.7677    -1.6390    -0.7948 C.ar    
   4 C4             2.8655    -0.7851    -0.6022 C.ar    
   5 C5             2.6495     0.6144    -0.5187 C.ar    
   6 C6             1.3411     1.1183    -0.6298 C.ar    
   7 C7             4.1721    -1.2974    -0.4908 C.ar    
   8 C8             5.2186    -0.4550    -0.3041 C.ar    
   9 C9             5.0186     0.9372    -0.2194 C.ar    
  10 C10            3.7421     1.4722    -0.3260 C.ar    
  11 C11            6.1699     1.8294    -0.0163 C.2     
  12 C12            7.5699     1.2730    -0.0522 C.3     
  13 C13            8.5773     2.4239    -0.0118 C.3     
  14 N14            8.6134     3.0891    -1.3211 N.3     
  15 C15            9.4998     4.2596    -1.2924 C.3     
  16 C16            7.2619     3.4573    -1.7618 C.3     
  17 C17            7.3222     4.0133    -3.1863 C.3     
  18 C18            8.2393     5.2392    -3.2121 C.3     
  19 C19            9.6269     4.8396    -2.7029 C.3     
  20 O20            5.9926     3.0129     0.1801 O.2     
  21 C21            7.7878     0.3619     1.1575 C.3     
  22 C22            7.7661     0.4684    -1.3386 C.3     
  23 H23           -0.7014     0.6486    -0.9058 H       
  24 H24           -0.3270    -1.7757    -1.0467 H       
  25 H25            1.9162    -2.7067    -0.8601 H       
  26 H26            1.1619     2.1816    -0.5684 H       
  27 H27            4.3412    -2.3622    -0.5537 H       
  28 H28            6.2176    -0.8564    -0.2190 H       
  29 H29            3.5917     2.5396    -0.2606 H       
  30 H30            8.2786     3.1416     0.7522 H       
  31 H31            9.5668     2.0325     0.2243 H       
  32 H32            9.0832     5.0144    -0.6255 H       
  33 H33           10.4844     3.9608    -0.9325 H       
  34 H34            6.6210     2.5758    -1.7428 H       
  35 H35            6.8558     4.2159    -1.0927 H       
  36 H36            7.7154     3.2505    -3.8584 H       
  37 H37            6.3210     4.3010    -3.5073 H       
  38 H38            8.3195     5.6127    -4.2329 H       
  39 H39            7.8258     6.0170    -2.5701 H       
  40 H40           10.2724     5.7175    -2.6785 H       
  41 H41           10.0563     4.0898    -3.3673 H       
  42 H42            7.1163    -0.4942     1.0931 H       
  43 H43            8.8206     0.0136     1.1687 H       
  44 H44            7.5818     0.9173     2.0725 H       
  45 H45            7.6529     1.1268    -2.1999 H       
  46 H46            8.7644     0.0307    -1.3447 H       
  47 H47            7.0209    -0.3256    -1.3878 H       
@<TRIPOS>BOND
   1    1    2 ar
   2    1    6 ar
   3    1   23 1
   4    2    3 ar
   5    2   24 1
   6    3    4 ar
   7    3   25 1
   8    4    5 ar
   9    4    7 ar
  10    5    6 ar
  11    5   10 ar
  12    6   26 1
  13    7    8 ar
  14    7   27 1
  15    8    9 ar
  16    8   28 1
  17    9   10 ar
  18    9   11 1
  19   10   29 1
  20   11   12 1
  21   11   20 2
  22   12   13 1
  23   12   21 1
  24   12   22 1
  25   13   14 1
  26   13   30 1
  27   13   31 1
  28   14   15 1
  29   14   16 1
  30   15   19 1
  31   15   32 1
  32   15   33 1
  33   16   17 1
  34   16   34 1
  35   16   35 1
  36   17   18 1
  37   17   36 1
  38   17   37 1
  39   18   19 1
  40   18   38 1
  41   18   39 1
  42   19   40 1
  43   19   41 1
  44   21   42 1
  45   21   43 1
  46   21   44 1
  47   22   45 1
  48   22   46 1
  49   22   47 1

#	End of record

