#	Name: ASD08590002
#	Creating user name:	WinNT
#	Creation time:	15. 06. 2019 21:19

#	Modifying user name:	WinNT
#	Modification time:	15. 06. 2019 21:19

#	Program:	/corina/corina34_cracker 3.40 0067  02.08.2006

@<TRIPOS>MOLECULE
ASD08590002
  48   50    0    0    0
SMALL
NO_CHARGES


@<TRIPOS>ATOM
   1 N1            -0.0162     1.3435     0.0094 N.am    
   2 C2             0.0017    -0.0038    -0.0205 C.2     
   3 C3            -1.4517    -0.4335     0.0017 C.3     
   4 N4            -2.1890     0.8410     0.0457 N.am    
   5 C5            -1.2658     1.8195     0.0521 C.2     
   6 C6            -3.5736     1.0018     0.0787 C.ar    
   7 C7            -4.1223     2.2785     0.1188 C.ar    
   8 C8            -4.4025    -0.1164     0.0657 C.ar    
   9 C9            -5.7697     0.0365     0.0972 C.ar    
  10 C10           -6.3278     1.3174     0.1429 C.ar    
  11 C11           -5.4921     2.4411     0.1515 C.ar    
  12 C12           -7.7923     1.4850     0.1763 C.2     
  13 O13           -8.2759     2.6000     0.2160 O.2     
  14 N14           -8.5949     0.4024     0.1627 N.am    
  15 F15           -6.0257     3.6814     0.1961 F       
  16 O16            0.9773    -0.7224    -0.0581 O.2     
  17 C17           -1.8017    -1.2143    -1.2667 C.3     
  18 C18           -1.7469    -1.2695     1.2487 C.3     
  19 C19            1.1301     2.1449     0.0028 C.ar    
  20 C20            2.3874     1.5576     0.0927 C.ar    
  21 C21            1.0099     3.5261    -0.0994 C.ar    
  22 C22            2.1364     4.3186    -0.1067 C.ar    
  23 C23            3.4013     3.7326    -0.0108 C.ar    
  24 C24            3.5183     2.3432     0.0869 C.ar    
  25 O25           -1.5368     3.0037     0.0853 O.2     
  26 C26          -10.0500     0.5689     0.1959 C.3     
  27 C27            4.5750     4.5531    -0.0181 C.1     
  28 N28            5.5060     5.2039    -0.0238 N.1     
  29 C29            4.8801     1.7062     0.1910 C.3     
  30 F30            4.7397     0.3169     0.2771 F       
  31 F31            5.6340     2.0294    -0.9422 F       
  32 F32            5.5308     2.1809     1.3349 F       
  33 H33           -3.4759     3.1437     0.1247 H       
  34 H34           -3.9717    -1.1061     0.0303 H       
  35 H35           -6.4110    -0.8323     0.0862 H       
  36 H36           -8.2091    -0.4870     0.1310 H       
  37 H37           -1.1900    -2.1150    -1.3193 H       
  38 H38           -2.8555    -1.4916    -1.2435 H       
  39 H39           -1.6087    -0.5925    -2.1409 H       
  40 H40           -1.5154    -0.6864     2.1401 H       
  41 H41           -2.8010    -1.5465     1.2593 H       
  42 H42           -1.1344    -2.1710     1.2351 H       
  43 H43            2.4770     0.4839     0.1675 H       
  44 H44            0.0319     3.9782    -0.1735 H       
  45 H45            2.0423     5.3915    -0.1868 H       
  46 H46          -10.3698     1.1446    -0.6727 H       
  47 H47          -10.5283    -0.4105     0.1788 H       
  48 H48          -10.3347     1.0964     1.1063 H       
@<TRIPOS>BOND
   1    1    2 am
   2    1   19 1
   3    1    5 am
   4    2    3 1
   5    2   16 2
   6    3    4 1
   7    3   17 1
   8    3   18 1
   9    4    5 am
  10    4    6 1
  11    5   25 2
  12    6    7 ar
  13    6    8 ar
  14    7   11 ar
  15    7   33 1
  16    8    9 ar
  17    8   34 1
  18    9   10 ar
  19    9   35 1
  20   10   11 ar
  21   10   12 1
  22   11   15 1
  23   12   13 2
  24   12   14 am
  25   14   26 1
  26   14   36 1
  27   17   37 1
  28   17   38 1
  29   17   39 1
  30   18   40 1
  31   18   41 1
  32   18   42 1
  33   19   20 ar
  34   19   21 ar
  35   20   24 ar
  36   20   43 1
  37   21   22 ar
  38   21   44 1
  39   22   23 ar
  40   22   45 1
  41   23   24 ar
  42   23   27 1
  43   24   29 1
  44   26   46 1
  45   26   47 1
  46   26   48 1
  47   27   28 3
  48   29   30 1
  49   29   31 1
  50   29   32 1

#	End of record

