#	Name: ASD03490015
#	Creating user name:	WinNT
#	Creation time:	15. 06. 2019 20:42

#	Modifying user name:	WinNT
#	Modification time:	15. 06. 2019 20:42

#	Program:	/corina/corina34_cracker 3.40 0067  02.08.2006

@<TRIPOS>MOLECULE
ASD03490015
  78   82    0    0    0
SMALL
NO_CHARGES


@<TRIPOS>ATOM
   1 C1            -0.0164     1.3570     0.0095 C.2     
   2 C2             0.0021    -0.0041     0.0020 C.2     
   3 C3            -1.3221    -0.4512     0.0128 C.2     
   4 N4            -2.1123     0.5919     0.0262 N.2     
   5 N5            -1.3201     1.7472     0.0300 N.pl3   
   6 N6             1.0964     2.1973     0.0034 N.am    
   7 C7             2.3374     1.6720    -0.0118 C.2     
   8 C8             3.5400     2.5801    -0.0184 C.3     
   9 C9             3.5917     3.3546     1.2733 C.ar    
  10 C10            2.8612     4.5472     1.4100 C.ar    
  11 C11            2.9210     5.2631     2.6314 C.ar    
  12 C12            3.7123     4.7643     3.6859 C.ar    
  13 C13            4.4079     3.6005     3.5141 C.ar    
  14 C14            4.3421     2.8983     2.3140 C.ar    
  15 C15            2.0724     5.0443     0.3582 C.ar    
  16 C16            1.3786     6.2031     0.5265 C.ar    
  17 C17            1.4382     6.9069     1.7278 C.ar    
  18 C18            2.1910     6.4548     2.7681 C.ar    
  19 O19            3.7833     5.4357     4.8642 O.3     
  20 C20            4.6057     4.8681     5.8857 C.3     
  21 C21            4.5609     5.7579     7.1296 C.3     
  22 N22            3.1998     5.7589     7.6822 N.3     
  23 C23            3.1676     6.4050     9.0023 C.3     
  24 C24            1.7248     6.4376     9.5135 C.3     
  25 O25            1.2072     5.1049     9.5503 O.3     
  26 C26            1.2231     4.4459     8.2811 C.3     
  27 C27            2.6607     4.3932     7.7574 C.3     
  28 C28           -1.7652    -1.8916     0.0090 C.3     
  29 C29           -1.5444    -2.4968     1.3968 C.3     
  30 C30           -3.2506    -1.9673    -0.3499 C.3     
  31 C31           -0.9506    -2.6731    -1.0237 C.3     
  32 O32            2.4864     0.4683    -0.0201 O.2     
  33 C33           -1.7867     3.0687     0.0442 C.ar    
  34 C34           -2.9510     3.4026    -0.6344 C.ar    
  35 C35           -3.4083     4.7058    -0.6186 C.ar    
  36 C36           -2.7074     5.6776     0.0718 C.ar    
  37 C37           -1.5472     5.3482     0.7482 C.ar    
  38 C38           -1.0885     4.0454     0.7416 C.ar    
  39 C39           -3.2088     7.0987     0.0866 C.3     
  40 O40            4.7277     1.7968    -0.1519 O.3     
  41 H41            0.8836    -0.6278    -0.0104 H       
  42 H42            0.9772     3.1599     0.0101 H       
  43 H43            3.4666     3.2743    -0.8556 H       
  44 H44            5.0141     3.2183     4.3221 H       
  45 H45            4.9014     1.9811     2.2037 H       
  46 H46            2.0174     4.5098    -0.5786 H       
  47 H47            0.7732     6.5830    -0.2832 H       
  48 H48            0.8785     7.8243     1.8352 H       
  49 H49            2.2272     7.0103     3.6936 H       
  50 H50            4.2380     3.8733     6.1372 H       
  51 H51            5.6325     4.7961     5.5273 H       
  52 H52            5.2559     5.3739     7.8763 H       
  53 H53            4.8439     6.7752     6.8590 H       
  54 H54            3.7879     5.8410     9.6989 H       
  55 H55            3.5471     7.4234     8.9185 H       
  56 H56            1.7036     6.8641    10.5164 H       
  57 H57            1.1156     7.0464     8.8455 H       
  58 H58            0.8389     3.4320     8.3926 H       
  59 H59            0.5992     4.9968     7.5772 H       
  60 H60            2.6702     3.9430     6.7647 H       
  61 H61            3.2729     3.7970     8.4340 H       
  62 H62           -2.1248    -1.9400     2.1325 H       
  63 H63           -1.8649    -3.5386     1.3940 H       
  64 H64           -0.4862    -2.4429     1.6524 H       
  65 H65           -3.4080    -1.5362    -1.3386 H       
  66 H66           -3.5711    -3.0091    -0.3526 H       
  67 H67           -3.8310    -1.4106     0.3858 H       
  68 H68            0.1076    -2.6192    -0.7681 H       
  69 H69           -1.2711    -3.7149    -1.0265 H       
  70 H70           -1.1079    -2.2420    -2.0124 H       
  71 H71           -3.4985     2.6442    -1.1743 H       
  72 H72           -4.3139     4.9662    -1.1462 H       
  73 H73           -1.0016     6.1095     1.2859 H       
  74 H74           -0.1823     3.7887     1.2701 H       
  75 H75           -3.8798     7.2384     0.9342 H       
  76 H76           -2.3637     7.7812     0.1758 H       
  77 H77           -3.7457     7.3042    -0.8395 H       
  78 H78            4.8582     1.1557     0.5601 H       
@<TRIPOS>BOND
   1    1    2 2
   2    1    6 1
   3    1    5 1
   4    2    3 1
   5    2   41 1
   6    3    4 2
   7    3   28 1
   8    4    5 1
   9    5   33 1
  10    6    7 am
  11    6   42 1
  12    7    8 1
  13    7   32 2
  14    8    9 1
  15    8   40 1
  16    8   43 1
  17    9   10 ar
  18    9   14 ar
  19   10   11 ar
  20   10   15 ar
  21   11   12 ar
  22   11   18 ar
  23   12   13 ar
  24   12   19 1
  25   13   14 ar
  26   13   44 1
  27   14   45 1
  28   15   16 ar
  29   15   46 1
  30   16   17 ar
  31   16   47 1
  32   17   18 ar
  33   17   48 1
  34   18   49 1
  35   19   20 1
  36   20   21 1
  37   20   50 1
  38   20   51 1
  39   21   22 1
  40   21   52 1
  41   21   53 1
  42   22   23 1
  43   22   27 1
  44   23   24 1
  45   23   54 1
  46   23   55 1
  47   24   25 1
  48   24   56 1
  49   24   57 1
  50   25   26 1
  51   26   27 1
  52   26   58 1
  53   26   59 1
  54   27   60 1
  55   27   61 1
  56   28   29 1
  57   28   30 1
  58   28   31 1
  59   29   62 1
  60   29   63 1
  61   29   64 1
  62   30   65 1
  63   30   66 1
  64   30   67 1
  65   31   68 1
  66   31   69 1
  67   31   70 1
  68   33   34 ar
  69   33   38 ar
  70   34   35 ar
  71   34   71 1
  72   35   36 ar
  73   35   72 1
  74   36   37 ar
  75   36   39 1
  76   37   38 ar
  77   37   73 1
  78   38   74 1
  79   39   75 1
  80   39   76 1
  81   39   77 1
  82   40   78 1

#	End of record

