#	Name: ASD02408097
#	Creating user name:	WinNT
#	Creation time:	15. 06. 2019 20:21

#	Modifying user name:	WinNT
#	Modification time:	15. 06. 2019 20:21

#	Program:	/corina/corina34_cracker 3.40 0067  02.08.2006

@<TRIPOS>MOLECULE
ASD02408097
  44   46    0    0    0
SMALL
NO_CHARGES


@<TRIPOS>ATOM
   1 C1             0.1041     1.1844     0.0330 C.ar    
   2 C2             0.1867    -0.1945     0.0798 C.ar    
   3 C3             1.3617     2.0145     0.0174 C.3     
   4 C4             1.6991     2.4417     1.4227 C.2     
   5 N5             2.7954     3.1971     1.6282 N.am    
   6 N6             0.9163     2.0719     2.3997 N.2     
   7 C7             1.1662     2.4222     3.6678 C.2     
   8 C8             2.2964     3.2056     3.9543 C.2     
   9 C9             3.1271     3.5979     2.8735 C.2     
  10 N10            0.3263     2.0202     4.6772 N.pl3   
  11 C11            0.7347     1.6918     6.0552 C.3     
  12 O12            4.1203     4.2779     3.0656 O.2     
  13 C13           -0.9671    -0.9560     0.0942 C.ar    
  14 C14           -2.2032    -0.3385     0.0621 C.ar    
  15 C15           -2.2859     1.0408     0.0162 C.ar    
  16 C16           -1.1324     1.8019    -0.0053 C.ar    
  17 C17           -1.2225     3.3054    -0.0553 C.3     
  18 C18           -0.3733     0.7462     6.5825 C.3     
  19 C19           -1.6421     1.3616     5.9352 C.3     
  20 C20           -1.1300     1.8522     4.5644 C.3     
  21 C21           -1.7889     3.1868     4.2101 C.3     
  22 O22           -1.5932     4.1136     5.2800 O.3     
  23 C23            2.5981     3.6009     5.2972 C.1     
  24 N24            2.8375     3.9145     6.3625 N.1     
  25 H25            1.1526    -0.6770     0.1048 H       
  26 H26            2.1822     1.4235    -0.3895 H       
  27 H27            1.2069     2.8970    -0.6033 H       
  28 H28            3.3506     3.4546     0.8756 H       
  29 H29            1.6987     1.1830     6.0541 H       
  30 H30            0.7825     2.5957     6.6623 H       
  31 H31           -0.9025    -2.0335     0.1300 H       
  32 H32           -3.1045    -0.9334     0.0726 H       
  33 H33           -3.2518     1.5233    -0.0092 H       
  34 H34           -1.2475     3.7019     0.9597 H       
  35 H35           -0.3542     3.7041    -0.5799 H       
  36 H36           -2.1309     3.5976    -0.5820 H       
  37 H37           -0.2136    -0.2746     6.2354 H       
  38 H38           -0.4329     0.7825     7.6702 H       
  39 H39           -2.4174     0.6056     5.8117 H       
  40 H40           -2.0097     2.1994     6.5278 H       
  41 H41           -1.3543     1.1106     3.7978 H       
  42 H42           -1.3399     3.5832     3.2993 H       
  43 H43           -2.8565     3.0343     4.0522 H       
  44 H44           -1.9856     4.9834     5.1236 H       
@<TRIPOS>BOND
   1    1    2 ar
   2    1    3 1
   3    1   16 ar
   4    2   13 ar
   5    2   25 1
   6    3    4 1
   7    3   26 1
   8    3   27 1
   9    4    5 1
  10    4    6 2
  11    5    9 am
  12    5   28 1
  13    6    7 1
  14    7    8 2
  15    7   10 1
  16    8    9 1
  17    8   23 1
  18    9   12 2
  19   10   11 1
  20   10   20 1
  21   11   18 1
  22   11   29 1
  23   11   30 1
  24   13   14 ar
  25   13   31 1
  26   14   15 ar
  27   14   32 1
  28   15   16 ar
  29   15   33 1
  30   16   17 1
  31   17   34 1
  32   17   35 1
  33   17   36 1
  34   18   19 1
  35   18   37 1
  36   18   38 1
  37   19   20 1
  38   19   39 1
  39   19   40 1
  40   20   21 1
  41   20   41 1
  42   21   22 1
  43   21   42 1
  44   21   43 1
  45   22   44 1
  46   23   24 3

#	End of record

