#	Name: ASD01917698
#	Creating user name:	WinNT
#	Creation time:	15. 06. 2019 20:09

#	Modifying user name:	WinNT
#	Modification time:	15. 06. 2019 20:09

#	Program:	/corina/corina34_cracker 3.40 0067  02.08.2006

@<TRIPOS>MOLECULE
ASD01917698
  43   45    0    0    0
SMALL
NO_CHARGES


@<TRIPOS>ATOM
   1 C1            -0.0184     1.5028     0.0103 C.3     
   2 C2             0.0021    -0.0041     0.0020 C.ar    
   3 N3            -0.9240    -0.6689     0.6664 N.ar    
   4 C4            -0.9520    -1.9849     0.6920 C.ar    
   5 C5             0.0121    -2.7290     0.0068 C.ar    
   6 C6             1.0082    -2.0502    -0.7076 C.ar    
   7 C7             0.9881    -0.6668    -0.7066 C.ar    
   8 C8            -0.0137    -4.1604     0.0394 C.1     
   9 C9            -0.0348    -5.3339     0.0662 C.1     
  10 C10           -0.0606    -6.7653     0.0988 C.ar    
  11 C11           -1.0580    -7.4334     0.8141 C.ar    
  12 C12           -1.0764    -8.8122     0.8410 C.ar    
  13 C13           -0.1105    -9.5339     0.1620 C.ar    
  14 C14            0.8805    -8.8792    -0.5481 C.ar    
  15 C15            0.9080    -7.5008    -0.5892 C.ar    
  16 C16            1.3922     2.0171    -0.0004 C.2     
  17 N17            1.7720     3.1749    -0.5311 N.am    
  18 C18            0.8902     4.0583    -1.2849 C.3     
  19 C19           -0.3781     4.3553    -0.4771 C.3     
  20 C20           -1.4498     3.3391    -0.8724 C.3     
  21 C21           -0.7834     2.0040    -1.2173 C.3     
  22 O22            2.2468     1.3262     0.5127 O.2     
  23 C23            3.1648     3.5901    -0.3465 C.3     
  24 H24           -0.5209     1.8504     0.9129 H       
  25 H25           -1.7263    -2.4935     1.2472 H       
  26 H26            1.7717    -2.5928    -1.2452 H       
  27 H27            1.7371    -0.1099    -1.2500 H       
  28 H28           -1.8123    -6.8715     1.3448 H       
  29 H29           -1.8464    -9.3299     1.3937 H       
  30 H30           -0.1300   -10.6134     0.1866 H       
  31 H31            1.6313    -9.4489    -1.0753 H       
  32 H32            1.6818    -6.9912    -1.1440 H       
  33 H33            1.4102     4.9924    -1.4972 H       
  34 H34            0.6158     3.5787    -2.2245 H       
  35 H35           -0.1639     4.2676     0.5881 H       
  36 H36           -0.7278     5.3634    -0.7001 H       
  37 H37           -2.1400     3.1967    -0.0408 H       
  38 H38           -1.9971     3.7071    -1.7402 H       
  39 H39           -0.0907     2.1450    -2.0470 H       
  40 H40           -1.5458     1.2761    -1.4949 H       
  41 H41            3.6956     2.8343     0.2322 H       
  42 H42            3.6420     3.7039    -1.3199 H       
  43 H43            3.1929     4.5411     0.1853 H       
@<TRIPOS>BOND
   1    1    2 1
   2    1   16 1
   3    1   21 1
   4    1   24 1
   5    2    3 ar
   6    2    7 ar
   7    3    4 ar
   8    4    5 ar
   9    4   25 1
  10    5    6 ar
  11    5    8 1
  12    6    7 ar
  13    6   26 1
  14    7   27 1
  15    8    9 3
  16    9   10 1
  17   10   11 ar
  18   10   15 ar
  19   11   12 ar
  20   11   28 1
  21   12   13 ar
  22   12   29 1
  23   13   14 ar
  24   13   30 1
  25   14   15 ar
  26   14   31 1
  27   15   32 1
  28   16   17 am
  29   16   22 2
  30   17   18 1
  31   17   23 1
  32   18   19 1
  33   18   33 1
  34   18   34 1
  35   19   20 1
  36   19   35 1
  37   19   36 1
  38   20   21 1
  39   20   37 1
  40   20   38 1
  41   21   39 1
  42   21   40 1
  43   23   41 1
  44   23   42 1
  45   23   43 1

#	End of record

