#	Name: ASD08178350
#	Creating user name:	WinNT
#	Creation time:	15. 06. 2019 21:18

#	Modifying user name:	WinNT
#	Modification time:	15. 06. 2019 21:18

#	Program:	/corina/corina34_cracker 3.40 0067  02.08.2006

@<TRIPOS>MOLECULE
ASD08178350
  61   64    0    0    0
SMALL
NO_CHARGES


@<TRIPOS>ATOM
   1 N1            -0.0168     1.3902     0.0097 N.am    
   2 C2            -0.2173     0.0103     0.0231 C.ar    
   3 C3             0.8683    -0.8557    -0.0926 C.ar    
   4 N4            -1.4399    -0.4832     0.1513 N.ar    
   5 N5            -1.6667    -1.7463     0.1686 N.ar    
   6 C6            -0.7002    -2.6368     0.0602 C.ar    
   7 C7             0.6159    -2.2190    -0.0733 C.ar    
   8 C8            -1.0247    -4.1082     0.0874 C.3     
   9 C9            -1.8115    -4.4335     1.3586 C.3     
  10 C10           -2.1410    -5.9273     1.3862 C.3     
  11 C11           -2.9278    -6.2527     2.6574 C.3     
  12 C12           -3.2523    -7.7241     2.6845 C.2     
  13 N13           -2.5213    -8.6581     3.2049 N.2     
  14 N14           -2.9690    -9.8359     3.1257 N.2     
  15 C15           -4.1130   -10.0077     2.5350 C.2     
  16 S16           -4.6995    -8.4828     2.0200 S.3     
  17 N17           -4.7575   -11.2270     2.3553 N.am    
  18 C18           -4.1929   -12.3617     2.8139 C.2     
  19 C19           -4.8913   -13.6828     2.6192 C.3     
  20 O20           -3.1229   -12.3195     3.3832 O.2     
  21 C21           -4.0568   -14.7853     3.2184 C.ar    
  22 C22           -4.2372   -15.1472     4.5402 C.ar    
  23 C23           -3.4725   -16.1583     5.0916 C.ar    
  24 C24           -2.5256   -16.8088     4.3198 C.ar    
  25 C25           -2.3451   -16.4455     2.9946 C.ar    
  26 C26           -3.1153   -15.4376     2.4441 C.ar    
  27 C27           -1.0750     2.2250     0.0167 C.2     
  28 C28           -0.8601     3.7130     0.1198 C.3     
  29 O29           -2.2000     1.7786    -0.0599 O.2     
  30 C30           -2.1935     4.4152     0.1067 C.ar    
  31 C31           -2.8565     4.6619     1.2943 C.ar    
  32 C32           -2.7509     4.8175    -1.0926 C.ar    
  33 C33           -3.9740     5.4616    -1.1047 C.ar    
  34 C34           -4.6398     5.7029     0.0824 C.ar    
  35 C35           -4.0796     5.3059     1.2822 C.ar    
  36 F36           -1.7775   -17.7967     4.8579 F       
  37 Cl37          -1.1576   -17.2596     2.0247 Cl      
  38 H38            0.8842     1.7494    -0.0006 H       
  39 H39            1.8745    -0.4770    -0.1944 H       
  40 H40            1.4199    -2.9345    -0.1636 H       
  41 H41           -1.6240    -4.3643    -0.7864 H       
  42 H42           -0.0997    -4.6845     0.0751 H       
  43 H43           -1.2123    -4.1774     2.2323 H       
  44 H44           -2.7366    -3.8571     1.3708 H       
  45 H45           -2.7402    -6.1835     0.5124 H       
  46 H46           -1.2159    -6.5037     1.3739 H       
  47 H47           -2.3286    -5.9966     3.5311 H       
  48 H48           -3.8529    -5.6763     2.6696 H       
  49 H49           -5.6133   -11.2607     1.9000 H       
  50 H50           -5.8640   -13.6554     3.1104 H       
  51 H51           -5.0274   -13.8683     1.5537 H       
  52 H52           -4.9758   -14.6395     5.1427 H       
  53 H53           -3.6138   -16.4403     6.1245 H       
  54 H54           -2.9753   -15.1539     1.4114 H       
  55 H55           -0.3385     3.9413     1.0493 H       
  56 H56           -0.2620     4.0532    -0.7255 H       
  57 H57           -2.4191     4.3512     2.2316 H       
  58 H58           -2.2307     4.6290    -2.0201 H       
  59 H59           -4.4092     5.7766    -2.0416 H       
  60 H60           -5.5952     6.2064     0.0730 H       
  61 H61           -4.5998     5.4945     2.2097 H       
@<TRIPOS>BOND
   1    1    2 1
   2    1   27 am
   3    1   38 1
   4    2    3 ar
   5    2    4 ar
   6    3    7 ar
   7    3   39 1
   8    4    5 ar
   9    5    6 ar
  10    6    7 ar
  11    6    8 1
  12    7   40 1
  13    8    9 1
  14    8   41 1
  15    8   42 1
  16    9   10 1
  17    9   43 1
  18    9   44 1
  19   10   11 1
  20   10   45 1
  21   10   46 1
  22   11   12 1
  23   11   47 1
  24   11   48 1
  25   12   13 2
  26   12   16 1
  27   13   14 1
  28   14   15 2
  29   15   16 1
  30   15   17 1
  31   17   18 am
  32   17   49 1
  33   18   19 1
  34   18   20 2
  35   19   21 1
  36   19   50 1
  37   19   51 1
  38   21   22 ar
  39   21   26 ar
  40   22   23 ar
  41   22   52 1
  42   23   24 ar
  43   23   53 1
  44   24   25 ar
  45   24   36 1
  46   25   26 ar
  47   25   37 1
  48   26   54 1
  49   27   28 1
  50   27   29 2
  51   28   30 1
  52   28   55 1
  53   28   56 1
  54   30   31 ar
  55   30   32 ar
  56   31   35 ar
  57   31   57 1
  58   32   33 ar
  59   32   58 1
  60   33   34 ar
  61   33   59 1
  62   34   35 ar
  63   34   60 1
  64   35   61 1

#	End of record

