#	Name: ASD05430722
#	Creating user name:	WinNT
#	Creation time:	15. 06. 2019 21:00

#	Modifying user name:	WinNT
#	Modification time:	15. 06. 2019 21:00

#	Program:	/corina/corina34_cracker 3.40 0067  02.08.2006

@<TRIPOS>MOLECULE
ASD05430722
  59   63    0    0    0
SMALL
NO_CHARGES


@<TRIPOS>ATOM
   1 C1            -0.0169     1.3964     0.0097 C.2     
   2 C2             0.0021    -0.0041     0.0020 C.2     
   3 C3            -1.2134    -0.7099     0.0102 C.2     
   4 N4            -2.3532    -0.0798     0.0249 N.2     
   5 N5            -2.4335     1.3150     0.0332 N.am    
   6 C6            -1.3143     2.0715     0.0311 C.2     
   7 O7            -1.3842     3.2891     0.0387 O.2     
   8 C8            -3.7465     1.9646     0.0496 C.3     
   9 C9            -4.5357     1.5509    -1.1941 C.3     
  10 C10           -4.4996     1.5439     1.2853 C.ar    
  11 C11           -5.2554     2.4681     1.9822 C.ar    
  12 C12           -5.9462     2.0823     3.1157 C.ar    
  13 C13           -5.8814     0.7722     3.5522 C.ar    
  14 C14           -5.1263    -0.1521     2.8548 C.ar    
  15 C15           -4.4390     0.2327     1.7188 C.ar    
  16 N16            1.2574     1.8189    -0.0002 N.2     
  17 C17            2.0626     0.7821    -0.0134 C.2     
  18 N18            1.3232    -0.3703    -0.0126 N.pl3   
  19 C19            3.5391     0.8486    -0.0272 C.ar    
  20 C20            4.1832     2.0869    -0.0262 C.ar    
  21 C21            5.5647     2.1444    -0.0386 C.ar    
  22 C22            6.3108     0.9669    -0.0520 C.ar    
  23 C23            5.6690    -0.2645    -0.0530 C.ar    
  24 C24            4.2920    -0.3273    -0.0354 C.ar    
  25 N25            7.7112     1.0260    -0.0651 N.pl3   
  26 C26            8.4803     1.7664    -0.9049 C.2     
  27 N27            9.7350     1.5597    -0.6103 N.2     
  28 C28            9.8148     0.6943     0.4112 C.2     
  29 C29            8.5631     0.3521     0.7713 C.2     
  30 C30           11.0855     0.1954     1.0496 C.3     
  31 O31            6.1951     3.3489    -0.0381 O.3     
  32 C32            5.3680     4.5141    -0.0244 C.3     
  33 S33           -6.7849     0.2673     5.0370 Du      
  34 F34           -7.3015    -1.0528     4.2738 F       
  35 F35           -7.5886    -0.1818     6.3578 F       
  36 F36           -6.2683     1.5874     5.8003 F       
  37 F37           -8.0808     1.0721     4.5222 F       
  38 F38           -5.4890    -0.5375     5.5519 F       
  39 H39           -1.2020    -1.7898     0.0040 H       
  40 H40           -3.6164     3.0468     0.0542 H       
  41 H41           -4.6658     0.4687    -1.1986 H       
  42 H42           -5.5127     2.0342    -1.1819 H       
  43 H43           -3.9910     1.8552    -2.0879 H       
  44 H44           -5.3060     3.4916     1.6412 H       
  45 H45           -6.5361     2.8044     3.6605 H       
  46 H46           -5.0755    -1.1756     3.1960 H       
  47 H47           -3.8491    -0.4895     1.1740 H       
  48 H48            1.6694    -1.2764    -0.0205 H       
  49 H49            3.6038     2.9982    -0.0161 H       
  50 H50            6.2499    -1.1749    -0.0635 H       
  51 H51            3.7954    -1.2863    -0.0362 H       
  52 H52            8.1148     2.4172    -1.6855 H       
  53 H53            8.2841    -0.3280     1.5624 H       
  54 H54           11.3648     0.8576     1.8690 H       
  55 H55           10.9276    -0.8121     1.4344 H       
  56 H56           11.8833     0.1797     0.3070 H       
  57 H57            4.7305     4.5176    -0.9085 H       
  58 H58            4.7469     4.5083     0.8714 H       
  59 H59            5.9956     5.4053    -0.0255 H       
@<TRIPOS>BOND
   1    1    2 2
   2    1   16 1
   3    1    6 1
   4    2    3 1
   5    2   18 1
   6    3    4 2
   7    3   39 1
   8    4    5 1
   9    5    6 am
  10    5    8 1
  11    6    7 2
  12    8    9 1
  13    8   10 1
  14    8   40 1
  15    9   41 1
  16    9   42 1
  17    9   43 1
  18   10   11 ar
  19   10   15 ar
  20   11   12 ar
  21   11   44 1
  22   12   13 ar
  23   12   45 1
  24   13   14 ar
  25   13   33 1
  26   14   15 ar
  27   14   46 1
  28   15   47 1
  29   16   17 2
  30   17   18 1
  31   17   19 1
  32   18   48 1
  33   19   20 ar
  34   19   24 ar
  35   20   21 ar
  36   20   49 1
  37   21   22 ar
  38   21   31 1
  39   22   23 ar
  40   22   25 1
  41   23   24 ar
  42   23   50 1
  43   24   51 1
  44   25   26 1
  45   25   29 1
  46   26   27 2
  47   26   52 1
  48   27   28 1
  49   28   29 2
  50   28   30 1
  51   29   53 1
  52   30   54 1
  53   30   55 1
  54   30   56 1
  55   31   32 1
  56   32   57 1
  57   32   58 1
  58   32   59 1
  59   33   34 1
  60   33   35 1
  61   33   36 1
  62   33   37 1
  63   33   38 1

#	End of record

