#	Name: ASD04230166
#	Creating user name:	WinNT
#	Creation time:	15. 06. 2019 20:48

#	Modifying user name:	WinNT
#	Modification time:	15. 06. 2019 20:48

#	Program:	/corina/corina34_cracker 3.40 0067  02.08.2006

@<TRIPOS>MOLECULE
ASD04230166
  48   52    0    0    0
SMALL
NO_CHARGES


@<TRIPOS>ATOM
   1 C1             0.1882     1.7766    -0.9305 C.ar    
   2 C2             0.2937     0.5448    -1.5603 C.ar    
   3 C3             1.4919    -0.1075    -1.6147 C.ar    
   4 C4             2.6269     0.4634    -1.0208 C.ar    
   5 C5             2.5327     1.7267    -0.4093 C.ar    
   6 C6             1.2986     2.3716    -0.3583 C.ar    
   7 C7             3.8698    -0.2214    -1.0364 C.2     
   8 C8             4.9047     0.2920    -0.2659 C.2     
   9 C9             4.6166     1.4960     0.5348 C.2     
  10 O10            3.6357     2.3211     0.1052 O.3     
  11 C11            6.2344    -0.3401    -0.2487 C.2     
  12 N12            7.2189     0.1817     0.5095 N.am    
  13 O13            6.4443    -1.3332    -0.9189 O.2     
  14 C14            8.4439    -0.4790     0.6141 C.ar    
  15 C15            9.6209     0.2542     0.7209 C.ar    
  16 C16           10.8314    -0.3950     0.8243 C.ar    
  17 C17           10.8760    -1.7908     0.8218 C.ar    
  18 C18            9.6924    -2.5241     0.7145 C.ar    
  19 C19            8.4845    -1.8692     0.6171 C.ar    
  20 O20            1.1861     3.5819     0.2512 O.3     
  21 C21           -0.1101     4.1833     0.2649 C.3     
  22 O22            5.2418     1.7393     1.5499 O.2     
  23 C23           12.1730    -2.4904     0.9321 C.2     
  24 N24           13.3403    -1.9027     1.0374 N.2     
  25 C25           14.3163    -2.8397     1.1183 C.ar    
  26 C26           13.6906    -4.0975     1.0572 C.ar    
  27 N27           12.3361    -3.8497     0.9457 N.pl3   
  28 C28           15.7078    -2.7696     1.2407 C.ar    
  29 C29           16.4448    -3.9182     1.2996 C.ar    
  30 C30           15.8272    -5.1594     1.2389 C.ar    
  31 C31           14.4566    -5.2533     1.1191 C.ar    
  32 H32           -0.7679     2.2773    -0.8904 H       
  33 H33           -0.5799     0.0978    -2.0113 H       
  34 H34            1.5655    -1.0623    -2.1141 H       
  35 H35            4.0065    -1.1140    -1.6287 H       
  36 H36            7.0761     1.0165     0.9825 H       
  37 H37            9.5858     1.3336     0.7224 H       
  38 H38           11.7451     0.1748     0.9068 H       
  39 H39            9.7237    -3.6037     0.7119 H       
  40 H40            7.5688    -2.4357     0.5340 H       
  41 H41           -0.0602     5.1424     0.7804 H       
  42 H42           -0.4495     4.3385    -0.7592 H       
  43 H43           -0.8094     3.5278     0.7840 H       
  44 H44           11.6326    -4.5145     0.8822 H       
  45 H45           16.1989    -1.8088     1.2881 H       
  46 H46           17.5190    -3.8597     1.3941 H       
  47 H47           16.4242    -6.0582     1.2864 H       
  48 H48           13.9814    -6.2220     1.0722 H       
@<TRIPOS>BOND
   1    1    2 ar
   2    1    6 ar
   3    1   32 1
   4    2    3 ar
   5    2   33 1
   6    3    4 ar
   7    3   34 1
   8    4    5 ar
   9    4    7 1
  10    5    6 ar
  11    5   10 1
  12    6   20 1
  13    7    8 2
  14    7   35 1
  15    8    9 1
  16    8   11 1
  17    9   10 1
  18    9   22 2
  19   11   12 am
  20   11   13 2
  21   12   14 1
  22   12   36 1
  23   14   15 ar
  24   14   19 ar
  25   15   16 ar
  26   15   37 1
  27   16   17 ar
  28   16   38 1
  29   17   18 ar
  30   17   23 1
  31   18   19 ar
  32   18   39 1
  33   19   40 1
  34   20   21 1
  35   21   41 1
  36   21   42 1
  37   21   43 1
  38   23   24 2
  39   23   27 1
  40   24   25 1
  41   25   26 ar
  42   25   28 ar
  43   26   27 1
  44   26   31 ar
  45   27   44 1
  46   28   29 ar
  47   28   45 1
  48   29   30 ar
  49   29   46 1
  50   30   31 ar
  51   30   47 1
  52   31   48 1

#	End of record

