#	Name: ASD00111070
#	Creating user name:	WinNT
#	Creation time:	15. 06. 2019 18:30

#	Modifying user name:	WinNT
#	Modification time:	15. 06. 2019 18:30

#	Program:	/corina/corina34_cracker 3.40 0067  02.08.2006

@<TRIPOS>MOLECULE
ASD00111070
  39   40    0    0    0
SMALL
NO_CHARGES


@<TRIPOS>ATOM
   1 N1             0.2938     1.5591     0.0549 N.am    
   2 C2             0.1639     0.1070    -0.0171 C.3     
   3 C3             0.6302    -0.5204     1.3012 C.3     
   4 C4             2.1404    -0.6032     1.2906 C.ar    
   5 C5             2.8973     0.5382     1.3942 C.ar    
   6 C6             2.2276     1.8885     1.5199 C.3     
   7 C7             1.5788     2.2408     0.1755 C.3     
   8 C8             4.2783     0.4628     1.3854 C.ar    
   9 C9             4.8990    -0.7729     1.2712 C.ar    
  10 C10            4.1325    -1.9251     1.1661 C.ar    
  11 C11            2.7525    -1.8395     1.1765 C.ar    
  12 C12            0.1720     0.3491     2.4738 C.3     
  13 O13            6.2557    -0.8547     1.2617 O.3     
  14 C14            6.9804     0.3718     1.3733 C.3     
  15 C15            8.4823     0.0812     1.3445 C.3     
  16 Br16           4.9748    -3.6109     1.0094 Br      
  17 C17           -0.8264     2.3066     0.0019 C.2     
  18 O18           -1.9090     1.7701    -0.1031 O.2     
  19 C19           -0.7337     3.8091     0.0733 C.3     
  20 F20           -2.0178     4.3595    -0.0005 F       
  21 F21           -0.1350     4.1825     1.2813 F       
  22 F22            0.0376     4.2799    -0.9947 F       
  23 H23           -0.8790    -0.1553    -0.1946 H       
  24 H24            0.7764    -0.2716    -0.8354 H       
  25 H25            0.2097    -1.5213     1.3988 H       
  26 H26            1.4629     1.8467     2.2955 H       
  27 H27            2.9712     2.6431     1.7764 H       
  28 H28            2.2337     1.9262    -0.6370 H       
  29 H29            1.4242     3.3183     0.1190 H       
  30 H30            4.8710     1.3619     1.4669 H       
  31 H31            2.1538    -2.7347     1.0950 H       
  32 H32           -0.7894    -0.0114     2.8396 H       
  33 H33            0.9089     0.2958     3.2753 H       
  34 H34            0.0702     1.3824     2.1420 H       
  35 H35            6.7206     1.0244     0.5398 H       
  36 H36            6.7231     0.8618     2.3123 H       
  37 H37            9.0351     1.0168     1.4295 H       
  38 H38            8.7421    -0.5714     2.1779 H       
  39 H39            8.7396    -0.4088     0.4054 H       
@<TRIPOS>BOND
   1    1    2 1
   2    1    7 1
   3    1   17 am
   4    2    3 1
   5    2   23 1
   6    2   24 1
   7    3    4 1
   8    3   12 1
   9    3   25 1
  10    4    5 ar
  11    4   11 ar
  12    5    6 1
  13    5    8 ar
  14    6    7 1
  15    6   26 1
  16    6   27 1
  17    7   28 1
  18    7   29 1
  19    8    9 ar
  20    8   30 1
  21    9   10 ar
  22    9   13 1
  23   10   11 ar
  24   10   16 1
  25   11   31 1
  26   12   32 1
  27   12   33 1
  28   12   34 1
  29   13   14 1
  30   14   15 1
  31   14   35 1
  32   14   36 1
  33   15   37 1
  34   15   38 1
  35   15   39 1
  36   17   18 2
  37   17   19 1
  38   19   20 1
  39   19   21 1
  40   19   22 1

#	End of record

