#	Name: ASD01813366
#	Creating user name:	WinNT
#	Creation time:	15. 06. 2019 19:30

#	Modifying user name:	WinNT
#	Modification time:	15. 06. 2019 19:30

#	Program:	/corina/corina34_cracker 3.40 0067  02.08.2006

@<TRIPOS>MOLECULE
ASD01813366
  44   47    0    0    0
SMALL
NO_CHARGES


@<TRIPOS>ATOM
   1 C1            -0.0169     1.3972     0.0097 C.2     
   2 C2             0.0021    -0.0041     0.0020 C.2     
   3 C3             1.1986    -0.6593    -0.0129 C.2     
   4 C4             2.3918     0.0821    -0.0204 C.2     
   5 N5             2.3437     1.4497    -0.0122 N.am    
   6 C6             1.1421     2.0937     0.0024 C.2     
   7 C7             3.6227    -0.5889    -0.0356 C.2     
   8 C8             4.7877     0.1218    -0.0425 C.2     
   9 C9             4.7345     1.5280    -0.0346 C.2     
  10 C10            3.4812     2.1736    -0.0189 C.2     
  11 O11            3.4258     3.3917    -0.0123 O.2     
  12 C12            5.9703     2.3140    -0.0413 C.2     
  13 O13            5.9124     3.6618    -0.0337 O.3     
  14 O14            7.0487     1.7516    -0.0537 O.2     
  15 C15            3.6593    -2.0954    -0.0439 C.3     
  16 C16            3.7837    -2.5946    -1.4848 C.3     
  17 N17            3.8194    -4.0631    -1.4929 N.3     
  18 C18            2.5415    -4.6226    -1.0388 C.3     
  19 C19            2.5593    -6.1231    -1.1460 C.ar    
  20 C20            3.4860    -6.7865    -1.9233 C.ar    
  21 C21            4.5392    -6.0511    -2.7060 C.3     
  22 C22            4.1569    -4.5751    -2.8306 C.3     
  23 N23            1.6589    -6.8312    -0.4760 N.ar    
  24 C24            1.6427    -8.1460    -0.5483 C.ar    
  25 N25            2.5118    -8.8116    -1.2825 N.ar    
  26 C26            3.4385    -8.1724    -1.9773 C.ar    
  27 H27           -0.9605     1.9226     0.0170 H       
  28 H28           -0.9233    -0.5609     0.0082 H       
  29 H29            1.2282    -1.7389    -0.0187 H       
  30 H30            1.1156     3.1733     0.0087 H       
  31 H31            5.7393    -0.3889    -0.0536 H       
  32 H32            6.7544     4.1373    -0.0385 H       
  33 H33            4.5153    -2.4412     0.5356 H       
  34 H34            2.7412    -2.4836     0.3971 H       
  35 H35            2.9277    -2.2488    -2.0643 H       
  36 H36            4.7018    -2.2064    -1.9259 H       
  37 H37            2.3714    -4.3372    -0.0007 H       
  38 H38            1.7348    -4.2265    -1.6557 H       
  39 H39            5.4969    -6.1352    -2.1925 H       
  40 H40            4.6230    -6.4888    -3.7007 H       
  41 H41            3.2940    -4.4748    -3.4890 H       
  42 H42            4.9975    -4.0123    -3.2365 H       
  43 H43            0.8973    -8.6937     0.0092 H       
  44 H44            4.1489    -8.7216    -2.5774 H       
@<TRIPOS>BOND
   1    1    2 1
   2    1    6 2
   3    1   27 1
   4    2    3 2
   5    2   28 1
   6    3    4 1
   7    3   29 1
   8    4    5 1
   9    4    7 2
  10    5    6 1
  11    5   10 am
  12    6   30 1
  13    7    8 1
  14    7   15 1
  15    8    9 2
  16    8   31 1
  17    9   10 1
  18    9   12 1
  19   10   11 2
  20   12   13 1
  21   12   14 2
  22   13   32 1
  23   15   16 1
  24   15   33 1
  25   15   34 1
  26   16   17 1
  27   16   35 1
  28   16   36 1
  29   17   18 1
  30   17   22 1
  31   18   19 1
  32   18   37 1
  33   18   38 1
  34   19   20 ar
  35   19   23 ar
  36   20   21 1
  37   20   26 ar
  38   21   22 1
  39   21   39 1
  40   21   40 1
  41   22   41 1
  42   22   42 1
  43   23   24 ar
  44   24   25 ar
  45   24   43 1
  46   25   26 ar
  47   26   44 1

#	End of record

