#	Name: ASD00069314
#	Creating user name:	WinNT
#	Creation time:	15. 06. 2019 18:29

#	Modifying user name:	WinNT
#	Modification time:	15. 06. 2019 18:29

#	Program:	/corina/corina34_cracker 3.40 0067  02.08.2006

@<TRIPOS>MOLECULE
ASD00069314
  78   81    0    0    0
SMALL
NO_CHARGES


@<TRIPOS>ATOM
   1 N1             0.3928     2.5949    -0.2392 N.3     
   2 C2             1.1232     1.3354    -0.0480 C.3     
   3 C3             2.1334     1.4977     1.0901 C.3     
   4 C4             3.1078     2.6270     0.7439 C.3     
   5 C5             2.3178     3.9161     0.5022 C.3     
   6 C6             1.3022     3.6837    -0.6188 C.3     
   7 C7             4.0681     2.8317     1.8871 C.2     
   8 O8             3.9830     2.1454     2.8779 O.2     
   9 O9             5.0181     3.7764     1.8047 O.3     
  10 C10           -0.6305     2.4433    -1.1836 C.ar    
  11 C11           -0.3276     2.0587    -2.4834 C.ar    
  12 C12           -1.3410     1.9094    -3.4139 C.ar    
  13 C13           -2.6558     2.1427    -3.0533 C.ar    
  14 C14           -2.9652     2.5261    -1.7622 C.ar    
  15 C15           -1.9566     2.6724    -0.8204 C.ar    
  16 C16           -3.2926     3.9025     0.7182 C.2     
  17 O17           -3.8782     4.4147    -0.2167 O.2     
  18 N18           -2.2695     3.0553     0.4898 N.am    
  19 C19           -3.7018     4.2082     2.1011 C.2     
  20 N20           -3.1502     3.7208     3.1902 N.2     
  21 C21           -3.7820     4.2199     4.2600 C.2     
  22 C22           -4.7701     5.0544     3.8165 C.2     
  23 N23           -4.7152     5.0508     2.4660 N.pl3   
  24 C24           -5.5830     5.8076     1.5603 C.3     
  25 O25           -6.5176     6.5724     2.3243 O.3     
  26 C26           -7.4161     7.3517     1.5323 C.3     
  27 C27           -8.3656     8.1247     2.4498 C.3     
  28 Si28          -9.5370     9.1406     1.4171 Si      
  29 C29          -10.5241     8.0146     0.3088 C.3     
  30 C30          -10.6932    10.0819     2.5344 C.3     
  31 C31           -8.5652    10.3413     0.3757 C.3     
  32 C32           -2.1669     2.7942     7.3434 C.ar    
  33 C33           -2.4275     3.0455     6.0122 C.ar    
  34 C34           -3.4659     3.9195     5.6778 C.ar    
  35 C35           -4.1981     4.5031     6.7161 C.ar    
  36 C36           -3.8706     4.1967     8.0203 C.ar    
  37 N37           -2.8822     3.3660     8.2932 N.ar    
  38 C38           -1.0543     1.8491     7.7176 C.3     
  39 F39            0.9556     1.8309    -2.8393 F       
  40 C40            5.9079     3.9176     2.9433 C.3     
  41 H41            0.4192     0.5417     0.2018 H       
  42 H42            1.6497     1.0777    -0.9669 H       
  43 H43            1.6064     1.7419     2.0125 H       
  44 H44            2.6862     0.5675     1.2215 H       
  45 H45            3.6630     2.3656    -0.1570 H       
  46 H46            1.7936     4.1983     1.4153 H       
  47 H47            3.0023     4.7137     0.2135 H       
  48 H48            1.8279     3.4150    -1.5351 H       
  49 H49            0.7282     4.5955    -0.7837 H       
  50 H50           -1.1046     1.6103    -4.4243 H       
  51 H51           -3.4431     2.0251    -3.7832 H       
  52 H52           -3.9931     2.7079    -1.4849 H       
  53 H53           -1.7500     2.7108     1.2330 H       
  54 H54           -5.4612     5.6138     4.4296 H       
  55 H55           -4.9764     6.4780     0.9515 H       
  56 H56           -6.1225     5.1167     0.9124 H       
  57 H57           -6.8475     8.0542     0.9229 H       
  58 H58           -7.9936     6.6929     0.8838 H       
  59 H59           -8.9342     7.4222     3.0591 H       
  60 H60           -7.7880     8.7835     3.0983 H       
  61 H61          -11.0927     7.3121     0.9181 H       
  62 H62          -11.2095     8.6090    -0.2954 H       
  63 H63           -9.8477     7.4639    -0.3449 H       
  64 H64          -10.1156    10.7407     3.1829 H       
  65 H65          -11.3785    10.6763     1.9302 H       
  66 H66          -11.2617     9.3794     3.1437 H       
  67 H67           -7.8888     9.7906    -0.2780 H       
  68 H68           -9.2506    10.9357    -0.2285 H       
  69 H69           -7.9877    11.0001     1.0242 H       
  70 H70           -1.8377     2.5743     5.2399 H       
  71 H71           -5.0080     5.1841     6.5000 H       
  72 H72           -4.4303     4.6428     8.8290 H       
  73 H73           -0.1246     2.4075     7.8268 H       
  74 H74           -1.2962     1.3583     8.6603 H       
  75 H75           -0.9374     1.0980     6.9364 H       
  76 H76            5.3257     4.1644     3.8311 H       
  77 H77            6.4402     2.9806     3.1069 H       
  78 H78            6.6260     4.7138     2.7468 H       
@<TRIPOS>BOND
   1    1    2 1
   2    1    6 1
   3    1   10 1
   4    2    3 1
   5    2   41 1
   6    2   42 1
   7    3    4 1
   8    3   43 1
   9    3   44 1
  10    4    5 1
  11    4    7 1
  12    4   45 1
  13    5    6 1
  14    5   46 1
  15    5   47 1
  16    6   48 1
  17    6   49 1
  18    7    8 2
  19    7    9 1
  20    9   40 1
  21   10   11 ar
  22   10   15 ar
  23   11   12 ar
  24   11   39 1
  25   12   13 ar
  26   12   50 1
  27   13   14 ar
  28   13   51 1
  29   14   15 ar
  30   14   52 1
  31   15   18 1
  32   16   17 2
  33   16   18 am
  34   16   19 1
  35   18   53 1
  36   19   20 2
  37   19   23 1
  38   20   21 1
  39   21   22 2
  40   21   34 1
  41   22   23 1
  42   22   54 1
  43   23   24 1
  44   24   25 1
  45   24   55 1
  46   24   56 1
  47   25   26 1
  48   26   27 1
  49   26   57 1
  50   26   58 1
  51   27   28 1
  52   27   59 1
  53   27   60 1
  54   28   29 1
  55   28   30 1
  56   28   31 1
  57   29   61 1
  58   29   62 1
  59   29   63 1
  60   30   64 1
  61   30   65 1
  62   30   66 1
  63   31   67 1
  64   31   68 1
  65   31   69 1
  66   32   33 ar
  67   32   37 ar
  68   32   38 1
  69   33   34 ar
  70   33   70 1
  71   34   35 ar
  72   35   36 ar
  73   35   71 1
  74   36   37 ar
  75   36   72 1
  76   38   73 1
  77   38   74 1
  78   38   75 1
  79   40   76 1
  80   40   77 1
  81   40   78 1

#	End of record

