#	Name: ASD01440116
#	Creating user name:	WinNT
#	Creation time:	15. 06. 2019 19:21

#	Modifying user name:	WinNT
#	Modification time:	15. 06. 2019 19:21

#	Program:	/corina/corina34_cracker 3.40 0067  02.08.2006

@<TRIPOS>MOLECULE
ASD01440116
  41   43    0    0    0
SMALL
NO_CHARGES


@<TRIPOS>ATOM
   1 C1             0.2289     1.1630    -0.2573 C.ar    
   2 C2             0.2519    -0.1907    -0.0086 C.ar    
   3 C3             1.3313    -0.7588     0.6588 C.ar    
   4 C4             2.3921     0.0368     1.0774 C.ar    
   5 C5             2.3774     1.3913     0.8329 C.ar    
   6 C6             1.2937     1.9670     0.1620 C.ar    
   7 C7             1.2736     3.4178    -0.1022 C.2     
   8 O8             0.5940     3.8615    -1.0076 O.2     
   9 C9             2.0793     4.3324     0.7335 C.ar    
  10 O10            1.3494    -2.0935     0.9026 O.3     
  11 C11            2.4886    -2.6115     1.5926 C.3     
  12 C12            2.3332    -4.0997     1.7722 C.2     
  13 N13            3.2932    -4.8065     2.4010 N.am    
  14 O14            1.3443    -4.6614     1.3508 O.2     
  15 C15            2.4577     5.5833     0.2403 C.ar    
  16 C16            3.2097     6.4319     1.0253 C.ar    
  17 C17            3.5896     6.0469     2.2992 C.ar    
  18 C18            3.2187     4.8087     2.7943 C.ar    
  19 C19            2.4610     3.9521     2.0217 C.ar    
  20 I20            3.8014     4.2371     4.7237 I       
  21 C21            3.1045    -6.1694     2.6570 C.ar    
  22 C22            4.1849    -7.0422     2.6589 C.ar    
  23 N23            4.0112    -8.3263     2.8990 N.ar    
  24 C24            2.8183    -8.8320     3.1454 C.ar    
  25 C25            1.6948    -8.0268     3.1607 C.ar    
  26 C26            1.8318    -6.6694     2.9191 C.ar    
  27 H27           -0.6080     1.6028    -0.7793 H       
  28 H28           -0.5700    -0.8123    -0.3320 H       
  29 H29            3.2285    -0.4086     1.5954 H       
  30 H30            3.2014     2.0087     1.1589 H       
  31 H31            3.3885    -2.4076     1.0124 H       
  32 H32            2.5700    -2.1343     2.5691 H       
  33 H33            4.1148    -4.3705     2.6762 H       
  34 H34            2.1623     5.8850    -0.7537 H       
  35 H35            3.5031     7.3992     0.6449 H       
  36 H36            4.1785     6.7155     2.9096 H       
  37 H37            2.1680     2.9882     2.4107 H       
  38 H38            5.1774    -6.6648     2.4612 H       
  39 H39            2.7177    -9.8900     3.3375 H       
  40 H40            0.7221    -8.4502     3.3631 H       
  41 H41            0.9719    -6.0160     2.9297 H       
@<TRIPOS>BOND
   1    1    2 ar
   2    1    6 ar
   3    1   27 1
   4    2    3 ar
   5    2   28 1
   6    3    4 ar
   7    3   10 1
   8    4    5 ar
   9    4   29 1
  10    5    6 ar
  11    5   30 1
  12    6    7 1
  13    7    8 2
  14    7    9 1
  15    9   15 ar
  16    9   19 ar
  17   10   11 1
  18   11   12 1
  19   11   31 1
  20   11   32 1
  21   12   13 am
  22   12   14 2
  23   13   21 1
  24   13   33 1
  25   15   16 ar
  26   15   34 1
  27   16   17 ar
  28   16   35 1
  29   17   18 ar
  30   17   36 1
  31   18   19 ar
  32   18   20 1
  33   19   37 1
  34   21   22 ar
  35   21   26 ar
  36   22   23 ar
  37   22   38 1
  38   23   24 ar
  39   24   25 ar
  40   24   39 1
  41   25   26 ar
  42   25   40 1
  43   26   41 1

#	End of record

