#	Name: ASD07931570
#	Creating user name:	WinNT
#	Creation time:	15. 06. 2019 21:13

#	Modifying user name:	WinNT
#	Modification time:	15. 06. 2019 21:13

#	Program:	/corina/corina34_cracker 3.40 0067  02.08.2006

@<TRIPOS>MOLECULE
ASD07931570
  51   56    0    0    0
SMALL
NO_CHARGES


@<TRIPOS>ATOM
   1 N1            -0.0204     1.3306     0.0086 N.pl3   
   2 C2            -0.0104    -0.0120    -0.0129 C.2     
   3 C3             1.1624    -0.7251    -0.0292 C.2     
   4 C4             2.4526     0.0014    -0.0234 C.2     
   5 C5             2.3963     1.4755    -0.0010 C.ar    
   6 C6             3.5544     2.2466     0.0057 C.ar    
   7 C7             3.4592     3.6226     0.0265 C.ar    
   8 C8             2.2160     4.2351     0.0412 C.ar    
   9 C9             1.0609     3.4817     0.0353 C.ar    
  10 C10            1.1349     2.0930     0.0156 C.ar    
  11 N11            2.8722    -2.1842    -0.0588 N.am    
  12 N12            3.4006    -0.8910    -0.0411 N.2     
  13 C13            1.5224    -2.1394    -0.0524 C.2     
  14 O14            0.7576    -3.0902    -0.0638 O.2     
  15 C15           -1.3130     2.0200     0.0192 C.3     
  16 C16           -1.7066     2.3710    -1.3925 C.ar    
  17 C17           -2.1620     1.3825    -2.2495 C.ar    
  18 C18           -2.5237     1.7030    -3.5455 C.ar    
  19 C19           -2.4297     3.0162    -3.9857 C.ar    
  20 C20           -1.9728     4.0039    -3.1237 C.ar    
  21 C21           -1.6180     3.6797    -1.8284 C.ar    
  22 N22           -2.7950     3.3444    -5.2987 N.pl3   
  23 N23           -3.2698     2.4531    -6.2696 N.2     
  24 C24           -3.5024     3.1285    -7.3662 C.2     
  25 C25           -3.1839     4.4704    -7.1301 C.2     
  26 C26           -2.7570     4.5783    -5.8505 C.2     
  27 F27           -2.2525     0.1049    -1.8195 F       
  28 C28            3.6339    -3.3598    -0.0800 C.ar    
  29 C29            4.0171    -3.9629     1.1113 C.ar    
  30 C30            4.7681    -5.1229     1.0867 C.ar    
  31 C31            5.1386    -5.6839    -0.1217 C.ar    
  32 C32            4.7599    -5.0870    -1.3100 C.ar    
  33 C33            4.0034    -3.9291    -1.2936 C.ar    
  34 F34            3.6284    -3.3494    -2.4549 F       
  35 Br35           3.5123    -3.1972     2.7650 Br      
  36 H36           -0.9499    -0.5447    -0.0171 H       
  37 H37            4.5235     1.7699    -0.0051 H       
  38 H38            4.3560     4.2243     0.0317 H       
  39 H39            2.1512     5.3130     0.0578 H       
  40 H40            0.0979     3.9705     0.0476 H       
  41 H41           -2.0692     1.3676     0.4557 H       
  42 H42           -1.2337     2.9316     0.6116 H       
  43 H43           -2.8785     0.9326    -4.2142 H       
  44 H44           -1.8985     5.0260    -3.4643 H       
  45 H45           -1.2668     4.4491    -1.1569 H       
  46 H46           -3.8760     2.7204    -8.2937 H       
  47 H47           -3.2681     5.2781    -7.8421 H       
  48 H48           -2.4407     5.4865    -5.3590 H       
  49 H49            5.0665    -5.5917     2.0128 H       
  50 H50            5.7255    -6.5904    -0.1374 H       
  51 H51            5.0516    -5.5276    -2.2520 H       
@<TRIPOS>BOND
   1    1    2 1
   2    1   10 1
   3    1   15 1
   4    2    3 2
   5    2   36 1
   6    3    4 1
   7    3   13 1
   8    4    5 1
   9    4   12 2
  10    5    6 ar
  11    5   10 ar
  12    6    7 ar
  13    6   37 1
  14    7    8 ar
  15    7   38 1
  16    8    9 ar
  17    8   39 1
  18    9   10 ar
  19    9   40 1
  20   11   12 1
  21   11   13 am
  22   11   28 1
  23   13   14 2
  24   15   16 1
  25   15   41 1
  26   15   42 1
  27   16   17 ar
  28   16   21 ar
  29   17   18 ar
  30   17   27 1
  31   18   19 ar
  32   18   43 1
  33   19   20 ar
  34   19   22 1
  35   20   21 ar
  36   20   44 1
  37   21   45 1
  38   22   23 1
  39   22   26 1
  40   23   24 2
  41   24   25 1
  42   24   46 1
  43   25   26 2
  44   25   47 1
  45   26   48 1
  46   28   29 ar
  47   28   33 ar
  48   29   30 ar
  49   29   35 1
  50   30   31 ar
  51   30   49 1
  52   31   32 ar
  53   31   50 1
  54   32   33 ar
  55   32   51 1
  56   33   34 1

#	End of record

