#	Name: ASD01814755
#	Creating user name:	WinNT
#	Creation time:	15. 06. 2019 19:32

#	Modifying user name:	WinNT
#	Modification time:	15. 06. 2019 19:32

#	Program:	/corina/corina34_cracker 3.40 0067  02.08.2006

@<TRIPOS>MOLECULE
ASD01814755
  54   57    0    0    0
SMALL
NO_CHARGES


@<TRIPOS>ATOM
   1 C1            -0.7041     0.9190    -0.3616 C.2     
   2 C2            -0.4843    -0.4620    -0.2481 C.2     
   3 C3             0.7919    -0.9378    -0.2058 C.2     
   4 C4             1.8685    -0.0352    -0.2767 C.2     
   5 N5             1.6250     1.3092    -0.3868 N.am    
   6 C6             0.3411     1.7719    -0.4285 C.2     
   7 C7             3.1797    -0.5180    -0.2336 C.2     
   8 C8             4.2381     0.3644    -0.3029 C.2     
   9 C9             3.9765     1.7355    -0.4158 C.2     
  10 C10            2.6462     2.1862    -0.4560 C.2     
  11 O11            2.4137     3.3808    -0.5548 O.2     
  12 C12            5.0907     2.7008    -0.4917 C.2     
  13 O13            5.2004     3.6861     0.4372 O.3     
  14 C14            5.9905     2.6056    -1.4729 C.2     
  15 C15            3.4364    -1.9979    -0.1113 C.3     
  16 N16            3.6424    -2.5712    -1.4480 N.3     
  17 C17            4.1268    -3.9546    -1.3583 C.3     
  18 C18            4.4678    -4.4689    -2.7588 C.3     
  19 C19            3.2174    -4.4023    -3.6401 C.3     
  20 C20            2.7052    -2.9598    -3.6776 C.3     
  21 C21            2.4153    -2.4893    -2.2505 C.3     
  22 C22            3.5613    -4.8511    -5.0370 C.ar    
  23 N23            3.3870    -4.0237    -6.0487 N.ar    
  24 C24            3.6741    -4.3730    -7.2877 C.ar    
  25 C25            4.1720    -5.6307    -7.5702 C.ar    
  26 C26            4.3688    -6.5285    -6.5318 C.ar    
  27 C27            4.0612    -6.1234    -5.2421 C.ar    
  28 C28            4.2581    -7.0624    -4.0800 C.3     
  29 C29            2.1754    -5.2800    -3.0827 C.1     
  30 N30            1.3712    -5.9573    -2.6525 N.1     
  31 H31           -1.7134     1.3014    -0.4001 H       
  32 H32           -1.3207    -1.1432    -0.1943 H       
  33 H33            0.9753    -1.9985    -0.1182 H       
  34 H34            0.1590     2.8329    -0.5155 H       
  35 H35            5.2551     0.0024    -0.2701 H       
  36 H36            5.9609     4.2685     0.3049 H       
  37 H37            5.9502     1.7765    -2.1639 H       
  38 H38            6.7588     3.3576    -1.5759 H       
  39 H39            4.3263    -2.1633     0.4960 H       
  40 H40            2.5794    -2.4775     0.3617 H       
  41 H41            5.0185    -3.9873    -0.7324 H       
  42 H42            3.3519    -4.5830    -0.9194 H       
  43 H43            5.2524    -3.8492    -3.1930 H       
  44 H44            4.8125    -5.5009    -2.6936 H       
  45 H45            3.4621    -2.3165    -4.1262 H       
  46 H46            1.7906    -2.9137    -4.2688 H       
  47 H47            1.6484    -3.1246    -1.8074 H       
  48 H48            2.0640    -1.4577    -2.2725 H       
  49 H49            3.5180    -3.6680    -8.0908 H       
  50 H50            4.4045    -5.9110    -8.5869 H       
  51 H51            4.7562    -7.5183    -6.7227 H       
  52 H52            5.2455    -6.9024    -3.6469 H       
  53 H53            3.4951    -6.8716    -3.3254 H       
  54 H54            4.1762    -8.0924    -4.4272 H       
@<TRIPOS>BOND
   1    1    2 1
   2    1    6 2
   3    1   31 1
   4    2    3 2
   5    2   32 1
   6    3    4 1
   7    3   33 1
   8    4    5 1
   9    4    7 2
  10    5    6 1
  11    5   10 am
  12    6   34 1
  13    7   15 1
  14    7    8 1
  15    8    9 2
  16    8   35 1
  17    9   10 1
  18    9   12 1
  19   10   11 2
  20   12   13 1
  21   12   14 2
  22   13   36 1
  23   14   37 1
  24   14   38 1
  25   15   16 1
  26   15   39 1
  27   15   40 1
  28   16   17 1
  29   16   21 1
  30   17   18 1
  31   17   41 1
  32   17   42 1
  33   18   19 1
  34   18   43 1
  35   18   44 1
  36   19   20 1
  37   19   22 1
  38   19   29 1
  39   20   21 1
  40   20   45 1
  41   20   46 1
  42   21   47 1
  43   21   48 1
  44   22   23 ar
  45   22   27 ar
  46   23   24 ar
  47   24   25 ar
  48   24   49 1
  49   25   26 ar
  50   25   50 1
  51   26   27 ar
  52   26   51 1
  53   27   28 1
  54   28   52 1
  55   28   53 1
  56   28   54 1
  57   29   30 3

#	End of record

