#	Name: ASD01816081
#	Creating user name:	WinNT
#	Creation time:	15. 06. 2019 19:34

#	Modifying user name:	WinNT
#	Modification time:	15. 06. 2019 19:34

#	Program:	/corina/corina34_cracker 3.40 0067  02.08.2006

@<TRIPOS>MOLECULE
ASD01816081
  61   66    0    0    0
SMALL
NO_CHARGES


@<TRIPOS>ATOM
   1 C1             0.0268     1.3686     0.0261 C.ar    
   2 C2             0.0399    -0.0168     0.0155 C.ar    
   3 C3             1.2333    -0.7086    -0.0031 C.ar    
   4 C4             2.4393    -0.0167    -0.0113 C.ar    
   5 C5             2.4226     1.3881    -0.0010 C.ar    
   6 C6             1.2127     2.0741     0.0178 C.ar    
   7 N7             3.6403    -0.7047    -0.0290 N.pl3   
   8 C8             4.8345    -0.0910    -0.0373 C.2     
   9 C9             4.9431     1.2774    -0.0286 C.2     
  10 C10            3.7136     2.1023    -0.0101 C.2     
  11 C11            6.0442     2.2356    -0.0329 C.2     
  12 N12            5.4767     3.4610    -0.0182 N.am    
  13 N13            4.0840     3.3506    -0.0048 N.2     
  14 O14            7.2375     1.9806    -0.0462 O.2     
  15 C15            3.6068    -2.1693    -0.0387 C.3     
  16 C16            3.5800    -2.6617    -1.4628 C.ar    
  17 C17            4.7538    -2.7172    -2.1962 C.ar    
  18 C18            4.7335    -3.1684    -3.5030 C.ar    
  19 C19            3.5302    -3.5669    -4.0802 C.ar    
  20 C20            2.3529    -3.5086    -3.3367 C.ar    
  21 C21            2.3845    -3.0621    -2.0312 C.ar    
  22 F22            5.9196    -2.3296    -1.6342 F       
  23 C23            6.1836     4.6702    -0.0166 C.ar    
  24 C24            5.9495     5.6132     0.9785 C.ar    
  25 C25            7.1238     4.9280    -1.0051 C.ar    
  26 C26            7.8194     6.1214    -1.0010 C.ar    
  27 C27            7.5809     7.0601    -0.0138 C.ar    
  28 C28            6.6498     6.8059     0.9762 C.ar    
  29 F29            5.0393     5.3648     1.9455 F       
  30 C30            3.5017    -4.0517    -5.4825 C.ar    
  31 C31            2.2988    -4.4499    -6.0589 C.ar    
  32 C32            2.2788    -4.9015    -7.3700 C.ar    
  33 C33            3.4573    -4.9553    -8.1038 C.ar    
  34 C34            4.6512    -4.5601    -7.5305 C.ar    
  35 C35            4.6785    -4.1039    -6.2278 C.ar    
  36 N36            1.0720    -5.3034    -7.9536 N.am    
  37 C37            0.8480    -5.0759    -9.2630 C.2     
  38 O38            1.6489    -4.4383    -9.9135 O.2     
  39 C39           -0.3976    -5.6139    -9.9189 C.3     
  40 H40           -0.9144     1.8980     0.0365 H       
  41 H41           -0.8932    -0.5605     0.0222 H       
  42 H42            1.2309    -1.7885    -0.0109 H       
  43 H43            1.2015     3.1540     0.0257 H       
  44 H44            5.7333    -0.6897    -0.0507 H       
  45 H45            4.4938    -2.5563     0.4629 H       
  46 H46            2.7144    -2.5158     0.4824 H       
  47 H47            5.6485    -3.2113    -4.0751 H       
  48 H48            1.4175    -3.8163    -3.7803 H       
  49 H49            1.4722    -3.0173    -1.4549 H       
  50 H50            7.3115     4.1959    -1.7766 H       
  51 H51            8.5509     6.3216    -1.7699 H       
  52 H52            8.1268     7.9920    -0.0134 H       
  53 H53            6.4659     7.5411     1.7457 H       
  54 H54            1.3838    -4.4077    -5.4866 H       
  55 H55            3.4405    -5.3071    -9.1247 H       
  56 H56            5.5649    -4.6043    -8.1046 H       
  57 H57            5.6132    -3.7956    -5.7833 H       
  58 H58            0.3968    -5.7456    -7.4157 H       
  59 H59           -1.2763    -5.1987    -9.4255 H       
  60 H60           -0.4047    -5.3315   -10.9717 H       
  61 H61           -0.4126    -6.7005    -9.8341 H       
@<TRIPOS>BOND
   1    1    2 ar
   2    1    6 ar
   3    1   40 1
   4    2    3 ar
   5    2   41 1
   6    3    4 ar
   7    3   42 1
   8    4    5 ar
   9    4    7 1
  10    5    6 ar
  11    5   10 1
  12    6   43 1
  13    7    8 1
  14    7   15 1
  15    8    9 2
  16    8   44 1
  17    9   10 1
  18    9   11 1
  19   10   13 2
  20   11   12 am
  21   11   14 2
  22   12   13 1
  23   12   23 1
  24   15   16 1
  25   15   45 1
  26   15   46 1
  27   16   17 ar
  28   16   21 ar
  29   17   18 ar
  30   17   22 1
  31   18   19 ar
  32   18   47 1
  33   19   20 ar
  34   19   30 1
  35   20   21 ar
  36   20   48 1
  37   21   49 1
  38   23   24 ar
  39   23   25 ar
  40   24   29 1
  41   24   28 ar
  42   25   26 ar
  43   25   50 1
  44   26   27 ar
  45   26   51 1
  46   27   28 ar
  47   27   52 1
  48   28   53 1
  49   30   31 ar
  50   30   35 ar
  51   31   32 ar
  52   31   54 1
  53   32   33 ar
  54   32   36 1
  55   33   34 ar
  56   33   55 1
  57   34   35 ar
  58   34   56 1
  59   35   57 1
  60   36   37 am
  61   36   58 1
  62   37   38 2
  63   37   39 1
  64   39   59 1
  65   39   60 1
  66   39   61 1

#	End of record

