#	Name: ASD01901479
#	Creating user name:	WinNT
#	Creation time:	15. 06. 2019 19:53

#	Modifying user name:	WinNT
#	Modification time:	15. 06. 2019 19:53

#	Program:	/corina/corina34_cracker 3.40 0067  02.08.2006

@<TRIPOS>MOLECULE
ASD01901479
  40   43    0    0    0
SMALL
NO_CHARGES


@<TRIPOS>ATOM
   1 C1            -0.0168     1.3893     0.0097 C.ar    
   2 C2             1.1696     2.0934     0.0021 C.ar    
   3 C3             2.3788     1.4169    -0.0130 C.ar    
   4 C4             2.4022     0.0320    -0.0212 C.ar    
   5 C5             1.2201    -0.6801    -0.0142 C.ar    
   6 C6             0.0021    -0.0041     0.0020 C.ar    
   7 C7            -1.2718    -0.7657     0.0101 C.2     
   8 N8            -3.1802    -1.5350    -1.1478 N.2     
   9 C9            -2.0561    -0.8613    -1.1600 C.2     
  10 C10           -1.6993    -1.3891     1.1488 C.2     
  11 N11           -2.8740    -2.0808     1.1217 N.pl3   
  12 C12           -3.6099    -2.1458    -0.0334 C.2     
  13 C13           -3.5518    -2.7936     2.0737 C.2     
  14 C14           -4.6707    -3.2720     1.4892 C.2     
  15 N15           -4.6921    -2.8698     0.2151 N.2     
  16 C16           -5.7216    -4.1170     2.1621 C.3     
  17 O17           -5.3537    -4.3388     3.5250 O.3     
  18 C18           -6.1996    -5.0874     4.2777 C.ar    
  19 C19           -7.3657    -5.6129     3.7303 C.ar    
  20 C20           -5.9190    -5.3535     5.6165 C.ar    
  21 C21           -6.8024    -6.1178     6.3489 C.ar    
  22 N22           -7.9025    -6.5961     5.7975 N.ar    
  23 C23           -8.2017    -6.3706     4.5305 C.ar    
  24 F24           -9.3371    -6.8859     4.0105 F       
  25 C25           -1.3313     2.1260     0.0325 C.3     
  26 F26           -1.0932     3.5046     0.0364 F       
  27 F27           -2.0769     1.7847    -1.1010 F       
  28 F28           -2.0440     1.7726     1.1833 F       
  29 F29            3.5384     2.1102    -0.0204 F       
  30 H30            1.1559     3.1733     0.0077 H       
  31 H31            3.3469    -0.4913    -0.0334 H       
  32 H32            1.2391    -1.7599    -0.0212 H       
  33 H33           -1.7287    -0.3772    -2.0682 H       
  34 H34           -1.1156    -1.3350     2.0558 H       
  35 H35           -3.2486    -2.9448     3.0992 H       
  36 H36           -6.6813    -3.6016     2.1241 H       
  37 H37           -5.8026    -5.0742     1.6472 H       
  38 H38           -7.6148    -5.4315     2.6952 H       
  39 H39           -5.0208    -4.9663     6.0745 H       
  40 H40           -6.5916    -6.3282     7.3870 H       
@<TRIPOS>BOND
   1    1    6 ar
   2    1    2 ar
   3    1   25 1
   4    2    3 ar
   5    2   30 1
   6    3    4 ar
   7    3   29 1
   8    4    5 ar
   9    4   31 1
  10    5    6 ar
  11    5   32 1
  12    6    7 1
  13    7   10 2
  14    7    9 1
  15    8    9 2
  16    8   12 1
  17    9   33 1
  18   10   11 1
  19   10   34 1
  20   11   13 1
  21   11   12 1
  22   12   15 2
  23   13   14 2
  24   13   35 1
  25   14   15 1
  26   14   16 1
  27   16   17 1
  28   16   36 1
  29   16   37 1
  30   17   18 1
  31   18   20 ar
  32   18   19 ar
  33   19   23 ar
  34   19   38 1
  35   20   21 ar
  36   20   39 1
  37   21   22 ar
  38   21   40 1
  39   22   23 ar
  40   23   24 1
  41   25   26 1
  42   25   27 1
  43   25   28 1

#	End of record

