#	Name: ASD00071070
#	Creating user name:	WinNT
#	Creation time:	15. 06. 2019 18:30

#	Modifying user name:	WinNT
#	Modification time:	15. 06. 2019 18:30

#	Program:	/corina/corina34_cracker 3.40 0067  02.08.2006

@<TRIPOS>MOLECULE
ASD00071070
  39   40    0    0    0
SMALL
NO_CHARGES


@<TRIPOS>ATOM
   1 C1             0.4277     1.4331    -0.2709 C.2     
   2 C2             0.2182    -0.0241    -0.1343 C.ar    
   3 C3             0.7086    -0.7010     0.9837 C.ar    
   4 C4             0.5098    -2.0605     1.1051 C.ar    
   5 C5            -0.1741    -2.7534     0.1217 C.ar    
   6 C6            -0.6623    -2.0887    -0.9890 C.ar    
   7 C7            -0.4757    -0.7278    -1.1196 C.ar    
   8 O8             1.5543     1.8893    -0.2549 O.2     
   9 N9            -0.6301     2.2550    -0.4189 N.am    
  10 N10            1.4408     0.0384     2.0364 N.pl3   
  11 O11            1.9806    -0.5688     2.9438 O.2     
  12 O12            1.5035     1.2541     1.9951 O.2     
  13 C13           -0.4225     3.6989    -0.5543 C.3     
  14 C14           -1.7552     4.3861    -0.7050 C.ar    
  15 C15           -2.4410     4.8247     0.4171 C.ar    
  16 C16           -3.6682     5.4572     0.2758 C.ar    
  17 C17           -4.2065     5.6499    -0.9821 C.ar    
  18 C18           -3.5249     5.2135    -2.1021 C.ar    
  19 C19           -2.2948     4.5856    -1.9663 C.ar    
  20 O20           -1.6224     4.1617    -3.0685 O.3     
  21 C21           -2.2379     4.4006    -4.3358 C.3     
  22 O22           -1.9123     4.6352     1.6546 O.3     
  23 C23           -2.6737     5.1127     2.7656 C.3     
  24 H24            0.8890    -2.5855     1.9694 H       
  25 H25           -0.3271    -3.8178     0.2215 H       
  26 H26           -1.1949    -2.6353    -1.7531 H       
  27 H27           -0.8618    -0.2091    -1.9847 H       
  28 H28           -1.5289     1.8906    -0.4357 H       
  29 H29            0.0834     4.0781     0.3336 H       
  30 H30            0.1899     3.8970    -1.4340 H       
  31 H31           -4.2030     5.7988     1.1497 H       
  32 H32           -5.1618     6.1420    -1.0901 H       
  33 H33           -3.9478     5.3653    -3.0842 H       
  34 H34           -1.5981     4.0140    -5.1292 H       
  35 H35           -3.2043     3.8977    -4.3709 H       
  36 H36           -2.3808     5.4723    -4.4741 H       
  37 H37           -2.8189     6.1888     2.6708 H       
  38 H38           -3.6434     4.6152     2.7821 H       
  39 H39           -2.1395     4.8982     3.6912 H       
@<TRIPOS>BOND
   1    1    2 1
   2    1    8 2
   3    1    9 am
   4    2    3 ar
   5    2    7 ar
   6    3    4 ar
   7    3   10 1
   8    4    5 ar
   9    4   24 1
  10    5    6 ar
  11    5   25 1
  12    6    7 ar
  13    6   26 1
  14    7   27 1
  15    9   13 1
  16    9   28 1
  17   10   11 2
  18   10   12 2
  19   13   14 1
  20   13   29 1
  21   13   30 1
  22   14   15 ar
  23   14   19 ar
  24   15   16 ar
  25   15   22 1
  26   16   17 ar
  27   16   31 1
  28   17   18 ar
  29   17   32 1
  30   18   19 ar
  31   18   33 1
  32   19   20 1
  33   20   21 1
  34   21   34 1
  35   21   35 1
  36   21   36 1
  37   22   23 1
  38   23   37 1
  39   23   38 1
  40   23   39 1

#	End of record

