#	Name: ASD03240630
#	Creating user name:	WinNT
#	Creation time:	15. 06. 2019 20:35

#	Modifying user name:	WinNT
#	Modification time:	15. 06. 2019 20:35

#	Program:	/corina/corina34_cracker 3.40 0067  02.08.2006

@<TRIPOS>MOLECULE
ASD03240630
  73   80    0    0    0
SMALL
NO_CHARGES


@<TRIPOS>ATOM
   1 C1            -0.0166     1.3755     0.0096 C.ar    
   2 C2             0.0021    -0.0041     0.0020 C.ar    
   3 N3             1.1422    -0.6683    -0.0058 N.ar    
   4 C4             2.3145    -0.0481    -0.0058 C.ar    
   5 C5             2.3702     1.3442    -0.0124 C.ar    
   6 C6             1.1860     2.0698     0.0018 C.ar    
   7 N7             3.4820    -0.8058     0.0220 N.pl3   
   8 C8             4.3589    -0.7197     1.0999 C.ar    
   9 C9             4.9953     0.4884     1.4041 C.ar    
  10 C10            4.7643     1.6830     0.5625 C.2     
  11 N11            3.5939     2.0276    -0.0512 N.pl3   
  12 C12            4.6043    -1.8396     1.8832 C.ar    
  13 C13            5.4635    -1.7545     2.9621 C.ar    
  14 C14            6.0845    -0.5566     3.2713 C.ar    
  15 C15            5.8559     0.5644     2.4989 C.ar    
  16 N16            5.6762     2.5933     0.2859 N.2     
  17 C17            5.1465     3.5396    -0.5049 C.2     
  18 C18            3.8225     3.2039    -0.7368 C.2     
  19 C19            2.8503     3.9544    -1.5545 C.ar    
  20 C20            2.7518     5.3425    -1.4298 C.ar    
  21 C21            2.0278     3.2811    -2.4613 C.ar    
  22 C22            1.1217     3.9892    -3.2226 C.ar    
  23 C23            1.0264     5.3634    -3.0903 C.ar    
  24 C24            1.8411     6.0376    -2.1977 C.ar    
  25 C25            5.8508     4.7292    -1.0346 C.ar    
  26 C26            0.0341     6.1301    -3.9262 C.3     
  27 C27            6.8256     5.3773    -0.2663 C.ar    
  28 N28           -1.0252     5.2764    -4.4803 N.3     
  29 C29           -0.4944     7.4022    -3.2426 C.3     
  30 C30           -0.3977     8.0861    -4.6166 C.3     
  31 C31            0.6889     7.0553    -4.9655 C.3     
  32 C32            7.4564     6.4828    -0.8020 C.ar    
  33 C33            7.1045     6.9141    -2.0809 C.ar    
  34 N34            6.1750     6.2762    -2.7824 N.ar    
  35 C35            5.5561     5.2164    -2.3088 C.ar    
  36 C36            7.7761     8.0995    -2.6638 C.ar    
  37 C37            7.4321     8.5396    -3.9418 C.ar    
  38 C38            8.7495     8.7808    -1.9335 C.ar    
  39 C39            9.3724     9.8832    -2.4787 C.ar    
  40 C40            9.0314    10.3157    -3.7535 C.ar    
  41 C41            8.0588     9.6427    -4.4813 C.ar    
  42 O42            9.6468    11.4026    -4.2877 O.3     
  43 C43            9.2478    11.7927    -5.6033 C.3     
  44 H44           -0.9556     1.9091     0.0170 H       
  45 H45           -0.9306    -0.5486     0.0028 H       
  46 H46            1.2002     3.1497     0.0068 H       
  47 H47            3.6864    -1.4000    -0.7170 H       
  48 H48            4.1231    -2.7777     1.6493 H       
  49 H49            5.6516    -2.6283     3.5683 H       
  50 H50            6.7500    -0.4988     4.1199 H       
  51 H51            6.3417     1.4978     2.7421 H       
  52 H52            3.3870     5.8699    -0.7335 H       
  53 H53            2.1017     2.2087    -2.5660 H       
  54 H54            0.4854     3.4701    -3.9240 H       
  55 H55            1.7612     7.1101    -2.0997 H       
  56 H56            7.0778     5.0213     0.7217 H       
  57 H57           -0.6344     4.4677    -4.9401 H       
  58 H58           -1.6812     5.0032    -3.7639 H       
  59 H59           -1.5155     7.3072    -2.8731 H       
  60 H60            0.1887     7.8150    -2.5003 H       
  61 H61           -1.3016     7.9881    -5.2177 H       
  62 H62           -0.0286     9.1106    -4.5694 H       
  63 H63            1.6956     7.3733    -4.6942 H       
  64 H64            0.6232     6.6803    -5.9868 H       
  65 H65            8.2129     7.0073    -0.2373 H       
  66 H66            4.8054     4.7236    -2.9087 H       
  67 H67            6.6758     8.0166    -4.5083 H       
  68 H68            9.0147     8.4455    -0.9417 H       
  69 H69           10.1263    10.4113    -1.9137 H       
  70 H70            7.7961     9.9813    -5.4726 H       
  71 H71            9.4405    10.9757    -6.2986 H       
  72 H72            8.1835    12.0282    -5.6053 H       
  73 H73            9.8150    12.6717    -5.9093 H       
@<TRIPOS>BOND
   1    1    2 ar
   2    1    6 ar
   3    1   44 1
   4    2    3 ar
   5    2   45 1
   6    3    4 ar
   7    4    5 ar
   8    4    7 1
   9    5    6 ar
  10    5   11 1
  11    6   46 1
  12    7    8 1
  13    7   47 1
  14    8    9 ar
  15    8   12 ar
  16    9   10 1
  17    9   15 ar
  18   10   11 1
  19   10   16 2
  20   11   18 1
  21   12   13 ar
  22   12   48 1
  23   13   14 ar
  24   13   49 1
  25   14   15 ar
  26   14   50 1
  27   15   51 1
  28   16   17 1
  29   17   18 2
  30   17   25 1
  31   18   19 1
  32   19   20 ar
  33   19   21 ar
  34   20   24 ar
  35   20   52 1
  36   21   22 ar
  37   21   53 1
  38   22   23 ar
  39   22   54 1
  40   23   24 ar
  41   23   26 1
  42   24   55 1
  43   25   27 ar
  44   25   35 ar
  45   26   29 1
  46   26   28 1
  47   26   31 1
  48   27   32 ar
  49   27   56 1
  50   28   57 1
  51   28   58 1
  52   29   30 1
  53   29   59 1
  54   29   60 1
  55   30   31 1
  56   30   61 1
  57   30   62 1
  58   31   63 1
  59   31   64 1
  60   32   33 ar
  61   32   65 1
  62   33   34 ar
  63   33   36 1
  64   34   35 ar
  65   35   66 1
  66   36   37 ar
  67   36   38 ar
  68   37   41 ar
  69   37   67 1
  70   38   39 ar
  71   38   68 1
  72   39   40 ar
  73   39   69 1
  74   40   41 ar
  75   40   42 1
  76   41   70 1
  77   42   43 1
  78   43   71 1
  79   43   72 1
  80   43   73 1

#	End of record

