#	Name: ASD05380059
#	Creating user name:	WinNT
#	Creation time:	15. 06. 2019 20:59

#	Modifying user name:	WinNT
#	Modification time:	15. 06. 2019 20:59

#	Program:	/corina/corina34_cracker 3.40 0067  02.08.2006

@<TRIPOS>MOLECULE
ASD05380059
  52   56    0    0    0
SMALL
NO_CHARGES


@<TRIPOS>ATOM
   1 C1            -0.3764     1.9598    -0.4519 C.ar    
   2 C2            -0.0069     0.6964     0.0617 C.ar    
   3 C3             0.6011     2.8378    -0.9151 C.ar    
   4 C4             1.9267     2.4643    -0.8679 C.ar    
   5 C5             2.2932     1.2234    -0.3642 C.ar    
   6 C6             1.3427     0.3414     0.0995 C.ar    
   7 N7            -0.9758    -0.1418     0.5075 N.2     
   8 C8            -2.2309     0.1890     0.4732 C.2     
   9 N9            -2.6767     1.3827    -0.0039 N.am    
  10 C10           -1.8050     2.3061    -0.4719 C.2     
  11 C11           -4.0495     1.6604    -0.0057 C.ar    
  12 C12           -4.8255     1.3259    -1.1076 C.ar    
  13 C13           -4.6384     2.2655     1.0967 C.ar    
  14 C14           -5.9924     2.5376     1.0921 C.ar    
  15 C15           -6.7617     2.2077    -0.0087 C.ar    
  16 C16           -6.1791     1.6006    -1.1061 C.ar    
  17 C17           -3.2454    -0.7997     0.9873 C.3     
  18 N18           -2.8329    -2.1572     0.6223 N.pl3   
  19 C19           -3.7793    -3.1596     0.5043 C.ar    
  20 N20           -5.0657    -2.9069     0.7187 N.ar    
  21 O21           -2.1896     3.3782    -0.9015 O.2     
  22 C22           -3.4009    -4.4658     0.1492 C.ar    
  23 C23           -4.4034    -5.4441     0.0434 C.ar    
  24 N24           -5.6667    -5.1052     0.2806 N.ar    
  25 C25           -5.9801    -3.8619     0.6074 C.ar    
  26 N26           -2.2217    -5.0691    -0.1403 N.2     
  27 C27           -2.4323    -6.3242    -0.4102 C.2     
  28 N28           -3.7638    -6.6050    -0.3104 N.pl3   
  29 C29           -3.3404    -0.6876     2.5102 C.3     
  30 C30            0.2116     4.1860    -1.4642 C.3     
  31 N31           -7.3084    -3.5466     0.8419 N.pl3   
  32 O32           -2.0445    -0.8726     3.0832 O.3     
  33 H33            2.6871     3.1425    -1.2261 H       
  34 H34            3.3367     0.9466    -0.3353 H       
  35 H35            1.6399    -0.6208     0.4897 H       
  36 H36           -4.3711     0.8518    -1.9649 H       
  37 H37           -4.0382     2.5228     1.9570 H       
  38 H38           -6.4510     3.0083     1.9492 H       
  39 H39           -7.8204     2.4209    -0.0096 H       
  40 H40           -6.7824     1.3445    -1.9644 H       
  41 H41           -4.2185    -0.5845     0.5458 H       
  42 H42           -1.8963    -2.3532     0.4634 H       
  43 H43           -1.6663    -7.0382    -0.6746 H       
  44 H44           -4.1814    -7.4674    -0.4613 H       
  45 H45           -3.7191     0.2985     2.7791 H       
  46 H46           -4.0179    -1.4527     2.8893 H       
  47 H47            0.1153     4.8981    -0.6446 H       
  48 H48            0.9786     4.5315    -2.1574 H       
  49 H49           -0.7409     4.1037    -1.9878 H       
  50 H50           -7.5565    -2.6403     1.0830 H       
  51 H51           -7.9904    -4.2320     0.7651 H       
  52 H52           -2.0292    -0.8145     4.0483 H       
@<TRIPOS>BOND
   1    1    2 ar
   2    1    3 ar
   3    1   10 1
   4    2    7 1
   5    2    6 ar
   6    3    4 ar
   7    3   30 1
   8    4    5 ar
   9    4   33 1
  10    5    6 ar
  11    5   34 1
  12    6   35 1
  13    7    8 2
  14    8    9 1
  15    8   17 1
  16    9   10 am
  17    9   11 1
  18   10   21 2
  19   11   12 ar
  20   11   13 ar
  21   12   16 ar
  22   12   36 1
  23   13   14 ar
  24   13   37 1
  25   14   15 ar
  26   14   38 1
  27   15   16 ar
  28   15   39 1
  29   16   40 1
  30   17   18 1
  31   17   29 1
  32   17   41 1
  33   18   19 1
  34   18   42 1
  35   19   20 ar
  36   19   22 ar
  37   20   25 ar
  38   22   23 ar
  39   22   26 1
  40   23   24 ar
  41   23   28 1
  42   24   25 ar
  43   25   31 1
  44   26   27 2
  45   27   28 1
  46   27   43 1
  47   28   44 1
  48   29   32 1
  49   29   45 1
  50   29   46 1
  51   30   47 1
  52   30   48 1
  53   30   49 1
  54   31   50 1
  55   31   51 1
  56   32   52 1

#	End of record

