#	Name: ASD01148361
#	Creating user name:	WinNT
#	Creation time:	15. 06. 2019 19:02

#	Modifying user name:	WinNT
#	Modification time:	15. 06. 2019 19:02

#	Program:	/corina/corina34_cracker 3.40 0067  02.08.2006

@<TRIPOS>MOLECULE
ASD01148361
  46   48    0    0    0
SMALL
NO_CHARGES


@<TRIPOS>ATOM
   1 C1            -0.4100     1.8316    -0.0437 C.ar    
   2 C2            -0.4711     0.4512     0.0165 C.ar    
   3 C3             0.6961    -0.2899     0.0958 C.ar    
   4 C4             1.9214     0.3512     0.1148 C.ar    
   5 C5             1.9806     1.7311     0.0547 C.ar    
   6 C6             0.8157     2.4708    -0.0245 C.ar    
   7 C7             3.3160     2.4292     0.0754 C.3     
   8 O8             4.3313     1.6198    -0.5520 O.3     
   9 C9             3.3017     3.6793    -0.8363 C.3     
  10 C10            3.8437     3.1386    -2.1457 C.2     
  11 N11            4.3961     1.9951    -1.9136 N.2     
  12 C12            3.7549     3.8053    -3.4597 C.ar    
  13 C13            4.2992     3.1932    -4.5920 C.ar    
  14 C14            3.1216     5.0455    -3.5723 C.ar    
  15 C15            3.0388     5.6673    -4.7977 C.ar    
  16 C16            3.5879     5.0581    -5.9287 C.ar    
  17 C17            4.2164     3.8148    -5.8170 C.ar    
  18 C18            3.4991     5.7253    -7.2435 C.2     
  19 O19            4.0714     5.2516    -8.2052 O.2     
  20 N20            2.7833     6.8594    -7.3767 N.am    
  21 C21            4.8092     3.1579    -7.0369 C.3     
  22 C22            3.7158     2.7979     1.5055 C.3     
  23 F23            3.7876     1.6374     2.2836 F       
  24 F24            4.9645     3.4287     1.4927 F       
  25 F25            2.7610     3.6646     2.0479 F       
  26 Cl26           0.6211    -2.0226     0.1719 Cl      
  27 Cl27          -2.0100    -0.3519    -0.0070 Cl      
  28 C28            2.7022     7.4682    -8.5764 C.2     
  29 O29            1.9873     8.6009    -8.7094 O.3     
  30 C30            1.9440     9.2018   -10.0305 C.3     
  31 O31            3.2742     6.9947    -9.5376 O.2     
  32 H32           -1.3197     2.4100    -0.1100 H       
  33 H33            2.8320    -0.2262     0.1770 H       
  34 H34            0.8630     3.5487    -0.0715 H       
  35 H35            2.2860     4.0540    -0.9632 H       
  36 H36            3.9549     4.4559    -0.4384 H       
  37 H37            4.7851     2.2326    -4.5056 H       
  38 H38            2.6968     5.5163    -2.6980 H       
  39 H39            2.5489     6.6259    -4.8848 H       
  40 H40            2.3264     7.2376    -6.6091 H       
  41 H41            5.8059     3.5602    -7.2180 H       
  42 H42            4.8756     2.0822    -6.8742 H       
  43 H43            4.1748     3.3562    -7.9008 H       
  44 H44            1.3362    10.1061    -9.9986 H       
  45 H45            2.9556     9.4550   -10.3478 H       
  46 H46            1.5078     8.4955   -10.7368 H       
@<TRIPOS>BOND
   1    1    2 ar
   2    1    6 ar
   3    1   32 1
   4    2    3 ar
   5    2   27 1
   6    3    4 ar
   7    3   26 1
   8    4    5 ar
   9    4   33 1
  10    5    6 ar
  11    5    7 1
  12    6   34 1
  13    7    8 1
  14    7    9 1
  15    7   22 1
  16    8   11 1
  17    9   10 1
  18    9   35 1
  19    9   36 1
  20   10   11 2
  21   10   12 1
  22   12   13 ar
  23   12   14 ar
  24   13   17 ar
  25   13   37 1
  26   14   15 ar
  27   14   38 1
  28   15   16 ar
  29   15   39 1
  30   16   17 ar
  31   16   18 1
  32   17   21 1
  33   18   19 2
  34   18   20 am
  35   20   28 am
  36   20   40 1
  37   21   41 1
  38   21   42 1
  39   21   43 1
  40   22   23 1
  41   22   24 1
  42   22   25 1
  43   28   29 1
  44   28   31 2
  45   29   30 1
  46   30   44 1
  47   30   45 1
  48   30   46 1

#	End of record

