#	Name: ASD01120330
#	Creating user name:	WinNT
#	Creation time:	15. 06. 2019 18:59

#	Modifying user name:	WinNT
#	Modification time:	15. 06. 2019 18:59

#	Program:	/corina/corina34_cracker 3.40 0067  02.08.2006

@<TRIPOS>MOLECULE
ASD01120330
  34   36    0    0    0
SMALL
NO_CHARGES


@<TRIPOS>ATOM
   1 O1             0.0021    -0.0041     0.0020 O.2     
   2 N2            -0.0144     1.2138     0.0087 N.pl3   
   3 O3             1.0320     1.8371     0.0021 O.2     
   4 C4            -1.3063     1.9364     0.0188 C.ar    
   5 C5            -2.4888     1.2291     0.0205 C.ar    
   6 C6            -3.7093     1.8864     0.0294 C.ar    
   7 C7            -3.7582     3.2725     0.0367 C.ar    
   8 C8            -2.5545     4.0097     0.0355 C.ar    
   9 C9            -1.3225     3.3287     0.0322 C.ar    
  10 N10           -0.3281     4.2786     0.0316 N.pl3   
  11 C11           -0.9109     5.5314     0.0345 C.2     
  12 C12           -2.2645     5.3918     0.0414 C.2     
  13 C13           -0.1860     6.8085     0.0349 C.2     
  14 O14           -0.8016     7.8569     0.0381 O.2     
  15 O15            1.1625     6.8183     0.0318 O.3     
  16 C16           -5.0631     3.9736     0.0453 C.ar    
  17 C17           -5.3094     4.9830     0.9753 C.ar    
  18 C18           -6.5269     5.6329     0.9779 C.ar    
  19 C19           -7.5018     5.2847     0.0606 C.ar    
  20 C20           -7.2636     4.2836    -0.8643 C.ar    
  21 C21           -6.0483     3.6306    -0.8807 C.ar    
  22 C22           -8.3314     3.9100    -1.8600 C.3     
  23 F23           -9.4620     4.7074    -1.6524 F       
  24 F24           -7.8500     4.1122    -3.1579 F       
  25 F25           -8.6734     2.5637    -1.6939 F       
  26 H26           -2.4645     0.1494     0.0145 H       
  27 H27           -4.6266     1.3164     0.0303 H       
  28 H28            0.6251     4.0988     0.0298 H       
  29 H29           -2.9875     6.1941     0.0447 H       
  30 H30            1.5952     7.6831     0.0322 H       
  31 H31           -4.5490     5.2555     1.6922 H       
  32 H32           -6.7189     6.4146     1.6979 H       
  33 H33           -8.4531     5.7961     0.0666 H       
  34 H34           -5.8635     2.8494    -1.6031 H       
@<TRIPOS>BOND
   1    1    2 2
   2    2    3 2
   3    2    4 1
   4    4    5 ar
   5    4    9 ar
   6    5    6 ar
   7    5   26 1
   8    6    7 ar
   9    6   27 1
  10    7    8 ar
  11    7   16 1
  12    8    9 ar
  13    8   12 1
  14    9   10 1
  15   10   11 1
  16   10   28 1
  17   11   12 2
  18   11   13 1
  19   12   29 1
  20   13   14 2
  21   13   15 1
  22   15   30 1
  23   16   17 ar
  24   16   21 ar
  25   17   18 ar
  26   17   31 1
  27   18   19 ar
  28   18   32 1
  29   19   20 ar
  30   19   33 1
  31   20   21 ar
  32   20   22 1
  33   21   34 1
  34   22   23 1
  35   22   24 1
  36   22   25 1

#	End of record

