#	Name: ASD01811520
#	Creating user name:	WinNT
#	Creation time:	15. 06. 2019 19:26

#	Modifying user name:	WinNT
#	Modification time:	15. 06. 2019 19:26

#	Program:	/corina/corina34_cracker 3.40 0067  02.08.2006

@<TRIPOS>MOLECULE
ASD01811520
  24   24    0    0    0
SMALL
NO_CHARGES


@<TRIPOS>ATOM
   1 C1            -0.0098     1.4717     0.0872 C.2     
   2 C2             0.0060    -0.0047     0.0394 C.ar    
   3 C3             1.2134    -0.6884    -0.1185 C.ar    
   4 C4             1.2214    -2.0669    -0.1619 C.ar    
   5 C5             0.0366    -2.7729    -0.0498 C.ar    
   6 C6            -1.1638    -2.1020     0.1064 C.ar    
   7 C7            -1.1853    -0.7228     0.1577 C.ar    
   8 O8             1.0355     2.0904     0.0945 O.2     
   9 O9            -1.1836     2.1321     0.1171 O.3     
  10 C10            0.0533    -4.2790    -0.0986 C.3     
  11 C11            2.5049     0.0785    -0.2417 C.3     
  12 I12           -2.9511    -3.1822     0.2736 I       
  13 C13           -1.1231     3.5821     0.1635 C.3     
  14 H14            2.1547    -2.5967    -0.2839 H       
  15 H15           -2.1220    -0.2003     0.2841 H       
  16 H16            0.1728    -4.6739     0.9103 H       
  17 H17           -0.8847    -4.6393    -0.5210 H       
  18 H18            0.8838    -4.6132    -0.7203 H       
  19 H19            2.8702     0.3369     0.7522 H       
  20 H20            3.2455    -0.5369    -0.7524 H       
  21 H21            2.3329     0.9901    -0.8140 H       
  22 H22           -0.6011     3.9524    -0.7188 H       
  23 H23           -2.1347     3.9875     0.1840 H       
  24 H24           -0.5881     3.8950     1.0602 H       
@<TRIPOS>BOND
   1    1    2 1
   2    1    8 2
   3    1    9 1
   4    2    3 ar
   5    2    7 ar
   6    3    4 ar
   7    3   11 1
   8    4    5 ar
   9    4   14 1
  10    5    6 ar
  11    5   10 1
  12    6    7 ar
  13    6   12 1
  14    7   15 1
  15    9   13 1
  16   10   16 1
  17   10   17 1
  18   10   18 1
  19   11   19 1
  20   11   20 1
  21   11   21 1
  22   13   22 1
  23   13   23 1
  24   13   24 1

#	End of record

