#	Name: ASD01420090
#	Creating user name:	WinNT
#	Creation time:	15. 06. 2019 19:20

#	Modifying user name:	WinNT
#	Modification time:	15. 06. 2019 19:20

#	Program:	/corina/corina34_cracker 3.40 0067  02.08.2006

@<TRIPOS>MOLECULE
ASD01420090
  29   31    0    0    0
SMALL
NO_CHARGES


@<TRIPOS>ATOM
   1 O1             0.0011     1.3232    -0.2484 O.3     
   2 C2            -0.0022     0.0020     0.0246 C.ar    
   3 C3             1.3274    -0.3819     0.2732 C.ar    
   4 C4             2.1260     0.8368     0.1226 C.2     
   5 C5             1.2516     1.8222    -0.1926 C.2     
   6 C6            -1.0093    -0.9517     0.0942 C.ar    
   7 C7            -0.7008    -2.2591     0.4044 C.ar    
   8 C8             0.6122    -2.6387     0.6500 C.ar    
   9 C9             1.6272    -1.7088     0.5859 C.ar    
  10 C10            1.6147     3.2334    -0.4384 C.ar    
  11 C11            2.6868     3.5445    -1.2771 C.ar    
  12 C12            3.0219     4.8621    -1.5042 C.ar    
  13 C13            2.2952     5.8795    -0.8998 C.ar    
  14 C14            1.2285     5.5743    -0.0646 C.ar    
  15 C15            0.8830     4.2594     0.1628 C.ar    
  16 O16            2.6290     7.1769    -1.1258 O.3     
  17 C17            3.6185     0.9678     0.2850 C.3     
  18 Cl18           0.9764    -4.2910     1.0388 Cl      
  19 H19           -2.0345    -0.6691    -0.0943 H       
  20 H20           -1.4887    -2.9958     0.4573 H       
  21 H21            2.6481    -2.0048     0.7768 H       
  22 H22            3.2529     2.7538    -1.7470 H       
  23 H23            3.8510     5.1035    -2.1528 H       
  24 H24            0.6661     6.3684     0.4039 H       
  25 H25            0.0503     4.0230     0.8086 H       
  26 H26            2.1779     7.5728    -1.8840 H       
  27 H27            4.0987     0.8855    -0.6901 H       
  28 H28            3.8525     1.9374     0.7245 H       
  29 H29            3.9839     0.1751     0.9379 H       
@<TRIPOS>BOND
   1    1    2 1
   2    1    5 1
   3    2    3 ar
   4    2    6 ar
   5    3    4 1
   6    3    9 ar
   7    4    5 2
   8    4   17 1
   9    5   10 1
  10    6    7 ar
  11    6   19 1
  12    7    8 ar
  13    7   20 1
  14    8    9 ar
  15    8   18 1
  16    9   21 1
  17   10   11 ar
  18   10   15 ar
  19   11   12 ar
  20   11   22 1
  21   12   13 ar
  22   12   23 1
  23   13   14 ar
  24   13   16 1
  25   14   15 ar
  26   14   24 1
  27   15   25 1
  28   16   26 1
  29   17   27 1
  30   17   28 1
  31   17   29 1

#	End of record

