#	Name: ASD01915648
#	Creating user name:	WinNT
#	Creation time:	15. 06. 2019 20:05

#	Modifying user name:	WinNT
#	Modification time:	15. 06. 2019 20:05

#	Program:	/corina/corina34_cracker 3.40 0067  02.08.2006

@<TRIPOS>MOLECULE
ASD01915648
  46   49    0    0    0
SMALL
NO_CHARGES


@<TRIPOS>ATOM
   1 C1            -0.0077     1.4239     0.1148 C.2     
   2 N2             0.0328     0.0538    -0.0170 N.pl3   
   3 C3            -1.1983    -0.7322    -0.1628 C.3     
   4 C4            -2.3381    -0.0261     0.5696 C.3     
   5 N5            -2.4044     1.3988     0.2637 N.am    
   6 C6            -1.2840     2.1533     0.1562 C.2     
   7 C7             1.2860     1.8557     0.2005 C.2     
   8 C8             2.0628     0.6918     0.1255 C.2     
   9 N9             1.2489    -0.3308     0.0030 N.2     
  10 C10            3.5675     0.6258     0.1758 C.3     
  11 O11            4.0978     1.9455     0.3135 O.3     
  12 C12            5.4503     2.0637     0.3745 C.ar    
  13 O13           -1.3313     3.3673     0.0975 O.2     
  14 C14            6.0331     3.3156     0.5081 C.ar    
  15 C15            6.2503     0.9322     0.3090 C.ar    
  16 C16            7.6249     1.0550     0.3712 C.ar    
  17 C17            8.2035     2.3042     0.4987 C.ar    
  18 C18            7.4081     3.4330     0.5699 C.ar    
  19 C19           -3.6493     1.9981     0.0777 C.ar    
  20 N20           -4.2853     2.5414     1.1042 N.ar    
  21 C21           -4.2288     2.0328    -1.1956 C.ar    
  22 N22           -5.4104     2.6032    -1.3641 N.ar    
  23 C23           -6.0406     3.1388    -0.3302 C.ar    
  24 C24           -5.4672     3.1097     0.9246 C.ar    
  25 C25           -2.1397    -0.1995     2.0767 C.3     
  26 O26           -3.5806     1.4835    -2.2541 O.3     
  27 C27           -4.2331     1.5563    -3.5233 C.3     
  28 H28           -1.4475    -0.8253    -1.2198 H       
  29 H29           -1.0499    -1.7236     0.2652 H       
  30 H30           -3.2816    -0.4917     0.2847 H       
  31 H31            1.6340     2.8730     0.3031 H       
  32 H32            3.8763     0.0194     1.0273 H       
  33 H33            3.9424     0.1777    -0.7444 H       
  34 H34            5.4123     4.1976     0.5634 H       
  35 H35            5.7988    -0.0439     0.2099 H       
  36 H36            8.2481     0.1743     0.3207 H       
  37 H37            9.2783     2.3982     0.5471 H       
  38 H38            7.8625     4.4078     0.6691 H       
  39 H39           -7.0052     3.6039    -0.4702 H       
  40 H40           -5.9865     3.5484     1.7638 H       
  41 H41           -1.1856     0.2381     2.3703 H       
  42 H42           -2.9483     0.3010     2.6095 H       
  43 H43           -2.1441    -1.2610     2.3240 H       
  44 H44           -5.1927     1.0422    -3.4686 H       
  45 H45           -4.3952     2.6009    -3.7891 H       
  46 H46           -3.6091     1.0813    -4.2804 H       
@<TRIPOS>BOND
   1    1    2 1
   2    1    7 2
   3    1    6 1
   4    2    3 1
   5    2    9 1
   6    3    4 1
   7    3   28 1
   8    3   29 1
   9    4    5 1
  10    4   25 1
  11    4   30 1
  12    5    6 am
  13    5   19 1
  14    6   13 2
  15    7    8 1
  16    7   31 1
  17    8    9 2
  18    8   10 1
  19   10   11 1
  20   10   32 1
  21   10   33 1
  22   11   12 1
  23   12   14 ar
  24   12   15 ar
  25   14   18 ar
  26   14   34 1
  27   15   16 ar
  28   15   35 1
  29   16   17 ar
  30   16   36 1
  31   17   18 ar
  32   17   37 1
  33   18   38 1
  34   19   20 ar
  35   19   21 ar
  36   20   24 ar
  37   21   22 ar
  38   21   26 1
  39   22   23 ar
  40   23   24 ar
  41   23   39 1
  42   24   40 1
  43   25   41 1
  44   25   42 1
  45   25   43 1
  46   26   27 1
  47   27   44 1
  48   27   45 1
  49   27   46 1

#	End of record

