#	Name: ASD01948209
#	Creating user name:	WinNT
#	Creation time:	15. 06. 2019 20:13

#	Modifying user name:	WinNT
#	Modification time:	15. 06. 2019 20:13

#	Program:	/corina/corina34_cracker 3.40 0067  02.08.2006

@<TRIPOS>MOLECULE
ASD01948209
  48   51    0    0    0
SMALL
NO_CHARGES


@<TRIPOS>ATOM
   1 C1             0.1162     1.1114    -0.3547 C.ar    
   2 C2             0.1669    -0.2382    -0.1101 C.ar    
   3 C3             1.3535    -0.8405     0.3229 C.ar    
   4 C4             2.4949    -0.0643     0.5076 C.ar    
   5 C5             2.4516     1.3016     0.2618 C.ar    
   6 C6             1.2576     1.8977    -0.1714 C.ar    
   7 C7            -0.8593    -1.3401    -0.2075 C.3     
   8 N8            -0.1769    -2.5753     0.1933 N.am    
   9 C9             1.0994    -2.2862     0.4991 C.2     
  10 C10            2.7717     2.7809     2.6058 C.ar    
  11 C11            3.7313     2.8472     1.6050 C.ar    
  12 N12            3.5895     2.0777     0.4457 N.pl3   
  13 C13            2.9143     3.5428     3.7497 C.ar    
  14 C14            4.0110     4.3709     3.8993 C.ar    
  15 C15            4.9701     4.4406     2.9050 C.ar    
  16 C16            4.8343     3.6814     1.7577 C.ar    
  17 F17            5.7711     3.7491     0.7866 F       
  18 C18            4.1621     5.1998     5.1488 C.3     
  19 O19            1.9264    -3.0971     0.8671 O.2     
  20 C20            1.2072     3.3495    -0.4343 C.2     
  21 O21            2.2238     4.0137    -0.3749 O.2     
  22 N22            0.0342     3.9386    -0.7401 N.am    
  23 O23           -0.0142     5.3311    -0.9922 O.3     
  24 C24           -1.3202     5.8204    -1.3035 C.3     
  25 C25           -1.2533     7.3280    -1.5559 C.3     
  26 O26           -0.4668     7.5813    -2.7218 O.3     
  27 C27            5.4077     4.9654     6.0057 C.3     
  28 C28            5.2811     6.2429     5.1735 C.3     
  29 H29           -0.8037     1.5650    -0.6930 H       
  30 H30            3.4130    -0.5243     0.8420 H       
  31 H31           -1.6918    -1.1369     0.4660 H       
  32 H32           -1.2191    -1.4271    -1.2327 H       
  33 H33           -0.5808    -3.4564     0.2317 H       
  34 H34            1.9120     2.1378     2.4885 H       
  35 H35            4.2854     2.0857    -0.2299 H       
  36 H36            2.1674     3.4914     4.5282 H       
  37 H37            5.8254     5.0892     3.0247 H       
  38 H38            3.2342     5.4443     5.6658 H       
  39 H39           -0.7769     3.4087    -0.7874 H       
  40 H40           -1.6928     5.3187    -2.1966 H       
  41 H41           -1.9914     5.6213    -0.4681 H       
  42 H42           -2.2606     7.7164    -1.7057 H       
  43 H43           -0.7981     7.8204    -0.6966 H       
  44 H44           -0.3813     8.5189    -2.9424 H       
  45 H45            5.2994     5.0560     7.0865 H       
  46 H46            6.1179     4.2116     5.6658 H       
  47 H47            5.9080     6.3297     4.2860 H       
  48 H48            5.0895     7.1741     5.7067 H       
@<TRIPOS>BOND
   1    1    2 ar
   2    1    6 ar
   3    1   29 1
   4    2    3 ar
   5    2    7 1
   6    3    4 ar
   7    3    9 1
   8    4    5 ar
   9    4   30 1
  10    5    6 ar
  11    5   12 1
  12    6   20 1
  13    7    8 1
  14    7   31 1
  15    7   32 1
  16    8    9 am
  17    8   33 1
  18    9   19 2
  19   10   11 ar
  20   10   13 ar
  21   10   34 1
  22   11   12 1
  23   11   16 ar
  24   12   35 1
  25   13   14 ar
  26   13   36 1
  27   14   15 ar
  28   14   18 1
  29   15   16 ar
  30   15   37 1
  31   16   17 1
  32   18   27 1
  33   18   28 1
  34   18   38 1
  35   20   21 2
  36   20   22 am
  37   22   23 1
  38   22   39 1
  39   23   24 1
  40   24   25 1
  41   24   40 1
  42   24   41 1
  43   25   26 1
  44   25   42 1
  45   25   43 1
  46   26   44 1
  47   27   28 1
  48   27   45 1
  49   27   46 1
  50   28   47 1
  51   28   48 1

#	End of record

