#	Name: ASD08150352
#	Creating user name:	WinNT
#	Creation time:	15. 06. 2019 21:15

#	Modifying user name:	WinNT
#	Modification time:	15. 06. 2019 21:15

#	Program:	/corina/corina34_cracker 3.40 0067  02.08.2006

@<TRIPOS>MOLECULE
ASD08150352
  78   84    0    0    0
SMALL
NO_CHARGES


@<TRIPOS>ATOM
   1 N1             0.1304     1.5630     0.0964 N.am    
   2 C2             0.6489     0.9282     1.1655 C.2     
   3 C3             1.9097     0.3017     1.0939 C.2     
   4 C4             2.6222     0.3303    -0.0610 C.2     
   5 C5             2.0797     0.9969    -1.1881 C.ar    
   6 C6             2.7770     1.0557    -2.4099 C.ar    
   7 N7             2.2740     1.6710    -3.4481 N.ar    
   8 C8             1.0772     2.2764    -3.4131 C.ar    
   9 C9             0.3057     2.2673    -2.2249 C.ar    
  10 C10            0.8220     1.6105    -1.0835 C.ar    
  11 C11           -0.9398     2.9024    -2.1985 C.ar    
  12 C12           -1.4070     3.5356    -3.3386 C.ar    
  13 C13           -0.6381     3.5400    -4.5108 C.ar    
  14 C14            0.5749     2.9264    -4.5523 C.ar    
  15 O15            0.0194     0.8954     2.2091 O.2     
  16 C16           -2.7271     4.2117    -3.3192 C.ar    
  17 C17           -1.1245     2.1721     0.1912 C.ar    
  18 C18           -1.2166     3.5492     0.3601 C.ar    
  19 C19           -2.4522     4.1519     0.4542 C.ar    
  20 C20           -3.6113     3.3792     0.3795 C.ar    
  21 C21           -3.5163     1.9982     0.2095 C.ar    
  22 C22           -2.2780     1.4008     0.1107 C.ar    
  23 C23           -4.9415     4.0248     0.4809 C.ar    
  24 C24           -3.1515     4.9861    -4.4023 C.ar    
  25 N25           -4.3344     5.5721    -4.3474 N.ar    
  26 C26           -5.1136     5.4330    -3.2844 C.ar    
  27 N27           -4.7461     4.7075    -2.2379 N.ar    
  28 C28           -3.5805     4.0857    -2.2197 C.ar    
  29 N29           -6.3452     6.0632    -3.2664 N.pl3   
  30 C30           -5.2317     4.8577     1.5623 C.ar    
  31 C31           -6.4669     5.4573     1.6577 C.ar    
  32 C32           -7.4303     5.2322     0.6709 C.ar    
  33 C33           -7.1386     4.3984    -0.4117 C.ar    
  34 C34           -5.9010     3.8039    -0.5080 C.ar    
  35 C35           -8.7562     5.8747     0.7725 C.2     
  36 O36           -9.0097     6.5998     1.7149 O.2     
  37 N37           -9.6851     5.6573    -0.1795 N.am    
  38 C38          -11.0003     6.2947    -0.0787 C.3     
  39 C39          -11.6141     6.4251    -1.4754 C.3     
  40 C40          -13.0125     7.0356    -1.3578 C.3     
  41 N41          -13.8529     6.1779    -0.5124 N.3     
  42 C42          -13.3086     6.0760     0.8477 C.3     
  43 C43          -11.9190     5.4369     0.7959 C.3     
  44 C44          -15.2407     6.6590    -0.4894 C.3     
  45 C45           -4.7664     1.1605     0.1283 C.3     
  46 F46           -4.4205    -0.1950     0.1324 F       
  47 F47           -5.5848     1.4363     1.2290 F       
  48 F48           -5.4544     1.4627    -1.0517 F       
  49 H49            2.3102    -0.2024     1.9610 H       
  50 H50            3.5889    -0.1477    -0.1202 H       
  51 H51            3.7453     0.5843    -2.4908 H       
  52 H52           -1.5332     2.8990    -1.2961 H       
  53 H53           -1.0142     4.0370    -5.3928 H       
  54 H54            1.1541     2.9399    -5.4638 H       
  55 H55           -0.3189     4.1469     0.4179 H       
  56 H56           -2.5232     5.2214     0.5861 H       
  57 H57           -2.2039     0.3319    -0.0249 H       
  58 H58           -2.5216     5.1040    -5.2716 H       
  59 H59           -3.2875     3.4959    -1.3637 H       
  60 H60           -6.6275     6.5978    -4.0250 H       
  61 H61           -6.9262     5.9705    -2.4953 H       
  62 H62           -4.4869     5.0315     2.3249 H       
  63 H63           -6.6915     6.1013     2.4950 H       
  64 H64           -7.8826     4.2238    -1.1749 H       
  65 H65           -5.6752     3.1597    -1.3449 H       
  66 H66           -9.4828     5.0788    -0.9313 H       
  67 H67          -10.8925     7.2842     0.3657 H       
  68 H68          -10.9861     7.0700    -2.0901 H       
  69 H69          -11.6848     5.4395    -1.9353 H       
  70 H70          -12.9397     8.0269    -0.9104 H       
  71 H71          -13.4580     7.1166    -2.3493 H       
  72 H72          -13.2343     7.0718     1.2847 H       
  73 H73          -13.9691     5.4601     1.4580 H       
  74 H74          -11.9945     4.4357     0.3717 H       
  75 H75          -11.5088     5.3757     1.8039 H       
  76 H76          -15.6438     6.6541    -1.5021 H       
  77 H77          -15.8412     6.0058     0.1438 H       
  78 H78          -15.2668     7.6739    -0.0928 H       
@<TRIPOS>BOND
   1    1    2 am
   2    1   10 1
   3    1   17 1
   4    2    3 1
   5    2   15 2
   6    3    4 2
   7    3   49 1
   8    4    5 1
   9    4   50 1
  10    5    6 ar
  11    5   10 ar
  12    6    7 ar
  13    6   51 1
  14    7    8 ar
  15    8    9 ar
  16    8   14 ar
  17    9   10 ar
  18    9   11 ar
  19   11   12 ar
  20   11   52 1
  21   12   13 ar
  22   12   16 1
  23   13   14 ar
  24   13   53 1
  25   14   54 1
  26   16   24 ar
  27   16   28 ar
  28   17   18 ar
  29   17   22 ar
  30   18   19 ar
  31   18   55 1
  32   19   20 ar
  33   19   56 1
  34   20   21 ar
  35   20   23 1
  36   21   22 ar
  37   21   45 1
  38   22   57 1
  39   23   30 ar
  40   23   34 ar
  41   24   25 ar
  42   24   58 1
  43   25   26 ar
  44   26   27 ar
  45   26   29 1
  46   27   28 ar
  47   28   59 1
  48   29   60 1
  49   29   61 1
  50   30   31 ar
  51   30   62 1
  52   31   32 ar
  53   31   63 1
  54   32   33 ar
  55   32   35 1
  56   33   34 ar
  57   33   64 1
  58   34   65 1
  59   35   36 2
  60   35   37 am
  61   37   38 1
  62   37   66 1
  63   38   39 1
  64   38   43 1
  65   38   67 1
  66   39   40 1
  67   39   68 1
  68   39   69 1
  69   40   41 1
  70   40   70 1
  71   40   71 1
  72   41   42 1
  73   41   44 1
  74   42   43 1
  75   42   72 1
  76   42   73 1
  77   43   74 1
  78   43   75 1
  79   44   76 1
  80   44   77 1
  81   44   78 1
  82   45   46 1
  83   45   47 1
  84   45   48 1

#	End of record

