#	Name: ASD03430268
#	Creating user name:	WinNT
#	Creation time:	15. 06. 2019 20:40

#	Modifying user name:	WinNT
#	Modification time:	15. 06. 2019 20:40

#	Program:	/corina/corina34_cracker 3.40 0067  02.08.2006

@<TRIPOS>MOLECULE
ASD03430268
  52   57    0    0    0
SMALL
NO_CHARGES


@<TRIPOS>ATOM
   1 C1            -0.3614     1.0731     1.3269 C.ar    
   2 C2            -0.2474    -0.2703     1.0043 C.ar    
   3 C3             0.9899    -0.8174     0.7372 C.ar    
   4 C4             2.1388    -0.0346     0.7979 C.ar    
   5 C5             2.0205     1.3139     1.1188 C.ar    
   6 C6             0.7786     1.8665     1.3831 C.ar    
   7 O7             3.2540    -0.7720     0.5280 O.3     
   8 C8             1.4337    -2.2010     0.3442 C.3     
   9 C9             2.8703    -1.9833    -0.1504 C.3     
  10 C10            0.5400    -4.1988     1.0731 C.ar    
  11 C11            1.3761    -3.1660     1.4910 C.ar    
  12 C12            0.5611    -2.7976    -0.7224 C.2     
  13 N13            0.0809    -3.9540    -0.2234 N.am    
  14 O14            0.3325    -2.3301    -1.8180 O.2     
  15 C15            1.9489    -3.1914     2.7425 C.ar    
  16 C16            1.6971    -4.2490     3.5988 C.ar    
  17 C17            0.8691    -5.2797     3.1943 C.ar    
  18 C18            0.2927    -5.2591     1.9409 C.ar    
  19 O19           -1.5917     1.5990     1.5794 O.3     
  20 C20           -1.6259     2.8602     2.2564 C.3     
  21 C21           -0.6034     3.7906     1.5901 C.3     
  22 O22            0.6902     3.1878     1.7002 O.3     
  23 C23           -0.8172    -4.8503    -0.9557 C.3     
  24 C24           -2.2603    -4.3670    -0.7977 C.3     
  25 C25           -2.6904    -4.4434     0.6841 C.3     
  26 C26           -4.1787    -4.8444     0.5600 C.3     
  27 C27           -4.2651    -5.5393    -0.7810 C.2     
  28 N28           -3.1764    -5.2591    -1.5179 N.am    
  29 O29           -5.1832    -6.2463    -1.1391 O.2     
  30 C30           -2.9351    -5.7780    -2.8665 C.3     
  31 H31           -1.1305    -0.8906     0.9623 H       
  32 H32            2.9035     1.9342     1.1623 H       
  33 H33            2.8906    -1.8445    -1.2314 H       
  34 H34            3.5118    -2.8130     0.1465 H       
  35 H35            2.5957    -2.3854     3.0562 H       
  36 H36            2.1466    -4.2694     4.5806 H       
  37 H37            0.6728    -6.1052     3.8626 H       
  38 H38           -0.3527    -6.0681     1.6320 H       
  39 H39           -2.6231     3.2930     2.1772 H       
  40 H40           -1.3671     2.7211     3.3060 H       
  41 H41           -0.8580     3.9238     0.5386 H       
  42 H42           -0.6028     4.7572     2.0939 H       
  43 H43           -0.5479    -4.8511    -2.0119 H       
  44 H44           -0.7267    -5.8607    -0.5569 H       
  45 H45           -2.3581    -3.3460    -1.1666 H       
  46 H46           -2.1236    -5.2076     1.2159 H       
  47 H47           -2.5870    -3.4736     1.1708 H       
  48 H48           -4.4579    -5.5274     1.3623 H       
  49 H49           -4.8146    -3.9592     0.5727 H       
  50 H50           -3.7241    -6.4818    -3.1316 H       
  51 H51           -2.9306    -4.9523    -3.5781 H       
  52 H52           -1.9711    -6.2860    -2.8932 H       
@<TRIPOS>BOND
   1    1    2 ar
   2    1    6 ar
   3    1   19 1
   4    2    3 ar
   5    2   31 1
   6    3    4 ar
   7    3    8 1
   8    4    5 ar
   9    4    7 1
  10    5    6 ar
  11    5   32 1
  12    6   22 1
  13    7    9 1
  14    8    9 1
  15    8   11 1
  16    8   12 1
  17    9   33 1
  18    9   34 1
  19   10   11 ar
  20   10   13 1
  21   10   18 ar
  22   11   15 ar
  23   12   13 am
  24   12   14 2
  25   13   23 1
  26   15   16 ar
  27   15   35 1
  28   16   17 ar
  29   16   36 1
  30   17   18 ar
  31   17   37 1
  32   18   38 1
  33   19   20 1
  34   20   21 1
  35   20   39 1
  36   20   40 1
  37   21   22 1
  38   21   41 1
  39   21   42 1
  40   23   24 1
  41   23   43 1
  42   23   44 1
  43   24   25 1
  44   24   28 1
  45   24   45 1
  46   25   26 1
  47   25   46 1
  48   25   47 1
  49   26   27 1
  50   26   48 1
  51   26   49 1
  52   27   28 am
  53   27   29 2
  54   28   30 1
  55   30   50 1
  56   30   51 1
  57   30   52 1

#	End of record

