#	Name: ASD04230102
#	Creating user name:	WinNT
#	Creation time:	15. 06. 2019 20:48

#	Modifying user name:	WinNT
#	Modification time:	15. 06. 2019 20:48

#	Program:	/corina/corina34_cracker 3.40 0067  02.08.2006

@<TRIPOS>MOLECULE
ASD04230102
  49   53    0    0    0
SMALL
NO_CHARGES


@<TRIPOS>ATOM
   1 C1             1.5360     4.6862     1.7198 C.ar    
   2 C2             2.5439     5.3840     2.3696 C.ar    
   3 C3             3.8005     4.8590     2.4681 C.ar    
   4 C4             4.0825     3.6081     1.9003 C.ar    
   5 C5             3.0564     2.8818     1.2692 C.ar    
   6 C6             1.7832     3.4397     1.1726 C.ar    
   7 C7             5.3934     3.0678     1.9619 C.2     
   8 C8             5.6628     1.9284     1.2155 C.2     
   9 C9             4.5671     1.3877     0.3904 C.2     
  10 O10            3.2979     1.6422     0.7793 O.3     
  11 C11            6.9879     1.2871     1.2463 C.2     
  12 N12            7.2188     0.1818     0.5104 N.am    
  13 O13            7.8740     1.7548     1.9358 O.2     
  14 C14            8.5059    -0.3623     0.4509 C.ar    
  15 C15            8.6754    -1.7390     0.3687 C.ar    
  16 C16            9.9458    -2.2802     0.3102 C.ar    
  17 C17           11.0532    -1.4564     0.3326 C.ar    
  18 C18           10.8927    -0.0741     0.4150 C.ar    
  19 C19            9.6135     0.4724     0.4682 C.ar    
  20 C20           12.0822     0.8128     0.4397 C.ar    
  21 O21            4.7981     0.7334    -0.6092 O.2     
  22 C22           13.3559     0.2651     0.3808 C.ar    
  23 C23           14.4662     1.1091     0.4043 C.ar    
  24 C24           14.2883     2.5027     0.4872 C.ar    
  25 C25           13.0009     3.0295     0.5449 C.ar    
  26 C26           11.9175     2.1998     0.5166 C.ar    
  27 C27           15.9138     0.8871     0.3601 C.2     
  28 C28           16.4973     2.0946     0.4157 C.2     
  29 N29           15.5423     3.0714     0.4920 N.pl3   
  30 O30            0.7869     2.7610     0.5436 O.3     
  31 C31           -0.4923     3.3951     0.4831 C.3     
  32 H32            0.5488     5.1178     1.6445 H       
  33 H33            2.3328     6.3514     2.8009 H       
  34 H34            4.5764     5.4065     2.9824 H       
  35 H35            6.1576     3.5287     2.5701 H       
  36 H36            6.4924    -0.2364     0.0222 H       
  37 H37            7.8122    -2.3878     0.3508 H       
  38 H38           10.0724    -3.3509     0.2471 H       
  39 H39           12.0443    -1.8829     0.2867 H       
  40 H40            9.4841     1.5428     0.5317 H       
  41 H41           13.4864    -0.8051     0.3176 H       
  42 H42           12.8589     4.0983     0.6086 H       
  43 H43           10.9228     2.6181     0.5614 H       
  44 H44           16.4160    -0.0669     0.2956 H       
  45 H45           17.5630     2.2693     0.4020 H       
  46 H46           15.7220     4.0234     0.5417 H       
  47 H47           -0.8555     3.5777     1.4944 H       
  48 H48           -0.4032     4.3429    -0.0477 H       
  49 H49           -1.1939     2.7482    -0.0437 H       
@<TRIPOS>BOND
   1    1    2 ar
   2    1    6 ar
   3    1   32 1
   4    2    3 ar
   5    2   33 1
   6    3    4 ar
   7    3   34 1
   8    4    5 ar
   9    4    7 1
  10    5    6 ar
  11    5   10 1
  12    6   30 1
  13    7    8 2
  14    7   35 1
  15    8    9 1
  16    8   11 1
  17    9   10 1
  18    9   21 2
  19   11   12 am
  20   11   13 2
  21   12   14 1
  22   12   36 1
  23   14   15 ar
  24   14   19 ar
  25   15   16 ar
  26   15   37 1
  27   16   17 ar
  28   16   38 1
  29   17   18 ar
  30   17   39 1
  31   18   19 ar
  32   18   20 1
  33   19   40 1
  34   20   22 ar
  35   20   26 ar
  36   22   23 ar
  37   22   41 1
  38   23   24 ar
  39   23   27 1
  40   24   25 ar
  41   24   29 1
  42   25   26 ar
  43   25   42 1
  44   26   43 1
  45   27   28 2
  46   27   44 1
  47   28   29 1
  48   28   45 1
  49   29   46 1
  50   30   31 1
  51   31   47 1
  52   31   48 1
  53   31   49 1

#	End of record

