#	Name: ASD02030653
#	Creating user name:	WinNT
#	Creation time:	15. 06. 2019 20:15

#	Modifying user name:	WinNT
#	Modification time:	15. 06. 2019 20:15

#	Program:	/corina/corina34_cracker 3.40 0067  02.08.2006

@<TRIPOS>MOLECULE
ASD02030653
  38   41    0    0    0
SMALL
NO_CHARGES


@<TRIPOS>ATOM
   1 C1             0.1789     1.3495    -0.1374 C.2     
   2 N2             0.0958    -0.0112    -0.0669 N.am    
   3 N3             2.4424    -0.1242     0.0737 N.2     
   4 C4             2.5641     1.1960     0.0066 C.2     
   5 C5             1.4285     1.9704    -0.1007 C.2     
   6 C6            -1.0467    -0.7719    -0.0902 C.2     
   7 C7            -0.9428    -2.0870    -0.0120 C.2     
   8 S8             0.7943    -2.4182     0.1052 S.3     
   9 C9             1.2600    -0.7097     0.0379 C.2     
  10 O10           -0.8360     2.0209    -0.2373 O.2     
  11 C11            3.9259     1.8401     0.0496 C.3     
  12 N12            4.3385     2.0173     1.4441 N.pl3   
  13 C13            4.6046     2.9282     3.4241 C.2     
  14 N14            4.0807     3.1381     2.2437 N.2     
  15 C15            5.0292     1.1268     2.1871 C.2     
  16 C16            5.2093     1.6671     3.4161 C.2     
  17 C17            4.5614     3.8799     4.5917 C.3     
  18 Cl18           5.5862    -0.4314     1.6620 Cl      
  19 F19            3.7724     4.9872     4.2619 F       
  20 F20            4.0125     3.2305     5.7026 F       
  21 F21            5.8592     4.3056     4.8946 F       
  22 C22           -2.0648    -3.0930    -0.0206 C.3     
  23 F23           -3.2904    -2.4254     0.0774 F       
  24 F24           -2.0262    -3.8244    -1.2126 F       
  25 F25           -1.9195    -3.9630     1.0653 F       
  26 C26           -2.3993    -0.1170    -0.2027 C.3     
  27 C27           -2.6668     0.7438    -1.4390 C.3     
  28 C28           -3.3402    -0.6228    -1.2981 C.3     
  29 C29           -1.5832     0.8689    -2.4274 C.1     
  30 N30           -0.7470     0.9655    -3.1903 N.1     
  31 H31            1.5050     3.0462    -0.1562 H       
  32 H32            4.6456     1.2028    -0.4642 H       
  33 H33            3.8840     2.8115    -0.4431 H       
  34 H34            5.7279     1.2057     4.2435 H       
  35 H35           -2.8474     0.2012     0.7386 H       
  36 H36           -3.2911     1.6281    -1.3111 H       
  37 H37           -2.9808    -1.4292    -1.9373 H       
  38 H38           -4.4075    -0.6376    -1.0775 H       
@<TRIPOS>BOND
   1    1    2 am
   2    1    5 1
   3    1   10 2
   4    2    6 1
   5    2    9 1
   6    3    4 1
   7    3    9 2
   8    4    5 2
   9    4   11 1
  10    5   31 1
  11    6    7 2
  12    6   26 1
  13    7    8 1
  14    7   22 1
  15    8    9 1
  16   11   12 1
  17   11   32 1
  18   11   33 1
  19   12   15 1
  20   12   14 1
  21   13   14 2
  22   13   16 1
  23   13   17 1
  24   15   16 2
  25   15   18 1
  26   16   34 1
  27   17   19 1
  28   17   20 1
  29   17   21 1
  30   22   23 1
  31   22   24 1
  32   22   25 1
  33   26   27 1
  34   26   28 1
  35   26   35 1
  36   27   28 1
  37   27   29 1
  38   27   36 1
  39   28   37 1
  40   28   38 1
  41   29   30 3

#	End of record

