#	Name: ASD01890089
#	Creating user name:	WinNT
#	Creation time:	15. 06. 2019 19:50

#	Modifying user name:	WinNT
#	Modification time:	15. 06. 2019 19:50

#	Program:	/corina/corina34_cracker 3.40 0067  02.08.2006

@<TRIPOS>MOLECULE
ASD01890089
  57   58    0    0    0
SMALL
NO_CHARGES


@<TRIPOS>ATOM
   1 C1             0.0436     1.6083     0.2257 C.2     
   2 C2             0.0612     0.1083     0.0823 C.3     
   3 C3             1.4858    -0.3682    -0.0376 C.2     
   4 O4             0.9027     2.1639     0.8685 O.2     
   5 O5            -0.9234     2.3277    -0.3652 O.3     
   6 O6             1.9357    -1.1387     0.7772 O.2     
   7 O7             2.2550     0.0633    -1.0495 O.3     
   8 C8            -0.5881    -0.5293     1.3123 C.3     
   9 C9            -1.9851     0.0607     1.5151 C.3     
  10 C10           -2.5663    -0.4566     2.8057 C.2     
  11 C11           -0.6966    -2.0185     1.1079 C.ar    
  12 C12           -0.0648    -2.8838     1.9814 C.ar    
  13 C13           -0.1643    -4.2498     1.7939 C.ar    
  14 C14           -0.8959    -4.7504     0.7333 C.ar    
  15 C15           -1.5284    -3.8851    -0.1397 C.ar    
  16 C16           -1.4325    -2.5192     0.0503 C.ar    
  17 O17           -1.9264    -1.2218     3.4951 O.2     
  18 C18           -3.9106    -0.0332     3.2292 C.ar    
  19 C19           -4.4535    -0.5111     4.4262 C.ar    
  20 C20           -5.7138    -0.1097     4.8161 C.ar    
  21 C21           -6.4412     0.7634     4.0261 C.ar    
  22 C22           -5.9109     1.2408     2.8402 C.ar    
  23 C23           -4.6495     0.8536     2.4396 C.ar    
  24 C24           -7.8182     1.1961     4.4593 C.3     
  25 C25           -7.7102     2.4610     5.3133 C.3     
  26 C26           -0.8776     3.7677    -0.1844 C.3     
  27 C27           -2.0510     4.4122    -0.9251 C.3     
  28 C28            3.6170    -0.4372    -1.1021 C.3     
  29 C29            4.3336     0.1608    -2.3144 C.3     
  30 H30           -0.4940    -0.1778    -0.8110 H       
  31 H31            0.0231    -0.3269     2.1918 H       
  32 H32           -1.9177     1.1478     1.5570 H       
  33 H33           -2.6272    -0.2318     0.6844 H       
  34 H34            0.5068    -2.4927     2.8101 H       
  35 H35            0.3298    -4.9258     2.4759 H       
  36 H36           -0.9731    -5.8176     0.5864 H       
  37 H37           -2.0997    -4.2762    -0.9686 H       
  38 H38           -1.9297    -1.8432    -0.6296 H       
  39 H39           -3.8874    -1.1930     5.0433 H       
  40 H40           -6.1344    -0.4779     5.7401 H       
  41 H41           -6.4847     1.9218     2.2292 H       
  42 H42           -4.2350     1.2308     1.5164 H       
  43 H43           -8.4277     1.4027     3.5795 H       
  44 H44           -8.2817     0.4015     5.0439 H       
  45 H45           -8.7061     2.7740     5.6266 H       
  46 H46           -7.1007     2.2544     6.1931 H       
  47 H47           -7.2467     3.2557     4.7287 H       
  48 H48           -0.9452     4.0028     0.8778 H       
  49 H49            0.0602     4.1543    -0.5831 H       
  50 H50           -2.0166     5.4932    -0.7894 H       
  51 H51           -1.9834     4.1771    -1.9873 H       
  52 H52           -2.9889     4.0256    -0.5263 H       
  53 H53            4.1441    -0.1526    -0.1915 H       
  54 H54            3.6017    -1.5237    -1.1886 H       
  55 H55            4.3489     1.2473    -2.2280 H       
  56 H56            5.3560    -0.2149    -2.3540 H       
  57 H57            3.8064    -0.1238    -3.2250 H       
@<TRIPOS>BOND
   1    1    2 1
   2    1    4 2
   3    1    5 1
   4    2    3 1
   5    2    8 1
   6    2   30 1
   7    3    6 2
   8    3    7 1
   9    5   26 1
  10    7   28 1
  11    8    9 1
  12    8   11 1
  13    8   31 1
  14    9   10 1
  15    9   32 1
  16    9   33 1
  17   10   17 2
  18   10   18 1
  19   11   12 ar
  20   11   16 ar
  21   12   13 ar
  22   12   34 1
  23   13   14 ar
  24   13   35 1
  25   14   15 ar
  26   14   36 1
  27   15   16 ar
  28   15   37 1
  29   16   38 1
  30   18   19 ar
  31   18   23 ar
  32   19   20 ar
  33   19   39 1
  34   20   21 ar
  35   20   40 1
  36   21   22 ar
  37   21   24 1
  38   22   23 ar
  39   22   41 1
  40   23   42 1
  41   24   25 1
  42   24   43 1
  43   24   44 1
  44   25   45 1
  45   25   46 1
  46   25   47 1
  47   26   27 1
  48   26   48 1
  49   26   49 1
  50   27   50 1
  51   27   51 1
  52   27   52 1
  53   28   29 1
  54   28   53 1
  55   28   54 1
  56   29   55 1
  57   29   56 1
  58   29   57 1

#	End of record

