#	Name: ASD01883282
#	Creating user name:	WinNT
#	Creation time:	15. 06. 2019 19:46

#	Modifying user name:	WinNT
#	Modification time:	15. 06. 2019 19:46

#	Program:	/corina/corina34_cracker 3.40 0067  02.08.2006

@<TRIPOS>MOLECULE
ASD01883282
  44   46    0    0    0
SMALL
NO_CHARGES


@<TRIPOS>ATOM
   1 N1            -0.0162     1.3417     0.0094 N.am    
   2 C2             0.0021    -0.0041     0.0020 C.2     
   3 C3            -1.2163    -0.7274     0.0098 C.2     
   4 C4            -2.4260    -0.0114     0.0252 C.2     
   5 C5            -2.3786     1.3964     0.0323 C.2     
   6 C6            -1.1850     2.0323     0.0299 C.2     
   7 O7             1.0656    -0.6000    -0.0117 O.2     
   8 C8            -1.2154    -2.1594     0.0016 C.1     
   9 N9            -1.2147    -3.2954    -0.0049 N.1     
  10 C10            1.2512     2.0764     0.0013 C.3     
  11 C11            1.6787     2.3400    -1.4440 C.3     
  12 C12            3.0023     3.1073    -1.4525 C.3     
  13 C13            4.1049     2.2288    -0.8581 C.3     
  14 C14            3.3667     3.4796    -2.8911 C.3     
  15 C15           -3.7222    -0.7218     0.0332 C.ar    
  16 C16           -4.5713    -0.6166     1.1373 C.ar    
  17 C17           -5.7786    -1.2801     1.1414 C.ar    
  18 C18           -6.1519    -2.0541     0.0486 C.ar    
  19 C19           -5.3093    -2.1611    -1.0519 C.ar    
  20 C20           -4.1034    -1.4954    -1.0655 C.ar    
  21 N21           -7.3792    -2.7278     0.0567 N.pl3   
  22 N22           -8.3358    -2.7222     1.0832 N.2     
  23 N23           -9.3233    -3.4601     0.7112 N.2     
  24 C24           -9.0856    -3.9595    -0.5024 C.2     
  25 C25           -7.8861    -3.5153    -0.9335 C.2     
  26 H26           -3.2950     1.9677     0.0437 H       
  27 H27           -1.1611     3.1120     0.0358 H       
  28 H28            1.1241     3.0259     0.5214 H       
  29 H29            2.0168     1.4860     0.5046 H       
  30 H30            1.8057     1.3906    -1.9642 H       
  31 H31            0.9131     2.9305    -1.9474 H       
  32 H32            2.9001     4.0147    -0.8572 H       
  33 H33            4.2071     1.3215    -1.4534 H       
  34 H34            5.0479     2.7755    -0.8642 H       
  35 H35            3.8453     1.9636     0.1668 H       
  36 H36            2.5812     4.1055    -3.3146 H       
  37 H37            4.3097     4.0263    -2.8971 H       
  38 H38            3.4689     2.5723    -3.4864 H       
  39 H39           -4.2816    -0.0160     1.9869 H       
  40 H40           -6.4356    -1.1992     1.9947 H       
  41 H41           -5.6024    -2.7636    -1.8990 H       
  42 H42           -3.4493    -1.5790    -1.9209 H       
  43 H43           -9.7479    -4.6109    -1.0531 H       
  44 H44           -7.4161    -3.7445    -1.8784 H       
@<TRIPOS>BOND
   1    1    2 am
   2    1   10 1
   3    1    6 1
   4    2    3 1
   5    2    7 2
   6    3    4 2
   7    3    8 1
   8    4    5 1
   9    4   15 1
  10    5    6 2
  11    5   26 1
  12    6   27 1
  13    8    9 3
  14   10   11 1
  15   10   28 1
  16   10   29 1
  17   11   12 1
  18   11   30 1
  19   11   31 1
  20   12   13 1
  21   12   14 1
  22   12   32 1
  23   13   33 1
  24   13   34 1
  25   13   35 1
  26   14   36 1
  27   14   37 1
  28   14   38 1
  29   15   16 ar
  30   15   20 ar
  31   16   17 ar
  32   16   39 1
  33   17   18 ar
  34   17   40 1
  35   18   19 ar
  36   18   21 1
  37   19   20 ar
  38   19   41 1
  39   20   42 1
  40   21   22 1
  41   21   25 1
  42   22   23 2
  43   23   24 1
  44   24   25 2
  45   24   43 1
  46   25   44 1

#	End of record

