#	Name: ASD04880034
#	Creating user name:	WinNT
#	Creation time:	15. 06. 2019 20:52

#	Modifying user name:	WinNT
#	Modification time:	15. 06. 2019 20:52

#	Program:	/corina/corina34_cracker 3.40 0067  02.08.2006

@<TRIPOS>MOLECULE
ASD04880034
  78   83    0    0    0
SMALL
NO_CHARGES


@<TRIPOS>ATOM
   1 C1             0.1034     1.1570     0.0599 C.ar    
   2 C2             0.0416    -0.2314     0.0742 C.ar    
   3 C3            -1.1779    -0.8690     0.1394 C.ar    
   4 C4            -2.3569    -0.1209     0.1913 C.ar    
   5 C5            -2.2974     1.2759     0.1769 C.ar    
   6 C6            -1.0721     1.9116     0.1173 C.ar    
   7 N7            -1.0082     3.3112     0.1032 N.am    
   8 C8            -1.9724     4.0236    -0.5126 C.2     
   9 C9            -1.9741     5.4948    -0.4211 C.2     
  10 O10           -2.8411     3.4526    -1.1440 O.2     
  11 N11            1.3381     1.7974    -0.0061 N.3     
  12 C12            1.4897     2.5195    -1.2770 C.3     
  13 C13            2.4378     0.8421     0.1879 C.3     
  14 C14            3.7702     1.5952     0.1879 C.3     
  15 N15            3.9218     2.3173    -1.0830 N.3     
  16 C16            2.8220     3.2727    -1.2770 C.3     
  17 C17            5.1603     2.9597    -1.1492 C.ar    
  18 C18            6.0567     2.6404    -2.1609 C.ar    
  19 C19            5.4960     3.9234    -0.2064 C.ar    
  20 C20            6.7212     4.5564    -0.2747 C.ar    
  21 C21            7.6137     4.2324    -1.2804 C.ar    
  22 C22            7.2807     3.2775    -2.2233 C.ar    
  23 C23            5.6946     1.5998    -3.1890 C.3     
  24 C24           -3.6627    -0.8039     0.2606 C.2     
  25 O25           -4.6882    -0.1521     0.3057 O.2     
  26 N26           -3.7189    -2.1505     0.2739 N.am    
  27 N27           -1.0716     6.2643     0.2459 N.2     
  28 C28           -2.8753     6.3395    -0.9927 C.2     
  29 O29           -2.5078     7.5873    -0.6599 O.3     
  30 C30           -1.4036     7.5116     0.0964 C.2     
  31 C31           -0.6644     8.6874     0.6813 C.3     
  32 C32           -0.1004     9.7231    -0.2935 C.3     
  33 C33           -1.3211    10.0642     0.5635 C.3     
  34 C34           -5.0156    -2.8288     0.3427 C.3     
  35 C35           -4.8918    -4.2284    -0.2628 C.3     
  36 C36           -5.4549    -2.9422     1.8038 C.3     
  37 C37           -6.8091    -3.6507     1.8757 C.3     
  38 C38           -6.6853    -5.0503     1.2702 C.3     
  39 C39           -6.2460    -4.9368    -0.1909 C.3     
  40 O40           -4.4814    -4.1224    -1.6275 O.3     
  41 O41           -7.2161    -4.1853    -0.9230 O.3     
  42 H42            0.9515    -0.8116     0.0339 H       
  43 H43           -1.2226    -1.9480     0.1500 H       
  44 H44           -3.2071     1.8567     0.2166 H       
  45 H45           -0.2701     3.7674     0.5367 H       
  46 H46            1.4737     1.8088    -2.1032 H       
  47 H47            0.6706     3.2295    -1.3917 H       
  48 H48            2.3101     0.3291     1.1411 H       
  49 H49            2.4326     0.1123    -0.6218 H       
  50 H50            3.7862     2.3059     1.0141 H       
  51 H51            4.5893     0.8852     0.3026 H       
  52 H52            2.9498     3.7856    -2.2302 H       
  53 H53            2.8273     4.0024    -0.4674 H       
  54 H54            4.7993     4.1774     0.5787 H       
  55 H55            6.9828     5.3057     0.4578 H       
  56 H56            8.5711     4.7295    -1.3319 H       
  57 H57            7.9799     3.0268    -3.0073 H       
  58 H58            5.1964     2.0794    -4.0315 H       
  59 H59            6.6000     1.1027    -3.5373 H       
  60 H60            5.0256     0.8646    -2.7418 H       
  61 H61           -2.9009    -2.6704     0.2379 H       
  62 H62           -3.7243     6.0594    -1.5986 H       
  63 H63           -0.0888     8.4794     1.5832 H       
  64 H64            0.8460    10.1968    -0.0326 H       
  65 H65           -0.2641     9.5540    -1.3578 H       
  66 H66           -2.2878    10.1196     0.0631 H       
  67 H67           -1.1778    10.7624     1.3883 H       
  68 H68           -5.7556    -2.2555    -0.2158 H       
  69 H69           -4.1517    -4.8017     0.2956 H       
  70 H70           -4.7149    -3.5155     2.3623 H       
  71 H71           -5.5431    -1.9451     2.2352 H       
  72 H72           -7.1221    -3.7315     2.9167 H       
  73 H73           -7.5491    -3.0774     1.3173 H       
  74 H74           -5.9453    -5.6236     1.8287 H       
  75 H75           -7.6500    -5.5550     1.3214 H       
  76 H76           -6.1577    -5.9340    -0.6223 H       
  77 H77           -4.3824    -4.9736    -2.0756 H       
  78 H78           -8.1005    -4.5765    -0.9205 H       
@<TRIPOS>BOND
   1    1    2 ar
   2    1   11 1
   3    1    6 ar
   4    2    3 ar
   5    2   42 1
   6    3    4 ar
   7    3   43 1
   8    4    5 ar
   9    4   24 1
  10    5    6 ar
  11    5   44 1
  12    6    7 1
  13    7    8 am
  14    7   45 1
  15    8    9 1
  16    8   10 2
  17    9   27 1
  18    9   28 2
  19   11   12 1
  20   11   13 1
  21   12   16 1
  22   12   46 1
  23   12   47 1
  24   13   14 1
  25   13   48 1
  26   13   49 1
  27   14   15 1
  28   14   50 1
  29   14   51 1
  30   15   16 1
  31   15   17 1
  32   16   52 1
  33   16   53 1
  34   17   18 ar
  35   17   19 ar
  36   18   23 1
  37   18   22 ar
  38   19   20 ar
  39   19   54 1
  40   20   21 ar
  41   20   55 1
  42   21   22 ar
  43   21   56 1
  44   22   57 1
  45   23   58 1
  46   23   59 1
  47   23   60 1
  48   24   25 2
  49   24   26 am
  50   26   34 1
  51   26   61 1
  52   27   30 2
  53   28   29 1
  54   28   62 1
  55   29   30 1
  56   30   31 1
  57   31   32 1
  58   31   33 1
  59   31   63 1
  60   32   33 1
  61   32   64 1
  62   32   65 1
  63   33   66 1
  64   33   67 1
  65   34   35 1
  66   34   36 1
  67   34   68 1
  68   35   40 1
  69   35   39 1
  70   35   69 1
  71   36   37 1
  72   36   70 1
  73   36   71 1
  74   37   38 1
  75   37   72 1
  76   37   73 1
  77   38   39 1
  78   38   74 1
  79   38   75 1
  80   39   41 1
  81   39   76 1
  82   40   77 1
  83   41   78 1

#	End of record

