#	Name: ASD01811389
#	Creating user name:	WinNT
#	Creation time:	15. 06. 2019 19:26

#	Modifying user name:	WinNT
#	Modification time:	15. 06. 2019 19:26

#	Program:	/corina/corina34_cracker 3.40 0067  02.08.2006

@<TRIPOS>MOLECULE
ASD01811389
  15   15    0    0    0
SMALL
NO_CHARGES


@<TRIPOS>ATOM
   1 C1            -0.0167     1.3785     0.0096 C.ar    
   2 C2             0.0021    -0.0041     0.0020 C.ar    
   3 C3             1.2217    -0.6632    -0.0131 C.ar    
   4 C4             2.3824     0.0951    -0.0201 C.ar    
   5 C5             2.2871     1.4737    -0.0118 C.ar    
   6 N6             1.1092     2.0688     0.0026 N.ar    
   7 C7            -1.2870    -0.7846     0.0106 C.3     
   8 Br8           -1.6729     2.2911     0.0224 Br      
   9 O9             1.0511     3.4836     0.0102 O.3     
  10 H10            1.2665    -1.7423    -0.0190 H       
  11 H11            3.3494    -0.3859    -0.0316 H       
  12 H12            3.1869     2.0710    -0.0172 H       
  13 H13           -1.6080    -0.9673    -1.0149 H       
  14 H14           -1.1318    -1.7369     0.5178 H       
  15 H15           -2.0536    -0.2143     0.5351 H       
@<TRIPOS>BOND
   1    1    2 ar
   2    1    6 ar
   3    1    8 1
   4    2    3 ar
   5    2    7 1
   6    3    4 ar
   7    3   10 1
   8    4    5 ar
   9    4   11 1
  10    5    6 ar
  11    5   12 1
  12    6    9 1
  13    7   13 1
  14    7   14 1
  15    7   15 1

#	End of record

