#	Name: ASD01915170
#	Creating user name:	WinNT
#	Creation time:	15. 06. 2019 20:05

#	Modifying user name:	WinNT
#	Modification time:	15. 06. 2019 20:05

#	Program:	/corina/corina34_cracker 3.40 0067  02.08.2006

@<TRIPOS>MOLECULE
ASD01915170
  38   41    0    0    0
SMALL
NO_CHARGES


@<TRIPOS>ATOM
   1 C1             0.1081     1.5997     0.0319 C.ar    
   2 C2             0.1601     0.2157     0.0597 C.ar    
   3 C3            -1.0077    -0.5240     0.1006 C.ar    
   4 C4            -2.2318     0.1133     0.1144 C.ar    
   5 C5            -2.2912     1.5053     0.0870 C.ar    
   6 C6            -1.1133     2.2475     0.0506 C.ar    
   7 C7            -3.6055     2.1948     0.1016 C.2     
   8 N8            -3.8112     3.5310     0.0786 N.2     
   9 C9            -5.1114     3.6872     0.1031 C.2     
  10 O10           -5.6539     2.4661     0.1398 O.3     
  11 N11           -4.7814     1.6236     0.1335 N.2     
  12 C12           -5.8559     4.9975     0.0925 C.3     
  13 C13           -6.8005     5.1639    -1.1116 C.3     
  14 N14           -7.7660     5.7280    -0.1485 N.am    
  15 C15           -7.1265     4.9954     0.9617 C.3     
  16 C16           -8.8117     6.5729    -0.2442 C.2     
  17 C17           -9.6589     6.8370     0.9375 C.ar    
  18 O18           -9.0580     7.1176    -1.3027 O.2     
  19 C19          -10.6536     7.8151     0.8822 C.ar    
  20 C20          -11.4409     8.0571     1.9881 C.ar    
  21 C21          -11.2465     7.3321     3.1522 C.ar    
  22 C22          -10.2612     6.3605     3.2131 C.ar    
  23 C23           -9.4714     6.1055     2.1118 C.ar    
  24 F24            1.2521     2.3173    -0.0080 F       
  25 Cl25         -12.2412     7.6429     4.5406 Cl      
  26 H26            1.1158    -0.2873     0.0491 H       
  27 H27           -0.9617    -1.6028     0.1215 H       
  28 H28           -3.1426    -0.4661     0.1460 H       
  29 H29           -1.1539     3.3266     0.0297 H       
  30 H30           -5.2068     5.8564     0.2632 H       
  31 H31           -6.4470     5.8823    -1.8512 H       
  32 H32           -7.1205     4.2199    -1.5527 H       
  33 H33           -7.5423     4.0019     1.1296 H       
  34 H34           -7.0334     5.5793     1.8774 H       
  35 H35          -10.8059     8.3813    -0.0248 H       
  36 H36          -12.2105     8.8137     1.9466 H       
  37 H37          -10.1139     5.7986     4.1236 H       
  38 H38           -8.7037     5.3475     2.1604 H       
@<TRIPOS>BOND
   1    1    2 ar
   2    1   24 1
   3    1    6 ar
   4    2    3 ar
   5    2   26 1
   6    3    4 ar
   7    3   27 1
   8    4    5 ar
   9    4   28 1
  10    5    6 ar
  11    5    7 1
  12    6   29 1
  13    7    8 1
  14    7   11 2
  15    8    9 2
  16    9   10 1
  17    9   12 1
  18   10   11 1
  19   12   13 1
  20   12   15 1
  21   12   30 1
  22   13   14 1
  23   13   31 1
  24   13   32 1
  25   14   15 1
  26   14   16 am
  27   15   33 1
  28   15   34 1
  29   16   17 1
  30   16   18 2
  31   17   19 ar
  32   17   23 ar
  33   19   20 ar
  34   19   35 1
  35   20   21 ar
  36   20   36 1
  37   21   22 ar
  38   21   25 1
  39   22   23 ar
  40   22   37 1
  41   23   38 1

#	End of record

