#	Name: ASD02038684
#	Creating user name:	WinNT
#	Creation time:	15. 06. 2019 20:17

#	Modifying user name:	WinNT
#	Modification time:	15. 06. 2019 20:17

#	Program:	/corina/corina34_cracker 3.40 0067  02.08.2006

@<TRIPOS>MOLECULE
ASD02038684
  52   53    0    0    0
SMALL
NO_CHARGES


@<TRIPOS>ATOM
   1 C1            -0.0167     1.3772     0.0096 C.ar    
   2 C2             0.0021    -0.0041     0.0020 C.ar    
   3 C3             1.2080    -0.6802    -0.0131 C.ar    
   4 C4             1.2255    -2.1871    -0.0219 C.3     
   5 C5             1.2180    -2.6888    -1.4673 C.3     
   6 C6             1.2355    -4.1957    -1.4760 C.2     
   7 N7             1.2324    -4.8628    -2.6471 N.am    
   8 N8             1.2486    -6.2637    -2.6552 N.am    
   9 C9             0.1263    -6.9490    -2.9507 C.2     
  10 C10           -2.2438    -7.1987    -3.5643 C.ar    
  11 C11            1.1759     2.0860     0.0020 C.ar    
  12 C12            2.3846     1.4052    -0.0132 C.ar    
  13 C13            2.3980     0.0239    -0.0207 C.ar    
  14 O14            1.1601     3.4449     0.0090 O.3     
  15 C15           -1.1461    -6.2083    -3.2724 C.3     
  16 O16            1.2523    -4.8080    -0.4293 O.2     
  17 C17            2.4856    -6.9837    -2.3425 C.3     
  18 C18            2.4977    -7.3561    -0.8586 C.3     
  19 C19            3.7895    -8.1081    -0.5320 C.3     
  20 C20            3.8016    -8.4805     0.9519 C.3     
  21 O21            0.1404    -8.1617    -2.9578 O.2     
  22 C22           -3.0462    -7.6630    -2.5384 C.ar    
  23 C23           -4.0532    -8.5714    -2.8047 C.ar    
  24 C24           -4.2589    -9.0165    -4.0984 C.ar    
  25 C25           -3.4554    -8.5516    -5.1255 C.ar    
  26 C26           -2.4515    -7.6381    -4.8580 C.ar    
  27 Cl27          -3.7122    -9.1093    -6.7493 Cl      
  28 Cl28          -5.5233   -10.1579    -4.4333 Cl      
  29 H29           -0.9589     1.9049     0.0170 H       
  30 H30           -0.9260    -0.5563     0.0083 H       
  31 H31            2.1244    -2.5429     0.4815 H       
  32 H32            0.3447    -2.5637     0.4981 H       
  33 H33            0.3190    -2.3329    -1.9707 H       
  34 H34            2.0988    -2.3122    -1.9872 H       
  35 H35            1.2189    -4.3731    -3.4842 H       
  36 H36            3.3144     1.9547    -0.0194 H       
  37 H37            3.3387    -0.5065    -0.0325 H       
  38 H38            1.1638     3.8337     0.8944 H       
  39 H39           -1.4315    -5.5899    -2.4214 H       
  40 H40           -0.9870    -5.5747    -4.1449 H       
  41 H41            2.5405    -7.8904    -2.9451 H       
  42 H42            3.3423    -6.3475    -2.5645 H       
  43 H43            2.4428    -6.4495    -0.2560 H       
  44 H44            1.6409    -7.9924    -0.6366 H       
  45 H45            3.8444    -9.0147    -1.1346 H       
  46 H46            4.6463    -7.4719    -0.7539 H       
  47 H47            2.9448    -9.1167     1.1739 H       
  48 H48            4.7219    -9.0162     1.1846 H       
  49 H49            3.7467    -7.5739     1.5545 H       
  50 H50           -2.8856    -7.3160    -1.5284 H       
  51 H51           -4.6793    -8.9339    -2.0029 H       
  52 H52           -1.8246    -7.2748    -5.6589 H       
@<TRIPOS>BOND
   1    1    2 ar
   2    1   11 ar
   3    1   29 1
   4    2    3 ar
   5    2   30 1
   6    3    4 1
   7    3   13 ar
   8    4    5 1
   9    4   31 1
  10    4   32 1
  11    5    6 1
  12    5   33 1
  13    5   34 1
  14    6    7 am
  15    6   16 2
  16    7    8 1
  17    7   35 1
  18    8    9 am
  19    8   17 1
  20    9   15 1
  21    9   21 2
  22   10   22 ar
  23   10   15 1
  24   10   26 ar
  25   11   12 ar
  26   11   14 1
  27   12   13 ar
  28   12   36 1
  29   13   37 1
  30   14   38 1
  31   15   39 1
  32   15   40 1
  33   17   18 1
  34   17   41 1
  35   17   42 1
  36   18   19 1
  37   18   43 1
  38   18   44 1
  39   19   20 1
  40   19   45 1
  41   19   46 1
  42   20   47 1
  43   20   48 1
  44   20   49 1
  45   22   23 ar
  46   22   50 1
  47   23   24 ar
  48   23   51 1
  49   24   25 ar
  50   24   28 1
  51   25   26 ar
  52   25   27 1
  53   26   52 1

#	End of record

