#	Name: ASD01918181
#	Creating user name:	WinNT
#	Creation time:	15. 06. 2019 20:10

#	Modifying user name:	WinNT
#	Modification time:	15. 06. 2019 20:10

#	Program:	/corina/corina34_cracker 3.40 0067  02.08.2006

@<TRIPOS>MOLECULE
ASD01918181
  41   44    0    0    0
SMALL
NO_CHARGES


@<TRIPOS>ATOM
   1 C1             0.0107     1.3803    -0.2849 C.ar    
   2 C2             0.0304    -0.0009    -0.3027 C.ar    
   3 C3             1.2153    -0.6833    -0.0773 C.ar    
   4 C4             2.3862     0.0117     0.1669 C.ar    
   5 C5             2.3819     1.3929     0.1878 C.ar    
   6 C6             1.1891     2.0891    -0.0394 C.ar    
   7 C7             1.1768     3.5209    -0.0197 C.1     
   8 C8             1.1666     4.6947    -0.0037 C.1     
   9 C9             1.1543     6.1265     0.0159 C.ar    
  10 N10           -0.0468     8.1450    -0.1862 N.ar    
  11 C11           -0.0328     6.8281    -0.2036 C.ar    
  12 C12            2.3339     6.8457     0.2618 C.ar    
  13 C13            2.2712     8.2244     0.2706 C.ar    
  14 C14            1.0507     8.8517     0.0372 C.ar    
  15 N15            0.9814    10.2429     0.0451 N.am    
  16 C16            0.1395    12.4247     0.5604 C.3     
  17 C17           -0.2719    11.0117     0.0671 C.3     
  18 C18            2.0518    11.0562     0.0395 C.2     
  19 C19            1.6068    12.5019     0.0907 C.3     
  20 O20            3.2059    10.6855    -0.0004 O.2     
  21 C21           -0.7617    11.2020    -1.3777 C.3     
  22 C22           -0.7205    13.4023    -0.2533 C.3     
  23 C23           -1.0325    12.6981    -1.5817 C.3     
  24 H24            0.0337    12.5495     1.6380 H       
  25 H25           -1.0220    10.5535     0.7117 H       
  26 F26           -1.1083    -0.6881    -0.5400 F       
  27 F27            3.5261     2.0701     0.4274 F       
  28 H28           -0.9127     1.9109    -0.4647 H       
  29 H29            1.2246    -1.7632    -0.0921 H       
  30 H30            3.3058    -0.5268     0.3420 H       
  31 H31           -0.9480     6.2859    -0.3899 H       
  32 H32            3.2676     6.3331     0.4402 H       
  33 H33            3.1593     8.8101     0.4567 H       
  34 H34            1.6681    12.9560    -0.8983 H       
  35 H35            2.2083    13.0615     0.8071 H       
  36 H36            0.0056    10.8665    -2.0754 H       
  37 H37           -1.6794    10.6352    -1.5348 H       
  38 H38           -1.6452    13.6213     0.2806 H       
  39 H39           -0.1673    14.3230    -0.4385 H       
  40 H40           -0.3868    13.0879    -2.3686 H       
  41 H41           -2.0784    12.8528    -1.8467 H       
@<TRIPOS>BOND
   1    1    2 ar
   2    1    6 ar
   3    1   28 1
   4    2    3 ar
   5    2   26 1
   6    3    4 ar
   7    3   29 1
   8    4    5 ar
   9    4   30 1
  10    5    6 ar
  11    5   27 1
  12    6    7 1
  13    7    8 3
  14    8    9 1
  15    9   12 ar
  16    9   11 ar
  17   10   11 ar
  18   10   14 ar
  19   11   31 1
  20   12   13 ar
  21   12   32 1
  22   13   14 ar
  23   13   33 1
  24   14   15 1
  25   15   18 am
  26   15   17 1
  27   16   17 1
  28   16   19 1
  29   16   22 1
  30   16   24 1
  31   17   21 1
  32   17   25 1
  33   18   19 1
  34   18   20 2
  35   19   34 1
  36   19   35 1
  37   21   23 1
  38   21   36 1
  39   21   37 1
  40   22   23 1
  41   22   38 1
  42   22   39 1
  43   23   40 1
  44   23   41 1

#	End of record

