#	Name: ASD04591096
#	Creating user name:	WinNT
#	Creation time:	15. 06. 2019 20:52

#	Modifying user name:	WinNT
#	Modification time:	15. 06. 2019 20:52

#	Program:	/corina/corina34_cracker 3.40 0067  02.08.2006

@<TRIPOS>MOLECULE
ASD04591096
  59   64    0    0    0
SMALL
NO_CHARGES


@<TRIPOS>ATOM
   1 N1            -0.0151     1.3221     0.0090 N.ar    
   2 C2             0.0024    -0.0046     0.0082 C.ar    
   3 N3             1.1300    -0.6974     0.0060 N.ar    
   4 C4             2.3057    -0.0758     0.0045 C.ar    
   5 C5             2.3202     1.3324     0.0052 C.ar    
   6 C6             1.1106     2.0179     0.0075 C.ar    
   7 N7             3.6041    -0.5219     0.0026 N.pl3   
   8 C8             4.4840     0.5488     0.0020 C.ar    
   9 C9             3.7361     1.7361     0.0036 C.ar    
  10 C10            5.8730     0.6192    -0.0005 C.ar    
  11 C11            6.5025     1.8456    -0.0013 C.ar    
  12 C12            5.7623     3.0177     0.0007 C.ar    
  13 C13            4.3848     2.9684     0.0034 C.ar    
  14 N14           -1.2018    -0.6885     0.0103 N.pl3   
  15 C15           -2.4069     0.0153     0.1318 C.ar    
  16 C16           -3.5403    -0.4279    -0.5371 C.ar    
  17 C17           -4.7281     0.2659    -0.4173 C.ar    
  18 C18           -4.7893     1.4068     0.3720 C.ar    
  19 C19           -3.6558     1.8500     1.0409 C.ar    
  20 C20           -2.4694     1.1530     0.9256 C.ar    
  21 N21           -5.9931     2.1103     0.4930 N.3     
  22 C22            4.0034    -1.9314     0.0017 C.3     
  23 C23           -5.8345     3.2784     1.3705 C.3     
  24 C24           -7.1479     4.0631     1.4131 C.3     
  25 N25           -8.2236     3.1867     1.8970 N.3     
  26 C26           -8.3822     2.0185     1.0195 C.3     
  27 C27           -7.0688     1.2339     0.9769 C.3     
  28 C28            3.4528    -2.6359     1.2541 C.3     
  29 C29            2.5242    -3.7617     0.7540 C.3     
  30 C30            3.0282    -4.0611    -0.6797 C.3     
  31 C31            3.3901    -2.6537    -1.2157 C.3     
  32 H32            1.0900     3.0977     0.0078 H       
  33 H33            6.4590    -0.2880    -0.0013 H       
  34 H34            7.5814     1.8937    -0.0032 H       
  35 H35            6.2667     3.9727     0.0004 H       
  36 H36            3.8102     3.8829     0.0053 H       
  37 H37           -1.2108    -1.6550    -0.0724 H       
  38 H38           -3.4926    -1.3150    -1.1512 H       
  39 H39           -5.6094    -0.0786    -0.9378 H       
  40 H40           -3.7032     2.7376     1.6544 H       
  41 H41           -1.5879     1.4976     1.4458 H       
  42 H42            5.0902    -2.0114    -0.0242 H       
  43 H43           -5.5769     2.9457     2.3760 H       
  44 H44           -5.0410     3.9182     0.9844 H       
  45 H45           -7.0415     4.9139     2.0861 H       
  46 H46           -7.3914     4.4191     0.4121 H       
  47 H47           -8.0571     2.9025     2.8507 H       
  48 H48           -9.1757     1.3787     1.4056 H       
  49 H49           -8.6398     2.3513     0.0140 H       
  50 H50           -7.1752     0.3831     0.3039 H       
  51 H51           -6.8253     0.8779     1.9779 H       
  52 H52            4.2723    -3.0585     1.8354 H       
  53 H53            2.8886    -1.9291     1.8624 H       
  54 H54            2.6217    -4.6452     1.3849 H       
  55 H55            1.4892    -3.4205     0.7310 H       
  56 H56            3.9090    -4.7027    -0.6534 H       
  57 H57            2.2384    -4.5119    -1.2806 H       
  58 H58            2.4950    -2.1336    -1.5567 H       
  59 H59            4.1196    -2.7285    -2.0221 H       
@<TRIPOS>BOND
   1    1    2 ar
   2    1    6 ar
   3    2    3 ar
   4    2   14 1
   5    3    4 ar
   6    4    5 ar
   7    4    7 1
   8    5    6 ar
   9    5    9 1
  10    6   32 1
  11    7    8 1
  12    7   22 1
  13    8    9 ar
  14    8   10 ar
  15    9   13 ar
  16   10   11 ar
  17   10   33 1
  18   11   12 ar
  19   11   34 1
  20   12   13 ar
  21   12   35 1
  22   13   36 1
  23   14   15 1
  24   14   37 1
  25   15   16 ar
  26   15   20 ar
  27   16   17 ar
  28   16   38 1
  29   17   18 ar
  30   17   39 1
  31   18   19 ar
  32   18   21 1
  33   19   20 ar
  34   19   40 1
  35   20   41 1
  36   21   23 1
  37   21   27 1
  38   22   28 1
  39   22   31 1
  40   22   42 1
  41   23   24 1
  42   23   43 1
  43   23   44 1
  44   24   25 1
  45   24   45 1
  46   24   46 1
  47   25   26 1
  48   25   47 1
  49   26   27 1
  50   26   48 1
  51   26   49 1
  52   27   50 1
  53   27   51 1
  54   28   29 1
  55   28   52 1
  56   28   53 1
  57   29   30 1
  58   29   54 1
  59   29   55 1
  60   30   31 1
  61   30   56 1
  62   30   57 1
  63   31   58 1
  64   31   59 1

#	End of record

