#	Name: ASD01884762
#	Creating user name:	WinNT
#	Creation time:	15. 06. 2019 19:48

#	Modifying user name:	WinNT
#	Modification time:	15. 06. 2019 19:48

#	Program:	/corina/corina34_cracker 3.40 0067  02.08.2006

@<TRIPOS>MOLECULE
ASD01884762
  65   68    0    0    0
SMALL
NO_CHARGES


@<TRIPOS>ATOM
   1 C1            -0.0157     1.3876     0.0537 C.2     
   2 C2             0.0027    -0.0048     0.0416 C.2     
   3 C3            -1.2130    -0.6983     0.0151 C.2     
   4 C4            -2.3891    -0.0113     0.0012 C.2     
   5 N5            -2.4088     1.3461     0.0130 N.am    
   6 C6            -1.2662     2.0574     0.0449 C.2     
   7 O7            -1.3060     3.2762     0.0552 O.2     
   8 C8            -3.6945     2.0482    -0.0031 C.3     
   9 C9             1.2078     2.1312     0.0807 C.1     
  10 N10            2.1784     2.7211     0.1022 N.1     
  11 C11           -4.1672     2.2796     1.4335 C.3     
  12 C12           -5.5100     3.0129     1.4166 C.3     
  13 C13           -6.5732     2.1154     0.7803 C.3     
  14 C14           -5.9224     3.3548     2.8498 C.3     
  15 N15           -1.2200    -2.1015     0.0024 N.pl3   
  16 C16           -2.4867    -2.8288     0.1156 C.3     
  17 C17            0.0394    -2.8392    -0.1241 C.3     
  18 C18            0.3966    -3.6731     1.1195 C.3     
  19 N19            0.8045    -4.7322     0.1703 N.3     
  20 C20           -0.1009    -4.1825    -0.8628 C.3     
  21 C21            0.3453    -6.0516     0.6245 C.3     
  22 C22            0.6702    -7.0848    -0.4234 C.ar    
  23 C23            1.0391    -6.4084     1.9139 C.ar    
  24 C24           -0.2374    -8.0870    -0.7107 C.ar    
  25 C25            0.0606    -9.0347    -1.6718 C.ar    
  26 C26            1.2662    -8.9800    -2.3460 C.ar    
  27 C27            2.1735    -7.9772    -2.0594 C.ar    
  28 C28            1.8736    -7.0269    -1.1012 C.ar    
  29 C29            0.3365    -7.0345     2.9265 C.ar    
  30 C30            0.9729    -7.3617     4.1092 C.ar    
  31 C31            2.3119    -7.0633     4.2791 C.ar    
  32 C32            3.0147    -6.4381     3.2662 C.ar    
  33 C33            2.3794    -6.1147     2.0818 C.ar    
  34 H34            0.9401    -0.5411     0.0520 H       
  35 H35           -3.3216    -0.5557    -0.0200 H       
  36 H36           -3.5781     3.0080    -0.5064 H       
  37 H37           -4.4308     1.4458    -0.5353 H       
  38 H38           -4.2837     1.3198     1.9368 H       
  39 H39           -3.4310     2.8820     1.9656 H       
  40 H40           -5.4153     3.9311     0.8369 H       
  41 H41           -6.6679     1.1972     1.3600 H       
  42 H42           -7.5298     2.6378     0.7683 H       
  43 H43           -6.2794     1.8718    -0.2407 H       
  44 H44           -5.1649     3.9942     3.3031 H       
  45 H45           -6.8790     3.8771     2.8378 H       
  46 H46           -6.0171     2.4366     3.4294 H       
  47 H47           -2.8979    -2.9994    -0.8793 H       
  48 H48           -2.3132    -3.7865     0.6062 H       
  49 H49           -3.1915    -2.2414     0.7043 H       
  50 H50            0.8596    -2.2203    -0.4878 H       
  51 H51            1.2222    -3.2628     1.7010 H       
  52 H52           -0.4649    -3.9399     1.7316 H       
  53 H53           -1.1080    -4.5983    -0.8305 H       
  54 H54            0.3272    -4.1792    -1.8652 H       
  55 H55           -0.7322    -6.0252     0.7869 H       
  56 H56           -1.1793    -8.1298    -0.1839 H       
  57 H57           -0.6482    -9.8182    -1.8958 H       
  58 H58            1.4994    -9.7208    -3.0965 H       
  59 H59            3.1155    -7.9346    -2.5858 H       
  60 H60            2.5824    -6.2435    -0.8773 H       
  61 H61           -0.7096    -7.2676     2.7937 H       
  62 H62            0.4239    -7.8502     4.9006 H       
  63 H63            2.8090    -7.3183     5.2034 H       
  64 H64            4.0608    -6.2046     3.3990 H       
  65 H65            2.9284    -5.6263     1.2904 H       
@<TRIPOS>BOND
   1    1    2 2
   2    1    9 1
   3    1    6 1
   4    2    3 1
   5    2   34 1
   6    3    4 2
   7    3   15 1
   8    4    5 1
   9    4   35 1
  10    5    8 1
  11    5    6 am
  12    6    7 2
  13    8   11 1
  14    8   36 1
  15    8   37 1
  16    9   10 3
  17   11   12 1
  18   11   38 1
  19   11   39 1
  20   12   13 1
  21   12   14 1
  22   12   40 1
  23   13   41 1
  24   13   42 1
  25   13   43 1
  26   14   44 1
  27   14   45 1
  28   14   46 1
  29   15   16 1
  30   15   17 1
  31   16   47 1
  32   16   48 1
  33   16   49 1
  34   17   18 1
  35   17   20 1
  36   17   50 1
  37   18   19 1
  38   18   51 1
  39   18   52 1
  40   19   20 1
  41   19   21 1
  42   20   53 1
  43   20   54 1
  44   21   22 1
  45   21   23 1
  46   21   55 1
  47   22   24 ar
  48   22   28 ar
  49   23   29 ar
  50   23   33 ar
  51   24   25 ar
  52   24   56 1
  53   25   26 ar
  54   25   57 1
  55   26   27 ar
  56   26   58 1
  57   27   28 ar
  58   27   59 1
  59   28   60 1
  60   29   30 ar
  61   29   61 1
  62   30   31 ar
  63   30   62 1
  64   31   32 ar
  65   31   63 1
  66   32   33 ar
  67   32   64 1
  68   33   65 1

#	End of record

