#	Name: ASD01913738
#	Creating user name:	WinNT
#	Creation time:	15. 06. 2019 20:02

#	Modifying user name:	WinNT
#	Modification time:	15. 06. 2019 20:02

#	Program:	/corina/corina34_cracker 3.40 0067  02.08.2006

@<TRIPOS>MOLECULE
ASD01913738
  51   52    0    0    0
SMALL
NO_CHARGES


@<TRIPOS>ATOM
   1 O1            -0.0163     1.3516     0.0095 O.3     
   2 C2             0.0021    -0.0041     0.0020 C.ar    
   3 C3            -1.2026    -0.7090     0.0097 C.ar    
   4 C4            -1.1745    -2.0926     0.0020 C.ar    
   5 C5             0.0736    -2.7324    -0.0133 C.ar    
   6 C6             1.2326    -1.9560    -0.0202 C.ar    
   7 N7             1.1618    -0.6410    -0.0179 N.ar    
   8 C8             0.1595    -4.2061    -0.0216 C.2     
   9 N9             1.3639    -4.8108    -0.0363 N.am    
  10 O10           -0.8562    -4.8743    -0.0151 O.2     
  11 C11            1.2480     2.0176     0.0010 C.3     
  12 C12            1.0303     3.5088     0.0111 C.ar    
  13 C13            0.9419     4.1859     1.2128 C.ar    
  14 C14            0.7417     5.5540     1.2236 C.ar    
  15 C15            0.6298     6.2458     0.0328 C.ar    
  16 C16            0.7186     5.5685    -1.1718 C.ar    
  17 C17            0.9247     4.1996    -1.1814 C.ar    
  18 C18            1.4492    -6.2733    -0.0445 C.3     
  19 C19            2.9189    -6.6984    -0.0609 C.3     
  20 F20            0.6093     6.2439    -2.3368 F       
  21 O21           -2.3892    -0.0445     0.0251 O.3     
  22 C22           -3.5773    -0.8385     0.0321 C.3     
  23 C23            3.0079    -8.2258    -0.0695 C.3     
  24 C24            2.3055    -8.7706    -1.3147 C.3     
  25 C25            4.4776    -8.6509    -0.0859 C.3     
  26 C26            2.3298    -8.7832     1.1836 C.3     
  27 H27           -2.0902    -2.6652     0.0081 H       
  28 H28            2.1987    -2.4387    -0.0317 H       
  29 H29            2.1743    -4.2777    -0.0415 H       
  30 H30            1.8174     1.7276     0.8840 H       
  31 H31            1.8004     1.7371    -0.8958 H       
  32 H32            1.0289     3.6460     2.1441 H       
  33 H33            0.6725     6.0820     2.1632 H       
  34 H34            0.4728     7.3143     0.0415 H       
  35 H35            0.9941     3.6703    -2.1203 H       
  36 H36            0.9661    -6.6704     0.8482 H       
  37 H37            0.9488    -6.6615    -0.9316 H       
  38 H38            3.4020    -6.3013    -0.9537 H       
  39 H39            3.4193    -6.3102     0.8262 H       
  40 H40           -4.4503    -0.1859     0.0444 H       
  41 H41           -3.6026    -1.4625    -0.8612 H       
  42 H42           -3.5853    -1.4726     0.9186 H       
  43 H43            2.7886    -8.3735    -2.2074 H       
  44 H44            2.3689    -9.8588    -1.3208 H       
  45 H45            1.2585    -8.4678    -1.3030 H       
  46 H46            4.9780    -8.2627     0.8012 H       
  47 H47            4.5410    -9.7390    -0.0920 H       
  48 H48            4.9607    -8.2538    -0.9786 H       
  49 H49            1.2827    -8.4804     1.1953 H       
  50 H50            2.3932    -9.8714     1.1775 H       
  51 H51            2.8302    -8.3950     2.0707 H       
@<TRIPOS>BOND
   1    1    2 1
   2    1   11 1
   3    2    3 ar
   4    2    7 ar
   5    3    4 ar
   6    3   21 1
   7    4    5 ar
   8    4   27 1
   9    5    6 ar
  10    5    8 1
  11    6    7 ar
  12    6   28 1
  13    8    9 am
  14    8   10 2
  15    9   18 1
  16    9   29 1
  17   11   12 1
  18   11   30 1
  19   11   31 1
  20   12   13 ar
  21   12   17 ar
  22   13   14 ar
  23   13   32 1
  24   14   15 ar
  25   14   33 1
  26   15   16 ar
  27   15   34 1
  28   16   17 ar
  29   16   20 1
  30   17   35 1
  31   18   19 1
  32   18   36 1
  33   18   37 1
  34   19   23 1
  35   19   38 1
  36   19   39 1
  37   21   22 1
  38   22   40 1
  39   22   41 1
  40   22   42 1
  41   23   24 1
  42   23   25 1
  43   23   26 1
  44   24   43 1
  45   24   44 1
  46   24   45 1
  47   25   46 1
  48   25   47 1
  49   25   48 1
  50   26   49 1
  51   26   50 1
  52   26   51 1

#	End of record

