#	Name: ASD02038391
#	Creating user name:	WinNT
#	Creation time:	15. 06. 2019 20:16

#	Modifying user name:	WinNT
#	Modification time:	15. 06. 2019 20:16

#	Program:	/corina/corina34_cracker 3.40 0067  02.08.2006

@<TRIPOS>MOLECULE
ASD02038391
  51   54    0    0    0
SMALL
NO_CHARGES


@<TRIPOS>ATOM
   1 N1            -0.0162     1.3436     0.0094 N.am    
   2 C2             0.0021    -0.0041     0.0020 C.2     
   3 C3            -1.2926    -0.7753     0.0102 C.3     
   4 C4            -0.9927    -2.2755    -0.0007 C.3     
   5 O5            -2.2204    -3.0068     0.0071 O.3     
   6 C6            -2.1308    -4.3634    -0.0010 C.ar    
   7 C7            -3.2802    -5.1276     0.0058 C.ar    
   8 C8             1.2357     2.1156     0.0016 C.3     
   9 C9             1.1612     3.1524    -1.1243 C.3     
  10 N10           -0.0610     3.9524    -0.9688 N.3     
  11 C11           -1.2637     3.1194    -1.1013 C.3     
  12 C12           -1.2886     2.0812     0.0194 C.3     
  13 C13           -0.0841     5.0134    -1.8779 C.ar    
  14 C14           -1.1594     5.8925    -1.8940 C.ar    
  15 C15           -1.1792     6.9411    -2.7939 C.ar    
  16 C16           -0.1279     7.1153    -3.6789 C.ar    
  17 C17            0.9437     6.2406    -3.6643 C.ar    
  18 C18            0.9708     5.1940    -2.7631 C.ar    
  19 Cl19          -0.1556     8.4330    -4.8087 Cl      
  20 O20            1.0605    -0.5961    -0.0113 O.2     
  21 C21           -0.8795    -4.9753    -0.0221 C.ar    
  22 C22           -0.7696    -6.3480    -0.0315 C.ar    
  23 C23           -1.9153    -7.1370    -0.0195 C.ar    
  24 C24           -3.1815    -6.5229    -0.0031 C.ar    
  25 N25           -1.8261    -8.5143    -0.0281 N.am    
  26 C26           -2.9318    -9.2790    -0.0166 C.2     
  27 C27           -4.2241    -8.7123     0.0048 C.2     
  28 C28           -4.3790    -7.3653     0.0099 C.2     
  29 O29           -2.8151   -10.4923    -0.0251 O.2     
  30 Cl30          -2.5226     8.0404    -2.8156 Cl      
  31 H31           -1.8592    -0.5245     0.9070 H       
  32 H32           -1.8762    -0.5150    -0.8728 H       
  33 H33           -0.4261    -2.5263    -0.8975 H       
  34 H34           -0.4091    -2.5358     0.8824 H       
  35 H35           -4.2494    -4.6513     0.0184 H       
  36 H36            1.3592     2.6225     0.9586 H       
  37 H37            2.0778     1.4458    -0.1725 H       
  38 H38            2.0323     3.8057    -1.0753 H       
  39 H39            1.1421     2.6426    -2.0875 H       
  40 H40           -2.1512     3.7488    -1.0356 H       
  41 H41           -1.2490     2.6100    -2.0648 H       
  42 H42           -2.1158     1.3897    -0.1405 H       
  43 H43           -1.4069     2.5823     0.9801 H       
  44 H44           -1.9792     5.7565    -1.2042 H       
  45 H45            1.7619     6.3784    -4.3556 H       
  46 H46            1.8080     4.5119    -2.7522 H       
  47 H47            0.0130    -4.3673    -0.0315 H       
  48 H48            0.2056    -6.8118    -0.0485 H       
  49 H49           -0.9530    -8.9366    -0.0431 H       
  50 H50           -5.0928    -9.3539     0.0132 H       
  51 H51           -5.3643    -6.9233     0.0265 H       
@<TRIPOS>BOND
   1    1    2 am
   2    1    8 1
   3    1   12 1
   4    2   20 2
   5    2    3 1
   6    3    4 1
   7    3   31 1
   8    3   32 1
   9    4    5 1
  10    4   33 1
  11    4   34 1
  12    5    6 1
  13    6    7 ar
  14    6   21 ar
  15    7   24 ar
  16    7   35 1
  17    8    9 1
  18    8   36 1
  19    8   37 1
  20    9   10 1
  21    9   38 1
  22    9   39 1
  23   10   11 1
  24   10   13 1
  25   11   12 1
  26   11   40 1
  27   11   41 1
  28   12   42 1
  29   12   43 1
  30   13   14 ar
  31   13   18 ar
  32   14   15 ar
  33   14   44 1
  34   15   16 ar
  35   15   30 1
  36   16   17 ar
  37   16   19 1
  38   17   18 ar
  39   17   45 1
  40   18   46 1
  41   21   22 ar
  42   21   47 1
  43   22   23 ar
  44   22   48 1
  45   23   24 ar
  46   23   25 1
  47   24   28 1
  48   25   26 am
  49   25   49 1
  50   26   27 1
  51   26   29 2
  52   27   28 2
  53   27   50 1
  54   28   51 1

#	End of record

