#	Name: ASD01152533
#	Creating user name:	WinNT
#	Creation time:	15. 06. 2019 19:06

#	Modifying user name:	WinNT
#	Modification time:	15. 06. 2019 19:06

#	Program:	/corina/corina34_cracker 3.40 0067  02.08.2006

@<TRIPOS>MOLECULE
ASD01152533
  50   52    0    0    0
SMALL
NO_CHARGES


@<TRIPOS>ATOM
   1 C1             0.1112     1.1571    -0.6957 C.2     
   2 N2             0.0188    -0.1436    -0.6173 N.2     
   3 N3            -1.1206    -0.7661    -0.1079 N.am    
   4 C4            -2.2616    -0.0993     0.1331 C.2     
   5 C5            -2.3925     1.3536    -0.2590 C.3     
   6 C6            -1.0086     1.9736    -0.2033 C.2     
   7 C7            -2.9558     1.4586    -1.6777 C.3     
   8 O8            -0.8360     3.0970     0.2227 O.2     
   9 C9            -1.0735    -2.1389     0.1624 C.ar    
  10 O10           -3.1908    -0.6664     0.6673 O.2     
  11 C11           -3.1986     2.9070    -2.0158 C.ar    
  12 C12           -0.0102    -2.6693     0.8797 C.ar    
  13 C13           -2.0939    -2.9703    -0.2824 C.ar    
  14 C14           -2.0490    -4.3252    -0.0160 C.ar    
  15 C15           -0.9884    -4.8582     0.6946 C.ar    
  16 C16            0.0334    -4.0297     1.1463 C.ar    
  17 C17           -2.1980     3.6549    -2.6057 C.ar    
  18 C18           -4.4246     3.4843    -1.7404 C.ar    
  19 C19           -4.6512     4.8124    -2.0501 C.ar    
  20 C20           -3.6517     5.5668    -2.6361 C.ar    
  21 C21           -2.4218     4.9879    -2.9173 C.ar    
  22 F22           -0.9477    -6.1834     0.9543 F       
  23 Cl23          -3.9367     7.2343    -3.0259 Cl      
  24 O24            1.2211     1.7436    -1.2161 O.3     
  25 C25            2.2636     0.8755    -1.6652 C.3     
  26 N26            1.1045    -4.5683     1.8702 N.am    
  27 C27            1.7680    -3.8044     2.7605 C.2     
  28 O28            1.4983    -2.6269     2.8693 O.2     
  29 C29            2.8451    -4.4133     3.6209 C.3     
  30 O30           -1.4370     5.7271    -3.4931 O.3     
  31 C31           -0.1974     5.0657    -3.7537 C.3     
  32 F32           -0.4162     3.9901    -4.6212 F       
  33 F33            0.6966     5.9659    -4.3432 F       
  34 F34            0.3409     4.5934    -2.5519 F       
  35 H35           -3.0531     1.8665     0.4400 H       
  36 H36           -2.2419     1.0353    -2.3843 H       
  37 H37           -3.8953     0.9092    -1.7372 H       
  38 H38            0.7820    -2.0238     1.2294 H       
  39 H39           -2.9234    -2.5568    -0.8367 H       
  40 H40           -2.8435    -4.9693    -0.3628 H       
  41 H41           -1.2421     3.2021    -2.8238 H       
  42 H42           -5.2066     2.8964    -1.2830 H       
  43 H43           -5.6097     5.2609    -1.8343 H       
  44 H44            2.6165     0.2695    -0.8307 H       
  45 H45            1.8808     0.2241    -2.4508 H       
  46 H46            3.0887     1.4706    -2.0565 H       
  47 H47            1.3688    -5.4911     1.7308 H       
  48 H48            3.6315    -4.8199     2.9850 H       
  49 H49            3.2649    -3.6478     4.2734 H       
  50 H50            2.4178    -5.2126     4.2264 H       
@<TRIPOS>BOND
   1    1    2 2
   2    1   24 1
   3    1    6 1
   4    2    3 1
   5    3    4 am
   6    3    9 1
   7    4    5 1
   8    4   10 2
   9    5    6 1
  10    5    7 1
  11    5   35 1
  12    6    8 2
  13    7   11 1
  14    7   36 1
  15    7   37 1
  16    9   12 ar
  17    9   13 ar
  18   11   17 ar
  19   11   18 ar
  20   12   16 ar
  21   12   38 1
  22   13   14 ar
  23   13   39 1
  24   14   15 ar
  25   14   40 1
  26   15   16 ar
  27   15   22 1
  28   16   26 1
  29   17   21 ar
  30   17   41 1
  31   18   19 ar
  32   18   42 1
  33   19   20 ar
  34   19   43 1
  35   20   21 ar
  36   20   23 1
  37   21   30 1
  38   24   25 1
  39   25   44 1
  40   25   45 1
  41   25   46 1
  42   26   27 am
  43   26   47 1
  44   27   28 2
  45   27   29 1
  46   29   48 1
  47   29   49 1
  48   29   50 1
  49   30   31 1
  50   31   32 1
  51   31   33 1
  52   31   34 1

#	End of record

