#	Name: ASD04590412
#	Creating user name:	WinNT
#	Creation time:	15. 06. 2019 20:50

#	Modifying user name:	WinNT
#	Modification time:	15. 06. 2019 20:50

#	Program:	/corina/corina34_cracker 3.40 0067  02.08.2006

@<TRIPOS>MOLECULE
ASD04590412
  49   52    0    0    0
SMALL
NO_CHARGES


@<TRIPOS>ATOM
   1 C1            -2.2709    -5.1216     2.3337 C.ar    
   2 C2            -1.4830    -6.2625     2.3840 C.ar    
   3 C3             0.4304    -4.9785     1.7124 C.ar    
   4 C4            -0.3731    -3.8254     1.6626 C.ar    
   5 C5            -1.7221    -3.9080     1.9753 C.ar    
   6 N6             1.6866    -4.6069     1.3634 N.2     
   7 C7             1.7102    -3.3215     1.1058 C.2     
   8 N8             0.4593    -2.7918     1.2767 N.pl3   
   9 C9             2.9067    -2.5594     0.6928 C.2     
  10 C10            4.2059    -3.0867     0.5098 C.2     
  11 C11            5.0160    -2.0678     0.1316 C.2     
  12 N12            4.2645    -0.9369     0.0757 N.pl3   
  13 N13            2.9494    -1.2690     0.4246 N.2     
  14 N14            4.5885    -4.4260     0.6883 N.am    
  15 C15            5.8677    -4.7951     0.4786 C.2     
  16 O16            6.6906    -3.9682     0.1348 O.2     
  17 C17            6.2696    -6.2020     0.6661 C.ar    
  18 C18           -0.1426    -6.2005     2.0778 C.ar    
  19 C19            7.9654    -7.9158     0.6285 C.ar    
  20 C20            7.0243    -8.8475     1.0190 C.ar    
  21 C21            5.7082    -8.4688     1.2289 C.ar    
  22 C22            5.3264    -7.1563     1.0554 C.ar    
  23 C23            7.5987    -6.5902     0.4492 C.ar    
  24 O24            8.5222    -5.6738     0.0651 O.3     
  25 C25            9.8785    -6.1157    -0.0196 C.3     
  26 C26            9.9966    -7.1958    -1.0969 C.3     
  27 C27           10.7785    -4.9329    -0.3826 C.3     
  28 C28           10.3125    -6.6916     1.3297 C.3     
  29 H29           -3.3222    -5.1851     2.5724 H       
  30 H30           -1.9249    -7.2066     2.6662 H       
  31 H31           -2.3414    -3.0240     1.9378 H       
  32 H32            0.2049    -1.8643     1.1506 H       
  33 H33            6.0712    -2.1416    -0.0862 H       
  34 H34            4.5829    -0.0535    -0.1676 H       
  35 H35            3.9322    -5.0855     0.9625 H       
  36 H36            0.4646    -7.0927     2.1199 H       
  37 H37            8.9893    -8.2187     0.4668 H       
  38 H38            7.3148    -9.8785     1.1569 H       
  39 H39            4.9792    -9.2049     1.5342 H       
  40 H40            4.2994    -6.8656     1.2205 H       
  41 H41           10.0515    -6.7253    -2.0786 H       
  42 H42           10.8982    -7.7836    -0.9247 H       
  43 H43            9.1242    -7.8479    -1.0547 H       
  44 H44           10.6944    -4.1634     0.3849 H       
  45 H45           11.8131    -5.2700    -0.4472 H       
  46 H46           10.4694    -4.5226    -1.3439 H       
  47 H47            9.5517    -7.3836     1.6910 H       
  48 H48           11.2582    -7.2206     1.2118 H       
  49 H49           10.4367    -5.8810     2.0477 H       
@<TRIPOS>BOND
   1    1    2 ar
   2    1    5 ar
   3    1   29 1
   4    2   18 ar
   5    2   30 1
   6    3    4 ar
   7    3    6 1
   8    3   18 ar
   9    4    5 ar
  10    4    8 1
  11    5   31 1
  12    6    7 2
  13    7    8 1
  14    7    9 1
  15    8   32 1
  16    9   10 1
  17    9   13 2
  18   10   11 2
  19   10   14 1
  20   11   12 1
  21   11   33 1
  22   12   13 1
  23   12   34 1
  24   14   15 am
  25   14   35 1
  26   15   16 2
  27   15   17 1
  28   17   23 ar
  29   17   22 ar
  30   18   36 1
  31   19   20 ar
  32   19   23 ar
  33   19   37 1
  34   20   21 ar
  35   20   38 1
  36   21   22 ar
  37   21   39 1
  38   22   40 1
  39   23   24 1
  40   24   25 1
  41   25   26 1
  42   25   27 1
  43   25   28 1
  44   26   41 1
  45   26   42 1
  46   26   43 1
  47   27   44 1
  48   27   45 1
  49   27   46 1
  50   28   47 1
  51   28   48 1
  52   28   49 1

#	End of record

