#	Name: ASD04590449
#	Creating user name:	WinNT
#	Creation time:	15. 06. 2019 20:50

#	Modifying user name:	WinNT
#	Modification time:	15. 06. 2019 20:50

#	Program:	/corina/corina34_cracker 3.40 0067  02.08.2006

@<TRIPOS>MOLECULE
ASD04590449
  48   51    0    0    0
SMALL
NO_CHARGES


@<TRIPOS>ATOM
   1 C1            -0.0169     1.3923     0.0097 C.ar    
   2 C2             0.0021    -0.0041     0.0020 C.ar    
   3 C3            -2.4013    -0.0379     0.0252 C.ar    
   4 C4            -2.4140     1.3672     0.0440 C.ar    
   5 C5            -1.2191     2.0735     0.0306 C.ar    
   6 N6            -3.6929    -0.4513     0.0444 N.2     
   7 C7            -4.4887     0.5899     0.0732 C.2     
   8 N8            -3.7458     1.7406     0.0743 N.pl3   
   9 C9            -5.9649     0.5311     0.1010 C.2     
  10 C10           -6.7501    -0.6449     0.1014 C.2     
  11 C11           -8.0529    -0.2719     0.1312 C.2     
  12 N12           -8.0971     1.0863     0.1490 N.pl3   
  13 N13           -6.7813     1.5660     0.1354 N.2     
  14 N14           -6.2667    -1.9632     0.0755 N.am    
  15 C15           -7.1304    -2.9978     0.0792 C.2     
  16 O16           -8.3284    -2.7898     0.1050 O.2     
  17 C17           -6.6227    -4.3826     0.0521 C.ar    
  18 C18           -1.1778    -0.7174     0.0095 C.ar    
  19 C19           -7.5172    -5.4610     0.0559 C.ar    
  20 O20            1.1915    -0.6643    -0.0133 O.3     
  21 C21            1.1408    -2.0924    -0.0205 C.3     
  22 O22            1.1536     2.0851     0.0022 O.3     
  23 C23            1.0634     3.5113     0.0108 C.3     
  24 C24           -7.0301    -6.7592     0.0303 C.ar    
  25 C25           -5.6688    -6.9878     0.0016 C.ar    
  26 C26           -4.7789    -5.9237    -0.0017 C.ar    
  27 C27           -5.2472    -4.6258     0.0168 C.ar    
  28 O28           -8.8551    -5.2360     0.0849 O.3     
  29 C29           -9.7061    -6.3840     0.0869 C.3     
  30 F30           -3.4488    -6.1588    -0.0294 F       
  31 H31           -1.2289     3.1534     0.0368 H       
  32 H32           -4.0892     2.6476     0.0925 H       
  33 H33           -8.9045    -0.9360     0.1387 H       
  34 H34           -8.9005     1.6293     0.1713 H       
  35 H35           -5.3112    -2.1291     0.0550 H       
  36 H36           -1.1579    -1.7972     0.0027 H       
  37 H37            2.1548    -2.4919    -0.0327 H       
  38 H38            0.6232    -2.4420     0.8728 H       
  39 H39            0.6056    -2.4325    -0.9070 H       
  40 H40            0.5192     3.8462    -0.8723 H       
  41 H41            0.5362     3.8366     0.9076 H       
  42 H42            2.0660     3.9388     0.0035 H       
  43 H43           -7.7168    -7.5928     0.0331 H       
  44 H44           -5.2948    -8.0008    -0.0179 H       
  45 H45           -4.5516    -3.7996     0.0141 H       
  46 H46           -9.5272    -6.9705    -0.8143 H       
  47 H47           -9.4924    -6.9931     0.9652 H       
  48 H48          -10.7478    -6.0640     0.1113 H       
@<TRIPOS>BOND
   1    1    2 ar
   2    1   22 1
   3    1    5 ar
   4    2   18 ar
   5    2   20 1
   6    3    4 ar
   7    3    6 1
   8    3   18 ar
   9    4    5 ar
  10    4    8 1
  11    5   31 1
  12    6    7 2
  13    7    8 1
  14    7    9 1
  15    8   32 1
  16    9   10 1
  17    9   13 2
  18   10   11 2
  19   10   14 1
  20   11   12 1
  21   11   33 1
  22   12   13 1
  23   12   34 1
  24   14   15 am
  25   14   35 1
  26   15   16 2
  27   15   17 1
  28   17   19 ar
  29   17   27 ar
  30   18   36 1
  31   19   24 ar
  32   19   28 1
  33   20   21 1
  34   21   37 1
  35   21   38 1
  36   21   39 1
  37   22   23 1
  38   23   40 1
  39   23   41 1
  40   23   42 1
  41   24   25 ar
  42   24   43 1
  43   25   26 ar
  44   25   44 1
  45   26   27 ar
  46   26   30 1
  47   27   45 1
  48   28   29 1
  49   29   46 1
  50   29   47 1
  51   29   48 1

#	End of record

