#	Name: ASD07930253
#	Creating user name:	WinNT
#	Creation time:	15. 06. 2019 21:12

#	Modifying user name:	WinNT
#	Modification time:	15. 06. 2019 21:12

#	Program:	/corina/corina34_cracker 3.40 0067  02.08.2006

@<TRIPOS>MOLECULE
ASD07930253
  56   60    0    0    0
SMALL
NO_CHARGES


@<TRIPOS>ATOM
   1 C1             0.5785     0.3331    -0.2802 C.2     
   2 C2             0.7106    -1.0184    -0.4457 C.2     
   3 C3             2.0537    -1.5839    -0.5957 C.2     
   4 N4             3.1196    -0.7652    -0.5654 N.am    
   5 C5             2.9604     0.5920    -0.3995 C.2     
   6 C6             1.7228     1.1401    -0.2584 C.2     
   7 C7             4.4807    -1.2999    -0.7067 C.3     
   8 C8             5.2810    -0.3358    -1.5951 C.3     
   9 N9             5.3030     0.9843    -0.9492 N.am    
  10 C10            4.1660     1.4497    -0.3788 C.2     
  11 C11            6.5317     1.7818    -0.9229 C.3     
  12 O12            4.1366     2.5492     0.1393 O.2     
  13 O13            2.2033    -2.7846    -0.7460 O.2     
  14 N14           -0.4160    -1.8453    -0.4707 N.pl3   
  15 C15           -0.8572    -2.5781    -1.5269 C.2     
  16 N16           -1.9353    -3.2191    -1.1663 N.2     
  17 C17           -2.2203    -2.9264     0.1115 C.2     
  18 C18           -1.2818    -2.0753     0.5676 C.2     
  19 C19           -3.3861    -3.4624     0.9019 C.3     
  20 C20            6.6533     2.5744    -2.2259 C.3     
  21 O21            5.6041     3.5422    -2.2945 O.3     
  22 C22            5.5989     4.3714    -3.3715 C.ar    
  23 C23            6.3597     5.5443    -3.3568 C.ar    
  24 C24            4.8446     4.0540    -4.4884 C.ar    
  25 C25            4.8399     4.8970    -5.5845 C.ar    
  26 C26            5.5881     6.0626    -5.5720 C.ar    
  27 C27            6.3492     6.3882    -4.4645 C.ar    
  28 C28            7.1744     5.8886    -2.1660 C.2     
  29 N29            7.1840     5.1551    -1.0624 N.2     
  30 C30            7.9334     5.5588    -0.0955 C.2     
  31 S31            8.7453     6.9990    -0.5291 S.3     
  32 C32            7.9747     6.9724    -2.1131 C.2     
  33 F33            5.5786     6.8808    -6.6471 F       
  34 C34            8.0738     4.8598     1.2321 C.3     
  35 F35            9.0062     3.8231     1.1170 F       
  36 F36            8.5099     5.7743     2.1969 F       
  37 F37            6.8356     4.3329     1.6150 F       
  38 H38           -0.4010     0.7748    -0.1716 H       
  39 H39            1.6221     2.2075    -0.1285 H       
  40 H40            4.9510    -1.3734     0.2739 H       
  41 H41            4.4431    -2.2846    -1.1725 H       
  42 H42            6.3003    -0.7043    -1.7099 H       
  43 H43            4.8045    -0.2575    -2.5723 H       
  44 H44            6.4990     2.4718    -0.0797 H       
  45 H45            7.3918     1.1206    -0.8182 H       
  46 H46           -0.3937    -2.6220    -2.5013 H       
  47 H47           -1.2258    -1.6498     1.5587 H       
  48 H48           -3.0921    -4.3848     1.4028 H       
  49 H49           -3.6900    -2.7259     1.6458 H       
  50 H50           -4.2193    -3.6641     0.2288 H       
  51 H51            7.6177     3.0815    -2.2541 H       
  52 H52            6.5757     1.8938    -3.0738 H       
  53 H53            4.2593     3.1465    -4.5037 H       
  54 H54            4.2508     4.6455    -6.4540 H       
  55 H55            6.9316     7.2977    -4.4570 H       
  56 H56            8.1146     7.6985    -2.9004 H       
@<TRIPOS>BOND
   1    1    2 2
   2    1    6 1
   3    1   38 1
   4    2    3 1
   5    2   14 1
   6    3    4 am
   7    3   13 2
   8    4    5 1
   9    4    7 1
  10    5    6 2
  11    5   10 1
  12    6   39 1
  13    7    8 1
  14    7   40 1
  15    7   41 1
  16    8    9 1
  17    8   42 1
  18    8   43 1
  19    9   10 am
  20    9   11 1
  21   10   12 2
  22   11   20 1
  23   11   44 1
  24   11   45 1
  25   14   15 1
  26   14   18 1
  27   15   16 2
  28   15   46 1
  29   16   17 1
  30   17   18 2
  31   17   19 1
  32   18   47 1
  33   19   48 1
  34   19   49 1
  35   19   50 1
  36   20   21 1
  37   20   51 1
  38   20   52 1
  39   21   22 1
  40   22   23 ar
  41   22   24 ar
  42   23   27 ar
  43   23   28 1
  44   24   25 ar
  45   24   53 1
  46   25   26 ar
  47   25   54 1
  48   26   27 ar
  49   26   33 1
  50   27   55 1
  51   28   29 1
  52   28   32 2
  53   29   30 2
  54   30   31 1
  55   30   34 1
  56   31   32 1
  57   32   56 1
  58   34   35 1
  59   34   36 1
  60   34   37 1

#	End of record

