#	Name: ASD02560521
#	Creating user name:	WinNT
#	Creation time:	15. 06. 2019 20:25

#	Modifying user name:	WinNT
#	Modification time:	15. 06. 2019 20:25

#	Program:	/corina/corina34_cracker 3.40 0067  02.08.2006

@<TRIPOS>MOLECULE
ASD02560521
  57   61    0    0    0
SMALL
NO_CHARGES


@<TRIPOS>ATOM
   1 C1             0.1077     1.9740     0.2642 C.2     
   2 C2            -0.0275     0.5652     0.2183 C.2     
   3 C3             1.0781    -0.2245     0.1773 C.2     
   4 N4             2.3280     0.3312     0.1804 N.pl3   
   5 C5             2.4843     1.6978     0.2246 C.2     
   6 C6             1.3449     2.5311     0.2671 C.2     
   7 C7             3.5791    -0.2208     0.1461 C.2     
   8 C8             4.4774     0.8253     0.1702 C.2     
   9 N9             3.7781     1.9739     0.2178 N.2     
  10 C10            5.9540     0.7053     0.1480 C.ar    
  11 N11            3.8870    -1.5806     0.0969 N.3     
  12 C12            2.6810    -2.4003     0.2749 C.3     
  13 C13            6.5956    -0.1993     0.9930 C.ar    
  14 C14            6.7082     1.4935    -0.7229 C.ar    
  15 C15            1.9850    -2.5834    -1.0752 C.3     
  16 C16            3.0727    -3.7686     0.8365 C.3     
  17 C17            1.8166    -4.6223     1.0219 C.3     
  18 C18            1.1206    -4.8054    -0.3282 C.3     
  19 C19            0.7289    -3.4371    -0.8898 C.3     
  20 C20            7.9713    -0.3065     0.9680 C.ar    
  21 C21            8.7142     0.4813     0.1073 C.ar    
  22 C22            8.0838     1.3767    -0.7384 C.ar    
  23 Cl23           5.9183     2.6173    -1.7844 Cl      
  24 C24           -1.3780    -0.0498     0.2154 C.ar    
  25 C25           -2.2101     0.0873     1.3250 C.ar    
  26 C26           -3.4649    -0.4850     1.3191 C.ar    
  27 C27           -3.8994    -1.1972     0.2096 C.ar    
  28 C28           -3.0727    -1.3359    -0.8969 C.ar    
  29 C29           -1.8190    -0.7609    -0.8992 C.ar    
  30 O30           -5.1363    -1.7600     0.2067 O.3     
  31 C31           -5.5193    -2.4788    -0.9674 C.3     
  32 H32           -0.7702     2.6024     0.2923 H       
  33 H33            0.9689    -1.2984     0.1423 H       
  34 H34            1.4576     3.6046     0.3023 H       
  35 H35            4.3588    -1.8136    -0.7640 H       
  36 H36            2.0031    -1.9033     0.9688 H       
  37 H37            6.0171    -0.8147     1.6661 H       
  38 H38            1.7060    -1.6086    -1.4753 H       
  39 H39            2.6630    -3.0804    -1.7691 H       
  40 H40            3.7506    -4.2656     0.1427 H       
  41 H41            3.5686    -3.6381     1.7984 H       
  42 H42            2.0956    -5.5970     1.4220 H       
  43 H43            1.1386    -4.1253     1.7158 H       
  44 H44            1.7985    -5.3024    -1.0221 H       
  45 H45            0.2257    -5.4136    -0.1962 H       
  46 H46            0.0510    -2.9401    -0.1960 H       
  47 H47            0.2330    -3.5675    -1.8517 H       
  48 H48            8.4691    -1.0070     1.6222 H       
  49 H49            9.7906     0.3939     0.0922 H       
  50 H50            8.6692     1.9890    -1.4084 H       
  51 H51           -1.8725     0.6410     2.1886 H       
  52 H52           -4.1100    -0.3794     2.1788 H       
  53 H53           -3.4132    -1.8908    -1.7586 H       
  54 H54           -1.1764    -0.8688    -1.7605 H       
  55 H55           -5.5008    -1.8079    -1.8263 H       
  56 H56           -4.8230    -3.3009    -1.1335 H       
  57 H57           -6.5261    -2.8759    -0.8382 H       
@<TRIPOS>BOND
   1    1    2 1
   2    1    6 2
   3    1   32 1
   4    2    3 2
   5    2   24 1
   6    3    4 1
   7    3   33 1
   8    4    5 1
   9    4    7 1
  10    5    6 1
  11    5    9 2
  12    6   34 1
  13    7    8 2
  14    7   11 1
  15    8    9 1
  16    8   10 1
  17   10   13 ar
  18   10   14 ar
  19   11   12 1
  20   11   35 1
  21   12   16 1
  22   12   15 1
  23   12   36 1
  24   13   20 ar
  25   13   37 1
  26   14   23 1
  27   14   22 ar
  28   15   19 1
  29   15   38 1
  30   15   39 1
  31   16   17 1
  32   16   40 1
  33   16   41 1
  34   17   18 1
  35   17   42 1
  36   17   43 1
  37   18   19 1
  38   18   44 1
  39   18   45 1
  40   19   46 1
  41   19   47 1
  42   20   21 ar
  43   20   48 1
  44   21   22 ar
  45   21   49 1
  46   22   50 1
  47   24   25 ar
  48   24   29 ar
  49   25   26 ar
  50   25   51 1
  51   26   27 ar
  52   26   52 1
  53   27   28 ar
  54   27   30 1
  55   28   29 ar
  56   28   53 1
  57   29   54 1
  58   30   31 1
  59   31   55 1
  60   31   56 1
  61   31   57 1

#	End of record

