#	Name: ASD01915873
#	Creating user name:	WinNT
#	Creation time:	15. 06. 2019 20:06

#	Modifying user name:	WinNT
#	Modification time:	15. 06. 2019 20:06

#	Program:	/corina/corina34_cracker 3.40 0067  02.08.2006

@<TRIPOS>MOLECULE
ASD01915873
  43   47    0    0    0
SMALL
NO_CHARGES


@<TRIPOS>ATOM
   1 C1            -0.0097     1.4100     0.0837 C.2     
   2 N2             0.0239     0.0368    -0.0122 N.pl3   
   3 C3            -1.2119    -0.7477    -0.1214 C.3     
   4 C4            -2.3396    -0.0178     0.6064 C.3     
   5 N5            -2.4044     1.3988     0.2637 N.am    
   6 C6            -1.2827     2.1456     0.1220 C.2     
   7 C7             1.2865     1.8387     0.1415 C.2     
   8 C8             2.0579     0.6700     0.0876 C.2     
   9 N9             1.2387    -0.3521     0.0026 N.2     
  10 C10            3.5629     0.5991     0.1207 C.3     
  11 O11            4.1000     1.9198     0.2170 O.3     
  12 C12            5.4535     2.0340     0.2580 C.ar    
  13 O13           -1.3261     3.3581     0.0317 O.2     
  14 C14            6.0427     3.2865     0.3512 C.ar    
  15 C15            6.2483     0.8978     0.2123 C.ar    
  16 C16            7.6240     1.0165     0.2541 C.ar    
  17 C17            8.2089     2.2663     0.3413 C.ar    
  18 C18            7.4189     3.3999     0.3927 C.ar    
  19 C19           -3.6517     1.9991     0.0770 C.2     
  20 C20           -4.3315     2.1054    -1.0986 C.2     
  21 N21           -4.4209     2.5835     1.0367 N.pl3   
  22 C22           -5.5629     3.0427     0.4165 C.2     
  23 N23           -5.4813     2.7406    -0.8683 N.2     
  24 C24           -4.2712     2.7756     2.3848 C.2     
  25 C25           -5.2381     3.4076     3.0810 C.2     
  26 N26           -6.3463     3.8536     2.4816 N.2     
  27 C27           -6.5388     3.6961     1.1936 C.2     
  28 H28           -1.4750    -0.8677    -1.1724 H       
  29 H29           -1.0617    -1.7280     0.3308 H       
  30 H30           -3.2884    -0.4869     0.3461 H       
  31 H31           -2.1849    -0.1134     1.6811 H       
  32 H32            1.6397     2.8568     0.2129 H       
  33 H33            3.8801     0.0141     0.9840 H       
  34 H34            3.9245     0.1254    -0.7919 H       
  35 H35            5.4260     4.1722     0.3910 H       
  36 H36            5.7919    -0.0787     0.1446 H       
  37 H37            8.2432     0.1323     0.2190 H       
  38 H38            9.2846     2.3570     0.3738 H       
  39 H39            7.8781     4.3750     0.4604 H       
  40 H40           -3.9957     1.7370    -2.0567 H       
  41 H41           -3.3832     2.4223     2.8879 H       
  42 H42           -5.1147     3.5559     4.1436 H       
  43 H43           -7.4424     4.0651     0.7313 H       
@<TRIPOS>BOND
   1    1    2 1
   2    1    7 2
   3    1    6 1
   4    2    3 1
   5    2    9 1
   6    3    4 1
   7    3   28 1
   8    3   29 1
   9    4    5 1
  10    4   30 1
  11    4   31 1
  12    5    6 am
  13    5   19 1
  14    6   13 2
  15    7    8 1
  16    7   32 1
  17    8    9 2
  18    8   10 1
  19   10   11 1
  20   10   33 1
  21   10   34 1
  22   11   12 1
  23   12   14 ar
  24   12   15 ar
  25   14   18 ar
  26   14   35 1
  27   15   16 ar
  28   15   36 1
  29   16   17 ar
  30   16   37 1
  31   17   18 ar
  32   17   38 1
  33   18   39 1
  34   19   20 2
  35   19   21 1
  36   20   23 1
  37   20   40 1
  38   21   22 1
  39   21   24 1
  40   22   23 2
  41   22   27 1
  42   24   25 2
  43   24   41 1
  44   25   26 1
  45   25   42 1
  46   26   27 2
  47   27   43 1

#	End of record

