#	Name: ASD04590445
#	Creating user name:	WinNT
#	Creation time:	15. 06. 2019 20:50

#	Modifying user name:	WinNT
#	Modification time:	15. 06. 2019 20:50

#	Program:	/corina/corina34_cracker 3.40 0067  02.08.2006

@<TRIPOS>MOLECULE
ASD04590445
  55   60    0    0    0
SMALL
NO_CHARGES


@<TRIPOS>ATOM
   1 C1            -0.0167     1.3832     0.0096 C.ar    
   2 C2             0.0021    -0.0041     0.0020 C.ar    
   3 C3             2.4020     0.0223    -0.0207 C.ar    
   4 C4             2.3769     1.4283    -0.0129 C.ar    
   5 C5             1.1624     2.0986     0.0022 C.ar    
   6 N6             3.7040    -0.3552    -0.0356 N.2     
   7 C7             4.4709     0.7083    -0.0375 C.2     
   8 N8             3.6969     1.8375    -0.0238 N.pl3   
   9 C9             5.9482     0.6906    -0.0517 C.2     
  10 C10            6.7656    -0.4632    -0.0659 C.2     
  11 C11            8.0579    -0.0540    -0.0760 C.2     
  12 N12            8.0646     1.3051    -0.0685 N.pl3   
  13 N13            6.7360     1.7481    -0.0591 N.2     
  14 N14            6.3188    -1.7942    -0.0684 N.am    
  15 C15            7.2108    -2.8045    -0.0826 C.2     
  16 O16            8.4054    -2.5626    -0.0934 O.2     
  17 C17            6.7616    -4.1425    -0.0851 C.2     
  18 C18            1.1969    -0.6870    -0.0130 C.ar    
  19 O19            5.4739    -4.5447    -0.0747 O.3     
  20 C20           -1.2962    -0.7693     0.0108 C.3     
  21 N21           -1.7317    -1.0105    -1.3713 N.3     
  22 C22           -2.8603    -1.9518    -1.4113 C.3     
  23 C23           -0.6175    -1.4976    -2.1974 C.3     
  24 C24           -1.0994    -1.6784    -3.6393 C.3     
  25 O25           -2.2160    -2.5719    -3.6550 O.3     
  26 C26           -3.3197    -2.1280    -2.8611 C.3     
  27 C27            5.3765    -5.8742    -0.0810 C.2     
  28 C28            6.6436    -6.4218    -0.0963 C.ar    
  29 C29            7.5729    -5.2781    -0.1048 C.ar    
  30 C30            7.1775    -7.7269    -0.1086 C.ar    
  31 C31            8.5246    -7.8970    -0.1226 C.ar    
  32 C32            9.4026    -6.8117    -0.1248 C.ar    
  33 C33            8.9541    -5.5281    -0.1209 C.ar    
  34 H34           -0.9614     1.9066     0.0169 H       
  35 H35            1.1403     3.1784     0.0079 H       
  36 H36            4.0156     2.7537    -0.0220 H       
  37 H37            8.9276    -0.6942    -0.0873 H       
  38 H38            8.8529     1.8703    -0.0729 H       
  39 H39            5.3681    -1.9867    -0.0598 H       
  40 H40            1.2037    -1.7669    -0.0185 H       
  41 H41           -1.1522    -1.7232     0.5181 H       
  42 H42           -2.0559    -0.1898     0.5353 H       
  43 H43           -2.5453    -2.9149    -1.0097 H       
  44 H44           -3.6831    -1.5591    -0.8140 H       
  45 H45            0.1968    -0.7734    -2.1739 H       
  46 H46           -0.2667    -2.4535    -1.8083 H       
  47 H47           -1.4000    -0.7130    -4.0463 H       
  48 H48           -0.2926    -2.0935    -4.2433 H       
  49 H49           -4.1186    -2.8683    -2.9023 H       
  50 H50           -3.6848    -1.1757    -3.2455 H       
  51 H51            4.4529    -6.4340    -0.0750 H       
  52 H52            6.5204    -8.5840    -0.1065 H       
  53 H53            8.9276    -8.8989    -0.1320 H       
  54 H54           10.4666    -6.9965    -0.1355 H       
  55 H55            9.6555    -4.7069    -0.1228 H       
@<TRIPOS>BOND
   1    1    2 ar
   2    1    5 ar
   3    1   34 1
   4    2   18 ar
   5    2   20 1
   6    3    4 ar
   7    3    6 1
   8    3   18 ar
   9    4    5 ar
  10    4    8 1
  11    5   35 1
  12    6    7 2
  13    7    8 1
  14    7    9 1
  15    8   36 1
  16    9   10 1
  17    9   13 2
  18   10   11 2
  19   10   14 1
  20   11   12 1
  21   11   37 1
  22   12   13 1
  23   12   38 1
  24   14   15 am
  25   14   39 1
  26   15   16 2
  27   15   17 1
  28   17   19 1
  29   17   29 2
  30   18   40 1
  31   19   27 1
  32   20   21 1
  33   20   41 1
  34   20   42 1
  35   21   22 1
  36   21   23 1
  37   22   26 1
  38   22   43 1
  39   22   44 1
  40   23   24 1
  41   23   45 1
  42   23   46 1
  43   24   25 1
  44   24   47 1
  45   24   48 1
  46   25   26 1
  47   26   49 1
  48   26   50 1
  49   27   28 2
  50   27   51 1
  51   28   29 ar
  52   28   30 ar
  53   29   33 ar
  54   30   31 ar
  55   30   52 1
  56   31   32 ar
  57   31   53 1
  58   32   33 ar
  59   32   54 1
  60   33   55 1

#	End of record

