#	Name: ASD07020009
#	Creating user name:	WinNT
#	Creation time:	15. 06. 2019 21:08

#	Modifying user name:	WinNT
#	Modification time:	15. 06. 2019 21:08

#	Program:	/corina/corina34_cracker 3.40 0067  02.08.2006

@<TRIPOS>MOLECULE
ASD07020009
  72   75    0    0    0
SMALL
NO_CHARGES


@<TRIPOS>ATOM
   1 C1            -1.1086     3.6614    -0.1946 C.2     
   2 N2            -0.6012     2.4055    -0.3172 N.pl3   
   3 C3             0.7618     2.5314    -0.4188 C.2     
   4 C4             1.0371     3.8473    -0.3553 C.2     
   5 C5            -1.3279     1.2153    -0.3358 C.ar    
   6 N6            -2.6453     1.2630    -0.2266 N.ar    
   7 C7            -3.3669     0.1467    -0.2408 C.ar    
   8 C8            -2.7135    -1.0804    -0.3729 C.ar    
   9 C9            -1.3366    -1.0841    -0.4840 C.ar    
  10 N10           -0.6823     0.0678    -0.4675 N.ar    
  11 C11           -0.5875    -2.3837    -0.6285 C.3     
  12 N12           -4.7465     0.1998    -0.1258 N.3     
  13 C13           -5.2126    -0.6173     1.0025 C.3     
  14 C14           -6.7141    -0.3900     1.2076 C.3     
  15 N15           -7.4029    -0.6398    -0.0677 N.am    
  16 C16           -6.9042     0.0400    -1.2728 C.3     
  17 C17           -5.3953    -0.2043    -1.3803 C.3     
  18 C18           -8.4633    -1.4694    -0.1302 C.2     
  19 O19           -9.0624    -1.6100    -1.1752 O.2     
  20 C20           -8.9044    -2.2223     1.0985 C.3     
  21 C21          -10.3075    -2.7892     0.8729 C.3     
  22 C22           -7.9289    -3.3689     1.3717 C.3     
  23 C23           -7.6058    -0.5255    -2.5094 C.3     
  24 C24           -8.9944     0.0516    -2.6071 C.2     
  25 O25           -9.3846     0.8379    -1.7701 O.2     
  26 N26           -9.8028    -0.3059    -3.6245 N.am    
  27 C27          -11.1527     0.2552    -3.7195 C.3     
  28 C28          -11.8542    -0.3103    -4.9560 C.3     
  29 C29          -13.2429     0.2669    -5.0537 C.ar    
  30 C30          -13.4551     1.4398    -5.7544 C.ar    
  31 C31          -14.7271     1.9709    -5.8454 C.ar    
  32 C32          -15.7921     1.3264    -5.2330 C.ar    
  33 C33          -15.5766     0.1497    -4.5305 C.ar    
  34 C34          -14.3036    -0.3804    -4.4472 C.ar    
  35 O35          -17.0443     1.8471    -5.3207 O.3     
  36 C36          -18.0925     1.1300    -4.6657 C.3     
  37 N37           -0.1202     4.5123    -0.2188 N.2     
  38 H38           -2.1546     3.9123    -0.0981 H       
  39 H39            1.4761     1.7288    -0.5283 H       
  40 H40            2.0203     4.2914    -0.4056 H       
  41 H41           -3.2716    -2.0049    -0.3874 H       
  42 H42           -0.4892    -2.6308    -1.6856 H       
  43 H43            0.4032    -2.2833    -0.1852 H       
  44 H44           -1.1346    -3.1771    -0.1193 H       
  45 H45           -5.0300    -1.6704     0.7887 H       
  46 H46           -4.6745    -0.3305     1.9060 H       
  47 H47           -7.0881    -1.0771     1.9666 H       
  48 H48           -6.8890     0.6387     1.5228 H       
  49 H49           -7.0974     1.1100    -1.1961 H       
  50 H50           -4.9897     0.3820    -2.2048 H       
  51 H51           -5.2102    -1.2632    -1.5608 H       
  52 H52           -8.9189    -1.5461     1.9533 H       
  53 H53          -10.2930    -3.4654     0.0181 H       
  54 H54          -10.6265    -3.3338     1.7616 H       
  55 H55          -11.0024    -1.9724     0.6783 H       
  56 H56           -6.9625    -2.9610     1.6679 H       
  57 H57           -8.3200    -3.9955     2.1733 H       
  58 H58           -7.8093    -3.9671     0.4684 H       
  59 H59           -7.0386    -0.2608    -3.4018 H       
  60 H60           -7.6683    -1.6106    -2.4272 H       
  61 H61           -9.4907    -0.9347    -4.2939 H       
  62 H62          -11.7198    -0.0096    -2.8271 H       
  63 H63          -11.0902     1.3403    -3.8016 H       
  64 H64          -11.2871    -0.0455    -5.8484 H       
  65 H65          -11.9167    -1.3954    -4.8739 H       
  66 H66          -12.6256     1.9414    -6.2306 H       
  67 H67          -14.8922     2.8873    -6.3925 H       
  68 H68          -16.4040    -0.3540    -4.0529 H       
  69 H69          -14.1360    -1.2988    -3.9042 H       
  70 H70          -18.1627     0.1261    -5.0845 H       
  71 H71          -17.8766     1.0645    -3.5993 H       
  72 H72          -19.0376     1.6524    -4.8136 H       
@<TRIPOS>BOND
   1    1    2 1
   2    1   37 2
   3    1   38 1
   4    2    3 1
   5    2    5 1
   6    3    4 2
   7    3   39 1
   8    4   37 1
   9    4   40 1
  10    5    6 ar
  11    5   10 ar
  12    6    7 ar
  13    7    8 ar
  14    7   12 1
  15    8    9 ar
  16    8   41 1
  17    9   10 ar
  18    9   11 1
  19   11   42 1
  20   11   43 1
  21   11   44 1
  22   12   13 1
  23   12   17 1
  24   13   14 1
  25   13   45 1
  26   13   46 1
  27   14   15 1
  28   14   47 1
  29   14   48 1
  30   15   16 1
  31   15   18 am
  32   16   17 1
  33   16   23 1
  34   16   49 1
  35   17   50 1
  36   17   51 1
  37   18   19 2
  38   18   20 1
  39   20   21 1
  40   20   22 1
  41   20   52 1
  42   21   53 1
  43   21   54 1
  44   21   55 1
  45   22   56 1
  46   22   57 1
  47   22   58 1
  48   23   24 1
  49   23   59 1
  50   23   60 1
  51   24   25 2
  52   24   26 am
  53   26   27 1
  54   26   61 1
  55   27   28 1
  56   27   62 1
  57   27   63 1
  58   28   29 1
  59   28   64 1
  60   28   65 1
  61   29   30 ar
  62   29   34 ar
  63   30   31 ar
  64   30   66 1
  65   31   32 ar
  66   31   67 1
  67   32   33 ar
  68   32   35 1
  69   33   34 ar
  70   33   68 1
  71   34   69 1
  72   35   36 1
  73   36   70 1
  74   36   71 1
  75   36   72 1

#	End of record

