#	Name: ASD01870204
#	Creating user name:	WinNT
#	Creation time:	15. 06. 2019 19:38

#	Modifying user name:	WinNT
#	Modification time:	15. 06. 2019 19:38

#	Program:	/corina/corina34_cracker 3.40 0067  02.08.2006

@<TRIPOS>MOLECULE
ASD01870204
  62   67    0    0    0
SMALL
NO_CHARGES


@<TRIPOS>ATOM
   1 C1             0.9874    -0.2122     1.2133 C.2     
   2 C2             8.4637     3.3086     2.6244 C.ar    
   3 C3             7.8458     2.9123     1.4403 C.ar    
   4 C4             6.6392     3.4258     1.0728 C.ar    
   5 C5             6.0040     4.3691     1.8961 C.ar    
   6 C6             6.6329     4.7734     3.1025 C.ar    
   7 C7             7.8789     4.2207     3.4482 C.ar    
   8 C8             4.7569     4.9187     1.5465 C.ar    
   9 C9             4.1602     5.8283     2.3570 C.ar    
  10 C10            4.7718     6.2399     3.5575 C.ar    
  11 C11            6.0002     5.7131     3.9237 C.ar    
  12 C12            4.3478     7.1954     4.5998 C.2     
  13 N13            5.2706     7.2627     5.5747 N.am    
  14 C14            6.3706     6.3515     5.2387 C.3     
  15 C15            5.1916     8.1042     6.7713 C.3     
  16 C16            5.8944     7.4029     7.9353 C.3     
  17 C17            7.3623     7.1644     7.5756 C.3     
  18 C18            8.0447     8.5061     7.3016 C.3     
  19 C19            7.3418     9.2074     6.1375 C.3     
  20 C20            5.8740     9.4459     6.4972 C.3     
  21 C21            4.0820     4.4959     0.2671 C.3     
  22 C22            3.2966     3.2324     0.5073 C.ar    
  23 C23            1.9760     3.2979     0.9085 C.ar    
  24 N24            1.2784     2.2000     1.1224 N.ar    
  25 C25            1.8108     0.9956     0.9616 C.ar    
  26 C26            3.1376     0.8560     0.5586 C.ar    
  27 C27            3.8913     1.9917     0.3221 C.ar    
  28 O28            3.3118     7.8310     4.5792 O.2     
  29 O29            5.2571     6.1498     8.1913 O.3     
  30 C30            1.4361    -1.5476     1.1822 C.2     
  31 N31            0.4208    -2.3228     1.4555 N.2     
  32 C32           -0.3421    -0.2325     1.5232 C.2     
  33 N33           -0.7067    -1.5210     1.6700 N.pl3   
  34 C34           -2.0505    -2.0005     2.0024 C.3     
  35 H35            9.4188     2.8829     2.8946 H       
  36 H36            8.3311     2.1869     0.8041 H       
  37 H37            6.1731     3.1091     0.1514 H       
  38 H38            8.3694     4.5184     4.3632 H       
  39 H39            3.2029     6.2431     2.0778 H       
  40 H40            6.4740     5.5882     6.0100 H       
  41 H41            7.3013     6.9094     5.1355 H       
  42 H42            4.1458     8.2741     7.0276 H       
  43 H43            5.8356     8.0290     8.8256 H       
  44 H44            7.8631     6.6647     8.4049 H       
  45 H45            7.4211     6.5383     6.6853 H       
  46 H46            7.9859     9.1322     8.1919 H       
  47 H47            9.0905     8.3361     7.0453 H       
  48 H48            7.8280    10.1632     5.9423 H       
  49 H49            7.4007     8.5813     5.2472 H       
  50 H50            5.3732     9.9455     5.6680 H       
  51 H51            5.8152    10.0720     7.3875 H       
  52 H52            3.4079     5.2850    -0.0660 H       
  53 H53            4.8361     4.3149    -0.4988 H       
  54 H54            1.5091     4.2615     1.0492 H       
  55 H55            3.5701    -0.1251     0.4288 H       
  56 H56            4.9221     1.9149     0.0088 H       
  57 H57            5.6514     5.6493     8.9187 H       
  58 H58            2.4436    -1.8734     0.9693 H       
  59 H59           -0.9862     0.6283     1.6260 H       
  60 H60           -2.1555    -2.0655     3.0854 H       
  61 H61           -2.7921    -1.3066     1.6065 H       
  62 H62           -2.2038    -2.9860     1.5627 H       
@<TRIPOS>BOND
   1    1   30 1
   2    1   25 1
   3    1   32 2
   4    2    3 ar
   5    2    7 ar
   6    2   35 1
   7    3    4 ar
   8    3   36 1
   9    4    5 ar
  10    4   37 1
  11    5    6 ar
  12    5    8 ar
  13    6    7 ar
  14    6   11 ar
  15    7   38 1
  16    8    9 ar
  17    8   21 1
  18    9   10 ar
  19    9   39 1
  20   10   11 ar
  21   10   12 1
  22   11   14 1
  23   12   13 am
  24   12   28 2
  25   13   14 1
  26   13   15 1
  27   14   40 1
  28   14   41 1
  29   15   16 1
  30   15   20 1
  31   15   42 1
  32   16   17 1
  33   16   29 1
  34   16   43 1
  35   17   18 1
  36   17   44 1
  37   17   45 1
  38   18   19 1
  39   18   46 1
  40   18   47 1
  41   19   20 1
  42   19   48 1
  43   19   49 1
  44   20   50 1
  45   20   51 1
  46   21   22 1
  47   21   52 1
  48   21   53 1
  49   22   23 ar
  50   22   27 ar
  51   23   24 ar
  52   23   54 1
  53   24   25 ar
  54   25   26 ar
  55   26   27 ar
  56   26   55 1
  57   27   56 1
  58   29   57 1
  59   30   31 2
  60   30   58 1
  61   31   33 1
  62   32   33 1
  63   32   59 1
  64   33   34 1
  65   34   60 1
  66   34   61 1
  67   34   62 1

#	End of record

