#	Name: ASD01814231
#	Creating user name:	WinNT
#	Creation time:	15. 06. 2019 19:31

#	Modifying user name:	WinNT
#	Modification time:	15. 06. 2019 19:31

#	Program:	/corina/corina34_cracker 3.40 0067  02.08.2006

@<TRIPOS>MOLECULE
ASD01814231
  50   54    0    0    0
SMALL
NO_CHARGES


@<TRIPOS>ATOM
   1 C1             7.2680     1.2098    -0.7100 C.ar    
   2 C2             7.1850    -0.1739    -0.7110 C.ar    
   3 C3             5.9819    -0.8085    -0.4870 C.ar    
   4 C4             4.8316    -0.0598    -0.2561 C.ar    
   5 C5             4.9152     1.3434    -0.2549 C.ar    
   6 C6             6.1406     1.9743    -0.4833 C.ar    
   7 N7             3.6234    -0.6841    -0.0315 N.pl3   
   8 C8             2.4889    -0.0091     0.1946 C.2     
   9 C9             2.4464     1.3701     0.2197 C.2     
  10 C10            3.6900     2.1243    -0.0092 C.2     
  11 C11            1.1811     2.0742     0.4707 C.2     
  12 O12            1.1524     3.4217     0.4928 O.3     
  13 O13            0.1603     1.4413     0.6585 O.2     
  14 O14            3.7052     3.3427     0.0033 O.2     
  15 C15            3.5782    -2.1483    -0.0408 C.3     
  16 C16            3.4330    -2.6374    -1.4588 C.2     
  17 N17            4.4171    -2.8092    -2.2925 N.2     
  18 C18            3.9360    -3.2577    -3.4804 C.ar    
  19 C19            2.5416    -3.3630    -3.3436 C.ar    
  20 N20            2.2546    -2.9691    -2.0519 N.pl3   
  21 C21            4.5352    -3.5987    -4.6959 C.ar    
  22 C22            3.7639    -4.0299    -5.7376 C.ar    
  23 C23            2.3866    -4.1340    -5.6031 C.ar    
  24 C24            1.7739    -3.8031    -4.4133 C.ar    
  25 F25            6.2221     3.3228    -0.4824 F       
  26 C26            0.9262    -2.9100    -1.4371 C.3     
  27 C27            0.5654    -4.2668    -0.8892 C.ar    
  28 C28            0.8983    -4.5980     0.4109 C.ar    
  29 C29            0.5675    -5.8425     0.9135 C.ar    
  30 C30           -0.0967    -6.7556     0.1161 C.ar    
  31 C31           -0.4305    -6.4241    -1.1838 C.ar    
  32 C32           -0.1034    -5.1780    -1.6849 C.ar    
  33 H33            8.2189     1.6917    -0.8827 H       
  34 H34            8.0732    -0.7617    -0.8897 H       
  35 H35            5.9318    -1.8873    -0.4909 H       
  36 H36            1.5769    -0.5625     0.3624 H       
  37 H37            0.2971     3.8400     0.6618 H       
  38 H38            4.4998    -2.5430     0.3871 H       
  39 H39            2.7281    -2.4894     0.5500 H       
  40 H40            5.6062    -3.5210    -4.8116 H       
  41 H41            4.2307    -4.2921    -6.6756 H       
  42 H42            1.7907    -4.4762    -6.4363 H       
  43 H43            0.7017    -3.8859    -4.3139 H       
  44 H44            0.9329    -2.1810    -0.6268 H       
  45 H45            0.1919    -2.6138    -2.1863 H       
  46 H46            1.4173    -3.8845     1.0339 H       
  47 H47            0.8282    -6.1015     1.9290 H       
  48 H48           -0.3546    -7.7282     0.5085 H       
  49 H49           -0.9491    -7.1376    -1.8069 H       
  50 H50           -0.3642    -4.9190    -2.7005 H       
@<TRIPOS>BOND
   1    1    2 ar
   2    1    6 ar
   3    1   33 1
   4    2    3 ar
   5    2   34 1
   6    3    4 ar
   7    3   35 1
   8    4    5 ar
   9    4    7 1
  10    5    6 ar
  11    5   10 1
  12    6   25 1
  13    7    8 1
  14    7   15 1
  15    8    9 2
  16    8   36 1
  17    9   10 1
  18    9   11 1
  19   10   14 2
  20   11   12 1
  21   11   13 2
  22   12   37 1
  23   15   16 1
  24   15   38 1
  25   15   39 1
  26   16   17 2
  27   16   20 1
  28   17   18 1
  29   18   19 ar
  30   18   21 ar
  31   19   20 1
  32   19   24 ar
  33   20   26 1
  34   21   22 ar
  35   21   40 1
  36   22   23 ar
  37   22   41 1
  38   23   24 ar
  39   23   42 1
  40   24   43 1
  41   26   27 1
  42   26   44 1
  43   26   45 1
  44   27   28 ar
  45   27   32 ar
  46   28   29 ar
  47   28   46 1
  48   29   30 ar
  49   29   47 1
  50   30   31 ar
  51   30   48 1
  52   31   32 ar
  53   31   49 1
  54   32   50 1

#	End of record

