#	Name: ASD03091731
#	Creating user name:	WinNT
#	Creation time:	15. 06. 2019 20:31

#	Modifying user name:	WinNT
#	Modification time:	15. 06. 2019 20:31

#	Program:	/corina/corina34_cracker 3.40 0067  02.08.2006

@<TRIPOS>MOLECULE
ASD03091731
  57   61    0    0    0
SMALL
NO_CHARGES


@<TRIPOS>ATOM
   1 C1            -0.0653     1.3763    -0.2017 C.2     
   2 C2             0.0351     0.0525     0.0401 C.2     
   3 N3            -1.1164    -0.5494     0.2449 N.2     
   4 C4            -2.1858     0.1864     0.1909 C.2     
   5 S5            -1.7714     1.8113    -0.1406 S.3     
   6 N6            -3.4747    -0.2776     0.3807 N.3     
   7 C7            -4.4519     0.8137     0.2523 C.3     
   8 C8             1.0569     2.2983    -0.4647 C.ar    
   9 C9             1.0149     3.1957    -1.5401 C.ar    
  10 C10            2.1916     2.3048     0.3575 C.ar    
  11 C11            3.2156     3.1828     0.0754 C.ar    
  12 N12            3.1371     4.0089    -0.9515 N.ar    
  13 C13            2.0848     4.0389    -1.7482 C.ar    
  14 C14            1.3546    -0.6747     0.0726 C.3     
  15 C15            4.4418     3.2005     0.9513 C.3     
  16 N16            1.8272    -0.7673     1.4562 N.am    
  17 C17            2.9955    -1.3812     1.7296 C.2     
  18 C18            3.4709    -1.4742     3.1215 C.2     
  19 O19            3.6573    -1.8583     0.8278 O.2     
  20 C20            2.0557     5.0049    -2.9045 C.3     
  21 C21           -3.6041    -0.9586     1.6776 C.3     
  22 C22           -5.0609    -1.4134     1.8575 C.3     
  23 C23           -5.4902    -2.1507     0.5669 C.3     
  24 C24           -6.0299    -1.0223    -0.3408 C.3     
  25 C25           -5.8590     0.2548     0.5157 C.3     
  26 O26           -5.8831    -0.2235     1.8807 O.3     
  27 C27            2.8514    -0.9948     4.2383 C.2     
  28 O28            3.6101    -1.2860     5.2994 O.3     
  29 C29            4.7187    -1.9456     4.9290 C.2     
  30 C30            4.7088    -2.1088     3.5972 C.2     
  31 C31            5.7995    -2.4303     5.8608 C.3     
  32 H32           -4.2265     1.5931     0.9802 H       
  33 H33           -4.4063     1.2280    -0.7548 H       
  34 H34            0.1574     3.2259    -2.1959 H       
  35 H35            2.2624     1.6324     1.1997 H       
  36 H36            1.2271    -1.6773    -0.3356 H       
  37 H37            2.0849    -0.1293    -0.5251 H       
  38 H38            5.1777     2.4978     0.5605 H       
  39 H39            4.8670     4.2041     0.9608 H       
  40 H40            4.1675     2.9125     1.9661 H       
  41 H41            1.2993    -0.3867     2.1755 H       
  42 H42            2.4850     4.5293    -3.7863 H       
  43 H43            1.0249     5.2921    -3.1121 H       
  44 H44            2.6361     5.8922    -2.6515 H       
  45 H45           -2.9451    -1.8265     1.7016 H       
  46 H46           -3.3346    -0.2711     2.4794 H       
  47 H47           -5.1904    -2.0310     2.7463 H       
  48 H48           -4.6337    -2.6391     0.1021 H       
  49 H49           -6.2746    -2.8760     0.7833 H       
  50 H50           -5.4407    -0.9516    -1.2551 H       
  51 H51           -7.0816    -1.1887    -0.5741 H       
  52 H52           -6.6366     0.9917     0.3149 H       
  53 H53            1.9084    -0.4688     4.2611 H       
  54 H54            5.4601    -2.6001     2.9967 H       
  55 H55            5.5424    -2.1628     6.8857 H       
  56 H56            5.8902    -3.5135     5.7798 H       
  57 H57            6.7475    -1.9651     5.5907 H       
@<TRIPOS>BOND
   1    1    2 2
   2    1    8 1
   3    1    5 1
   4    2    3 1
   5    2   14 1
   6    3    4 2
   7    4    5 1
   8    4    6 1
   9    6    7 1
  10    6   21 1
  11    7   25 1
  12    7   32 1
  13    7   33 1
  14    8    9 ar
  15    8   10 ar
  16    9   13 ar
  17    9   34 1
  18   10   11 ar
  19   10   35 1
  20   11   12 ar
  21   11   15 1
  22   12   13 ar
  23   13   20 1
  24   14   16 1
  25   14   36 1
  26   14   37 1
  27   15   38 1
  28   15   39 1
  29   15   40 1
  30   16   17 am
  31   16   41 1
  32   17   18 1
  33   17   19 2
  34   18   27 2
  35   18   30 1
  36   20   42 1
  37   20   43 1
  38   20   44 1
  39   21   22 1
  40   21   45 1
  41   21   46 1
  42   22   23 1
  43   22   26 1
  44   22   47 1
  45   23   24 1
  46   23   48 1
  47   23   49 1
  48   24   25 1
  49   24   50 1
  50   24   51 1
  51   25   26 1
  52   25   52 1
  53   27   28 1
  54   27   53 1
  55   28   29 1
  56   29   30 2
  57   29   31 1
  58   30   54 1
  59   31   55 1
  60   31   56 1
  61   31   57 1

#	End of record

