#	Name: ASD03430375
#	Creating user name:	WinNT
#	Creation time:	15. 06. 2019 20:41

#	Modifying user name:	WinNT
#	Modification time:	15. 06. 2019 20:41

#	Program:	/corina/corina34_cracker 3.40 0067  02.08.2006

@<TRIPOS>MOLECULE
ASD03430375
  42   46    0    0    0
SMALL
NO_CHARGES


@<TRIPOS>ATOM
   1 O1            -0.0175     1.4361     0.0099 O.3     
   2 C2             0.0021    -0.0041     0.0020 C.3     
   3 C3             1.3458    -0.3163    -0.6709 C.3     
   4 C4             2.1586     0.9229    -0.4087 C.ar    
   5 C5             1.2614     1.9062     0.0003 C.ar    
   6 C6             1.7493     3.1681     0.3264 C.ar    
   7 C7             3.1000     3.4384     0.2354 C.ar    
   8 C8             3.9811     2.4564    -0.1807 C.ar    
   9 C9             3.5051     1.1982    -0.5029 C.ar    
  10 N10            2.1588    -2.4047    -1.1214 N.am    
  11 C11            1.9847    -1.5477    -0.0956 C.2     
  12 C12            1.1883    -0.5973    -2.1356 C.ar    
  13 C13            0.6783     0.1222    -3.1933 C.ar    
  14 C14            0.6727    -0.4240    -4.4645 C.ar    
  15 C15            1.1799    -1.6941    -4.6705 C.ar    
  16 C16            1.6910    -2.4191    -3.6142 C.ar    
  17 C17            1.7018    -1.8769    -2.3313 C.ar    
  18 O18            2.2856    -1.7343     1.0645 O.2     
  19 C19            2.7576    -3.7346    -0.9834 C.3     
  20 O20            1.2435    -5.1009     0.5275 O.3     
  21 C21            1.6773    -4.7442    -0.6925 C.2     
  22 C22            0.9836    -5.4406    -1.6107 C.2     
  23 C23            0.0792    -6.2649    -0.9024 C.2     
  24 C24            0.2744    -6.0228     0.4063 C.2     
  25 C25           -0.4684    -6.6753     1.5436 C.3     
  26 F26            0.2079    -7.8347     1.9380 F       
  27 F27           -0.5415    -5.7881     2.6229 F       
  28 F28           -1.7612    -7.0089     1.1258 F       
  29 Br29           3.7484     5.1581     0.6806 Br      
  30 H30           -0.0221    -0.3969     1.0185 H       
  31 H31           -0.8262    -0.3990    -0.5863 H       
  32 H32            1.0678     3.9399     0.6522 H       
  33 H33            5.0368     2.6717    -0.2548 H       
  34 H34            4.1908     0.4297    -0.8278 H       
  35 H35            0.2826     1.1138    -3.0305 H       
  36 H36            0.2728     0.1401    -5.2941 H       
  37 H37            1.1754    -2.1202    -5.6628 H       
  38 H38            2.0845    -3.4106    -3.7826 H       
  39 H39            3.2652    -4.0024    -1.9100 H       
  40 H40            3.4769    -3.7260    -0.1644 H       
  41 H41            1.0955    -5.3812    -2.6832 H       
  42 H42           -0.6321    -6.9560    -1.3300 H       
@<TRIPOS>BOND
   1    1    2 1
   2    1    5 1
   3    2    3 1
   4    2   30 1
   5    2   31 1
   6    3    4 1
   7    3   11 1
   8    3   12 1
   9    4    5 ar
  10    4    9 ar
  11    5    6 ar
  12    6    7 ar
  13    6   32 1
  14    7    8 ar
  15    7   29 1
  16    8    9 ar
  17    8   33 1
  18    9   34 1
  19   10   11 am
  20   10   17 1
  21   10   19 1
  22   11   18 2
  23   12   13 ar
  24   12   17 ar
  25   13   14 ar
  26   13   35 1
  27   14   15 ar
  28   14   36 1
  29   15   16 ar
  30   15   37 1
  31   16   17 ar
  32   16   38 1
  33   19   21 1
  34   19   39 1
  35   19   40 1
  36   20   21 1
  37   20   24 1
  38   21   22 2
  39   22   23 1
  40   22   41 1
  41   23   24 2
  42   23   42 1
  43   24   25 1
  44   25   26 1
  45   25   27 1
  46   25   28 1

#	End of record

