#	Name: ASD02198119
#	Creating user name:	WinNT
#	Creation time:	15. 06. 2019 20:18

#	Modifying user name:	WinNT
#	Modification time:	15. 06. 2019 20:18

#	Program:	/corina/corina34_cracker 3.40 0067  02.08.2006

@<TRIPOS>MOLECULE
ASD02198119
  39   41    0    0    0
SMALL
NO_CHARGES


@<TRIPOS>ATOM
   1 C1            -0.0189     1.3490    -0.2542 C.2     
   2 C2             0.0070    -0.0290    -0.2061 C.2     
   3 C3            -1.1773    -0.8335    -0.2368 C.1     
   4 S4             1.5602     1.9892    -0.1984 S.3     
   5 C5             2.2770     0.3884    -0.1089 C.2     
   6 C6             1.2892    -0.5679    -0.1249 C.2     
   7 C7             3.6576     0.1236    -0.0326 C.2     
   8 C8             4.6309     1.2320    -0.1476 C.ar    
   9 O9             4.0513    -1.0192     0.1282 O.2     
  10 N10            1.5431    -1.9292    -0.0662 N.pl3   
  11 N11           -1.1643     2.1048    -0.3413 N.pl3   
  12 N12           -2.1167    -1.4718    -0.2612 N.1     
  13 C13            5.2814     1.7142     0.9888 C.ar    
  14 C14           -1.0756     3.5665    -0.3860 C.3     
  15 C15           -2.3169     4.1487    -1.0846 C.3     
  16 C16            6.1882     2.7476     0.8749 C.ar    
  17 C17            6.4538     3.3066    -0.3627 C.ar    
  18 C18            5.8128     2.8346    -1.4939 C.ar    
  19 C19            4.9070     1.7967    -1.3951 C.ar    
  20 Cl20           4.1035     1.2047    -2.8155 Cl      
  21 C21           -3.0190     5.0551    -0.0525 C.3     
  22 C22           -1.8940     5.4444     0.9385 C.3     
  23 C23           -1.0667     4.1394     1.0463 C.3     
  24 H24            2.4568    -2.2501    -0.0105 H       
  25 H25            0.8072    -2.5609    -0.0808 H       
  26 H26           -2.0309     1.6703    -0.3731 H       
  27 H27            5.0751     1.2794     1.9557 H       
  28 H28           -0.1725     3.8695    -0.9158 H       
  29 H29           -2.0162     4.7349    -1.9529 H       
  30 H30           -2.9853     3.3437    -1.3903 H       
  31 H31            6.6918     3.1216     1.7541 H       
  32 H32            7.1647     4.1154    -0.4458 H       
  33 H33            6.0241     3.2757    -2.4568 H       
  34 H34           -3.4241     5.9431    -0.5377 H       
  35 H35           -3.8080     4.5070     0.4624 H       
  36 H36           -1.2868     6.2545     0.5347 H       
  37 H37           -2.3108     5.7187     1.9076 H       
  38 H38           -1.5405     3.4435     1.7385 H       
  39 H39           -0.0471     4.3592     1.3629 H       
@<TRIPOS>BOND
   1    1    2 2
   2    1    4 1
   3    1   11 1
   4    2    3 1
   5    2    6 1
   6    3   12 3
   7    4    5 1
   8    5    6 2
   9    5    7 1
  10    6   10 1
  11    7    8 1
  12    7    9 2
  13    8   13 ar
  14    8   19 ar
  15   10   24 1
  16   10   25 1
  17   11   14 1
  18   11   26 1
  19   13   16 ar
  20   13   27 1
  21   14   15 1
  22   14   23 1
  23   14   28 1
  24   15   21 1
  25   15   29 1
  26   15   30 1
  27   16   17 ar
  28   16   31 1
  29   17   18 ar
  30   17   32 1
  31   18   19 ar
  32   18   33 1
  33   19   20 1
  34   21   22 1
  35   21   34 1
  36   21   35 1
  37   22   23 1
  38   22   36 1
  39   22   37 1
  40   23   38 1
  41   23   39 1

#	End of record

