#	Name: ASD00840747
#	Creating user name:	WinNT
#	Creation time:	15. 06. 2019 18:39

#	Modifying user name:	WinNT
#	Modification time:	15. 06. 2019 18:39

#	Program:	/corina/corina34_cracker 3.40 0067  02.08.2006

@<TRIPOS>MOLECULE
ASD00840747
  93   98    0    0    0
SMALL
NO_CHARGES


@<TRIPOS>ATOM
   1 F1             6.0660    -1.9523    -2.0296 F       
   2 N2             1.0627     1.4585    -0.7562 N.ar    
   3 C3             1.3243     0.1665    -0.8621 C.ar    
   4 C4             1.2443    -0.6652     0.2478 C.ar    
   5 C5             0.8864    -0.1241     1.4701 C.ar    
   6 C6             0.6199     1.2366     1.5393 C.ar    
   7 C7             0.7190     2.0033     0.3955 C.ar    
   8 C8             1.5427    -2.1370     0.1223 C.3     
   9 C9             1.2606    -2.8486     1.4283 C.2     
  10 C10            0.7225    -2.7539    -1.0124 C.3     
  11 C11           -0.7395    -2.4632    -0.7910 C.2     
  12 N12           -1.6637    -2.9847    -1.6219 N.am    
  13 O13           -1.0845    -1.7598     0.1349 O.2     
  14 C14           -3.0810    -2.6217    -1.4875 C.3     
  15 C15           -3.9096    -3.9048    -1.3697 C.3     
  16 C16           -3.6043    -4.8156    -2.5611 C.3     
  17 C17           -2.1217    -5.1951    -2.5484 C.3     
  18 C18           -1.2721    -3.9223    -2.6831 C.3     
  19 N19           -4.4218    -6.0326    -2.4689 N.3     
  20 C20           -4.2435    -6.8782    -3.6575 C.3     
  21 C21           -5.0477    -8.1692    -3.4872 C.3     
  22 N22           -6.4655    -7.8374    -3.2884 N.3     
  23 C23           -6.6438    -6.9918    -2.0997 C.3     
  24 C24           -5.8396    -5.7008    -2.2700 C.3     
  25 C25           -7.2830    -9.0544    -3.1961 C.3     
  26 O26            0.1885    -2.9241     1.9905 O.2     
  27 N27            2.4207    -3.3815     1.8474 N.am    
  28 C28            3.0200    -2.3600    -0.1065 C.ar    
  29 C29            3.4730    -3.1132     0.9694 C.ar    
  30 C30            3.8807    -1.9712    -1.1081 C.ar    
  31 C31            5.2176    -2.3320    -1.0492 C.ar    
  32 C32            5.6810    -3.0831     0.0191 C.ar    
  33 C33            4.8176    -3.4730     1.0236 C.ar    
  34 Cl34           7.3551    -3.5360     0.0948 Cl      
  35 C35            2.2912    -5.9450     2.8405 C.ar    
  36 C36            1.0373    -6.3472     2.4045 C.ar    
  37 C37            3.3119    -6.8694     2.9521 C.ar    
  38 C38            3.0846    -8.1943     2.6293 C.ar    
  39 C39            1.8354    -8.5978     2.1943 C.ar    
  40 C40            0.8116    -7.6776     2.0815 C.ar    
  41 H41            1.6603    -9.6334     1.9427 H       
  42 O42            0.0316    -5.4399     2.2943 O.3     
  43 C43           -1.2330    -5.9253     1.8390 C.3     
  44 C44           -8.6975    -8.6855    -2.7443 C.3     
  45 C45           -9.5490    -9.9531    -2.6483 C.3     
  46 O46            1.6736    -0.3519    -2.0663 O.3     
  47 C47            2.1650    -0.1930    -4.4272 C.3     
  48 C48            1.6302     0.5304    -3.1896 C.3     
  49 S49            2.5840    -4.2551     3.2447 S.o2    
  50 O50            3.9520    -4.1630     3.6179 O.2     
  51 O51            1.5178    -3.8553     4.0948 O.2     
  52 H52            0.8157    -0.7462     2.3501 H       
  53 H53            0.3376     1.6905     2.4778 H       
  54 H54            0.5131     3.0623     0.4440 H       
  55 H55            1.0382    -2.3254    -1.9636 H       
  56 H56            0.8799    -3.8324    -1.0297 H       
  57 H57           -3.2194    -2.0140    -0.5933 H       
  58 H58           -3.3994    -2.0605    -2.3661 H       
  59 H59           -3.6538    -4.4193    -0.4435 H       
  60 H60           -4.9703    -3.6538    -1.3661 H       
  61 H61           -3.8370    -4.2914    -3.4880 H       
  62 H62           -1.8828    -5.6975    -1.6111 H       
  63 H63           -1.9099    -5.8626    -3.3837 H       
  64 H64           -1.4442    -3.4698    -3.6597 H       
  65 H65           -0.2171    -4.1742    -2.5756 H       
  66 H66           -4.5957    -6.3440    -4.5399 H       
  67 H67           -3.1874    -7.1206    -3.7762 H       
  68 H68           -4.9401    -8.7851    -4.3800 H       
  69 H69           -4.6774    -8.7167    -2.6205 H       
  70 H70           -7.6999    -6.7494    -1.9810 H       
  71 H71           -6.2916    -7.5260    -1.2173 H       
  72 H72           -5.9472    -5.0849    -1.3772 H       
  73 H73           -6.2099    -5.1533    -3.1367 H       
  74 H74           -7.3277    -9.5369    -4.1725 H       
  75 H75           -6.8373    -9.7376    -2.4732 H       
  76 H76            3.5147    -1.3861    -1.9388 H       
  77 H77            5.1856    -4.0584     1.8532 H       
  78 H78            4.2884    -6.5567     3.2915 H       
  79 H79            3.8839    -8.9152     2.7165 H       
  80 H80           -0.1640    -7.9934     1.7425 H       
  81 H81           -1.9447    -5.1008     1.7965 H       
  82 H82           -1.1195    -6.3588     0.8454 H       
  83 H83           -1.5994    -6.6865     2.5278 H       
  84 H84           -8.6528    -8.2030    -1.7680 H       
  85 H85           -9.1432    -8.0023    -3.4672 H       
  86 H86          -10.5567    -9.6903    -2.3264 H       
  87 H87           -9.5937   -10.4356    -3.6246 H       
  88 H88           -9.1032   -10.6363    -1.9254 H       
  89 H89            3.1622    -0.5807    -4.2188 H       
  90 H90            1.5000    -1.0184    -4.6813 H       
  91 H91            2.2138     0.5048    -5.2631 H       
  92 H92            0.6009     0.8419    -3.3673 H       
  93 H93            2.2453     1.4071    -2.9870 H       
@<TRIPOS>BOND
   1    1   31 1
   2    2    3 ar
   3    2    7 ar
   4    3    4 ar
   5    3   46 1
   6    4    5 ar
   7    4    8 1
   8    5    6 ar
   9    5   52 1
  10    6    7 ar
  11    6   53 1
  12    7   54 1
  13    8    9 1
  14    8   10 1
  15    8   28 1
  16    9   26 2
  17    9   27 am
  18   10   11 1
  19   10   55 1
  20   10   56 1
  21   11   12 am
  22   11   13 2
  23   12   14 1
  24   12   18 1
  25   14   15 1
  26   14   57 1
  27   14   58 1
  28   15   16 1
  29   15   59 1
  30   15   60 1
  31   16   17 1
  32   16   19 1
  33   16   61 1
  34   17   18 1
  35   17   62 1
  36   17   63 1
  37   18   64 1
  38   18   65 1
  39   19   20 1
  40   19   24 1
  41   20   21 1
  42   20   66 1
  43   20   67 1
  44   21   22 1
  45   21   68 1
  46   21   69 1
  47   22   23 1
  48   22   25 1
  49   23   24 1
  50   23   70 1
  51   23   71 1
  52   24   72 1
  53   24   73 1
  54   25   44 1
  55   25   74 1
  56   25   75 1
  57   27   49 am
  58   27   29 1
  59   28   29 ar
  60   28   30 ar
  61   29   33 ar
  62   30   31 ar
  63   30   76 1
  64   31   32 ar
  65   32   33 ar
  66   32   34 1
  67   33   77 1
  68   35   36 ar
  69   35   37 ar
  70   35   49 1
  71   36   42 1
  72   36   40 ar
  73   37   38 ar
  74   37   78 1
  75   38   39 ar
  76   38   79 1
  77   39   40 ar
  78   39   41 1
  79   40   80 1
  80   42   43 1
  81   43   81 1
  82   43   82 1
  83   43   83 1
  84   44   45 1
  85   44   84 1
  86   44   85 1
  87   45   86 1
  88   45   87 1
  89   45   88 1
  90   46   48 1
  91   47   48 1
  92   47   89 1
  93   47   90 1
  94   47   91 1
  95   48   92 1
  96   48   93 1
  97   49   50 2
  98   49   51 2

#	End of record

