#	Name: ASD01240015
#	Creating user name:	WinNT
#	Creation time:	15. 06. 2019 19:15

#	Modifying user name:	WinNT
#	Modification time:	15. 06. 2019 19:15

#	Program:	/corina/corina34_cracker 3.40 0067  02.08.2006

@<TRIPOS>MOLECULE
ASD01240015
  14   13    0    0    0
SMALL
NO_CHARGES


@<TRIPOS>ATOM
   1 C1            -0.0182     1.4893     0.0102 C.2     
   2 C2             0.0021    -0.0041     0.0020 C.2     
   3 C3            -1.2926    -0.7753     0.0102 C.3     
   4 C4            -0.9927    -2.2755    -0.0007 C.3     
   5 C5            -2.2874    -3.0467     0.0075 C.2     
   6 O6             1.0303     2.1138     0.0036 O.co2   
   7 O7            -1.0833     2.0851     0.0185 O.co2   
   8 O8            -3.3514    -2.4515     0.0209 O.co2   
   9 O9            -2.2709    -4.2658     0.0008 O.co2   
  10 O10            1.0560    -0.5936    -0.0112 O.2     
  11 H11           -1.8592    -0.5245     0.9070 H       
  12 H12           -1.8762    -0.5150    -0.8728 H       
  13 H13           -0.4261    -2.5263    -0.8975 H       
  14 H14           -0.4091    -2.5358     0.8824 H       
@<TRIPOS>BOND
   1    1    2 1
   2    1    6 ar
   3    1    7 ar
   4    2    3 1
   5    2   10 2
   6    3    4 1
   7    3   11 1
   8    3   12 1
   9    4    5 1
  10    4   13 1
  11    4   14 1
  12    5    8 ar
  13    5    9 ar

#	End of record

