#	Name: ASD03950024
#	Creating user name:	WinNT
#	Creation time:	15. 06. 2019 20:48

#	Modifying user name:	WinNT
#	Modification time:	15. 06. 2019 20:48

#	Program:	/corina/corina34_cracker 3.40 0067  02.08.2006

@<TRIPOS>MOLECULE
ASD03950024
  68   71    0    0    0
SMALL
NO_CHARGES


@<TRIPOS>ATOM
   1 N1            -0.0169     1.3942     0.0097 N.pl3   
   2 N2             0.0021    -0.0041     0.0020 N.2     
   3 C3             1.2312    -0.4341    -0.0120 C.2     
   4 C4             2.1094     0.7333    -0.0141 C.ar    
   5 C5             3.4969     0.8988    -0.0268 C.ar    
   6 C6             4.0415     2.1753    -0.0256 C.ar    
   7 C7             3.2115     3.2978    -0.0117 C.ar    
   8 C8             1.8301     3.1500     0.0011 C.ar    
   9 C9             1.2666     1.8606    -0.0000 C.ar    
  10 C10            0.9579     4.3397     0.0163 C.2     
  11 O11           -0.2507     4.2073     0.0274 O.2     
  12 N12            1.5008     5.5733     0.0178 N.am    
  13 C13            5.5154     2.3482    -0.0386 C.ar    
  14 C14            6.0683     3.6274    -0.0375 C.ar    
  15 C15            7.4384     3.7851    -0.0491 C.ar    
  16 C16            8.2665     2.6710    -0.0625 C.ar    
  17 C17            7.7186     1.3955    -0.0637 C.ar    
  18 C18            6.3492     1.2317    -0.0463 C.ar    
  19 O19            9.6161     2.8293    -0.0749 O.3     
  20 C20           10.4086     1.6403    -0.0883 C.3     
  21 F21           10.1075     0.8920    -1.2312 F       
  22 F22           11.7647     1.9840    -0.0998 F       
  23 F23           10.1297     0.8811     1.0532 F       
  24 N24            1.2106    -4.6672    -0.0333 N.am    
  25 C25            1.6136    -4.0358     1.2306 C.3     
  26 C26            1.1380    -2.5796     1.2280 C.3     
  27 C27            1.6687    -1.8761    -0.0232 C.3     
  28 C28            1.1161    -2.5669    -1.2720 C.3     
  29 C29            1.5915    -4.0230    -1.2977 C.3     
  30 S30            0.3494    -6.0816    -0.0330 S.o2    
  31 O31            0.6706    -6.6878    -1.2774 O.2     
  32 O32            0.6975    -6.7036     1.1964 O.2     
  33 C33           -1.3863    -5.5548    -0.0108 C.3     
  34 C34           -2.2933    -6.7870    -0.0088 C.3     
  35 C35           -3.7572    -6.3426     0.0099 C.3     
  36 N36           -4.6281    -7.5256     0.0118 N.3     
  37 C37           -6.0252    -7.1505     0.2675 C.3     
  38 C38           -4.5054    -8.2717    -1.2477 C.3     
  39 H39           -0.8150     1.9454     0.0167 H       
  40 H40            4.1446     0.0346    -0.0373 H       
  41 H41            3.6458     4.2866    -0.0105 H       
  42 H42            2.4650     5.6789     0.0089 H       
  43 H43            0.9273     6.3555     0.0277 H       
  44 H44            5.4245     4.4945    -0.0278 H       
  45 H45            7.8674     4.7762    -0.0482 H       
  46 H46            8.3653     0.5306    -0.0741 H       
  47 H47            5.9236     0.2392    -0.0427 H       
  48 H48            1.1582    -4.5675     2.0661 H       
  49 H49            2.6992    -4.0655     1.3241 H       
  50 H50            0.0483    -2.5528     1.2260 H       
  51 H51            1.5132    -2.0728     2.1171 H       
  52 H52            2.7576    -1.9251    -0.0331 H       
  53 H53            0.0267    -2.5402    -1.2505 H       
  54 H54            1.4757    -2.0510    -2.1623 H       
  55 H55            2.6752    -4.0516    -1.4105 H       
  56 H56            1.1214    -4.5461    -2.1305 H       
  57 H57           -1.5750    -4.9633     0.8850 H       
  58 H58           -1.5943    -4.9519    -0.8948 H       
  59 H59           -2.1046    -7.3785    -0.9047 H       
  60 H60           -2.0853    -7.3898     0.8751 H       
  61 H61           -3.9459    -5.7510     0.9057 H       
  62 H62           -3.9652    -5.7397    -0.8741 H       
  63 H63           -6.3660    -6.4669    -0.5101 H       
  64 H64           -6.6481    -8.0449     0.2635 H       
  65 H65           -6.0981    -6.6613     1.2388 H       
  66 H66           -3.4734    -8.5976    -1.3779 H       
  67 H67           -5.1605    -9.1424    -1.2195 H       
  68 H68           -4.7911    -7.6287    -2.0802 H       
@<TRIPOS>BOND
   1    1    2 1
   2    1    9 1
   3    1   39 1
   4    2    3 2
   5    3    4 1
   6    3   27 1
   7    4    5 ar
   8    4    9 ar
   9    5    6 ar
  10    5   40 1
  11    6    7 ar
  12    6   13 1
  13    7    8 ar
  14    7   41 1
  15    8    9 ar
  16    8   10 1
  17   10   11 2
  18   10   12 am
  19   12   42 1
  20   12   43 1
  21   13   14 ar
  22   13   18 ar
  23   14   15 ar
  24   14   44 1
  25   15   16 ar
  26   15   45 1
  27   16   17 ar
  28   16   19 1
  29   17   18 ar
  30   17   46 1
  31   18   47 1
  32   19   20 1
  33   20   21 1
  34   20   22 1
  35   20   23 1
  36   24   25 1
  37   24   29 1
  38   24   30 am
  39   25   26 1
  40   25   48 1
  41   25   49 1
  42   26   27 1
  43   26   50 1
  44   26   51 1
  45   27   28 1
  46   27   52 1
  47   28   29 1
  48   28   53 1
  49   28   54 1
  50   29   55 1
  51   29   56 1
  52   30   31 2
  53   30   32 2
  54   30   33 1
  55   33   34 1
  56   33   57 1
  57   33   58 1
  58   34   35 1
  59   34   59 1
  60   34   60 1
  61   35   36 1
  62   35   61 1
  63   35   62 1
  64   36   37 1
  65   36   38 1
  66   37   63 1
  67   37   64 1
  68   37   65 1
  69   38   66 1
  70   38   67 1
  71   38   68 1

#	End of record

