#	Name: ASD01231333
#	Creating user name:	WinNT
#	Creation time:	15. 06. 2019 19:15

#	Modifying user name:	WinNT
#	Modification time:	15. 06. 2019 19:15

#	Program:	/corina/corina34_cracker 3.40 0067  02.08.2006

@<TRIPOS>MOLECULE
ASD01231333
  47   49    0    0    0
SMALL
NO_CHARGES


@<TRIPOS>ATOM
   1 C1            -0.6422    -0.4186    -0.7780 C.3     
   2 C2             0.2409    -1.6094    -1.1560 C.3     
   3 C3            -0.6080    -2.6717    -1.8573 C.3     
   4 S4             1.5587    -1.0546    -2.2723 S.o2    
   5 O5             2.5415    -2.0694    -2.4268 O.2     
   6 O6             1.0088    -0.3895    -3.4012 O.2     
   7 N7             2.3359     0.1419    -1.4318 N.am    
   8 C8             3.0619    -0.1806    -0.2009 C.3     
   9 C9             4.5576    -0.4093    -0.5056 C.3     
  10 C10            5.1598     0.9939    -0.2813 C.3     
  11 C11            4.2328     1.6696     0.7065 C.ar    
  12 C12            4.4299     2.7859     1.5007 C.ar    
  13 C13            3.4216     3.2285     2.3428 C.ar    
  14 C14            2.2122     2.5493     2.3875 C.ar    
  15 C15            2.0188     1.4370     1.5940 C.ar    
  16 C16            3.0270     0.9947     0.7528 C.ar    
  17 O17            3.6170     4.3241     3.1225 O.3     
  18 C18            3.9921     5.2115     5.3036 C.ar    
  19 C19            3.8845     4.1296     4.4406 C.ar    
  20 C20            4.0536     2.8443     4.9429 C.ar    
  21 C21            4.3253     2.6962     6.2983 C.ar    
  22 C22            4.4175     3.8278     7.0960 C.ar    
  23 N23            4.2509     5.0308     6.5832 N.ar    
  24 O24            4.4979     1.4595     6.8349 O.3     
  25 C25            4.7740     1.3927     8.2354 C.3     
  26 H26           -0.0374     0.3382    -0.2784 H       
  27 H27           -1.0843     0.0063    -1.6791 H       
  28 H28           -1.4341    -0.7519    -0.1072 H       
  29 H29            0.6831    -2.0344    -0.2548 H       
  30 H30           -1.0501    -2.2468    -2.7584 H       
  31 H31            0.0212    -3.5201    -2.1265 H       
  32 H32           -1.3998    -3.0050    -1.1865 H       
  33 H33            2.3104     1.0563    -1.7544 H       
  34 H34            2.6324    -1.0647     0.2702 H       
  35 H35            4.9883    -1.1312     0.1882 H       
  36 H36            4.6979    -0.7307    -1.5376 H       
  37 H37            6.1633     0.9125     0.1364 H       
  38 H38            5.1835     1.5496    -1.2188 H       
  39 H39            5.3717     3.3131     1.4646 H       
  40 H40            1.4240     2.8904     3.0423 H       
  41 H41            1.0777     0.9085     1.6294 H       
  42 H42            3.8667     6.2136     4.9210 H       
  43 H43            3.9755     1.9826     4.2966 H       
  44 H44            4.6279     3.7216     8.1500 H       
  45 H45            5.6938     1.9364     8.4508 H       
  46 H46            3.9491     1.8401     8.7900 H       
  47 H47            4.8895     0.3507     8.5337 H       
@<TRIPOS>BOND
   1    1    2 1
   2    1   26 1
   3    1   27 1
   4    1   28 1
   5    2    3 1
   6    2    4 1
   7    2   29 1
   8    3   30 1
   9    3   31 1
  10    3   32 1
  11    4    5 2
  12    4    6 2
  13    4    7 am
  14    7    8 1
  15    7   33 1
  16    8    9 1
  17    8   16 1
  18    8   34 1
  19    9   10 1
  20    9   35 1
  21    9   36 1
  22   10   11 1
  23   10   37 1
  24   10   38 1
  25   11   12 ar
  26   11   16 ar
  27   12   13 ar
  28   12   39 1
  29   13   14 ar
  30   13   17 1
  31   14   15 ar
  32   14   40 1
  33   15   16 ar
  34   15   41 1
  35   17   19 1
  36   18   19 ar
  37   18   23 ar
  38   18   42 1
  39   19   20 ar
  40   20   21 ar
  41   20   43 1
  42   21   22 ar
  43   21   24 1
  44   22   23 ar
  45   22   44 1
  46   24   25 1
  47   25   45 1
  48   25   46 1
  49   25   47 1

#	End of record

