#	Name: ASD01913992
#	Creating user name:	WinNT
#	Creation time:	15. 06. 2019 20:02

#	Modifying user name:	WinNT
#	Modification time:	15. 06. 2019 20:02

#	Program:	/corina/corina34_cracker 3.40 0067  02.08.2006

@<TRIPOS>MOLECULE
ASD01913992
  46   49    0    0    0
SMALL
NO_CHARGES


@<TRIPOS>ATOM
   1 C1            -0.0181     1.3830     0.1509 C.ar    
   2 C2            -0.0007     0.0057     0.2647 C.ar    
   3 C3             1.2059    -0.6680     0.3594 C.ar    
   4 C4             2.3956     0.0376     0.3402 C.ar    
   5 C5             2.3784     1.4199     0.2259 C.ar    
   6 C6             1.1681     2.0913     0.1314 C.ar    
   7 F7             1.2208    -2.0143     0.4710 F       
   8 O8             3.5457     2.1156     0.2072 O.3     
   9 C9             3.4522     3.5365     0.0873 C.3     
  10 C10            4.8363     4.1325     0.0840 C.ar    
  11 N11            4.9795     5.4400    -0.0188 N.ar    
  12 C12            6.1661     6.0112    -0.0266 C.ar    
  13 C13            7.3250     5.2410     0.0745 C.ar    
  14 C14            7.2053     3.8502     0.1848 C.ar    
  15 C15            5.9359     3.3001     0.1944 C.ar    
  16 C16            8.6570     5.8823     0.0647 C.2     
  17 N17            8.7592     7.2219    -0.0425 N.am    
  18 C18           10.0791     7.8575    -0.0522 C.3     
  19 C19           10.0133     9.2255    -0.7691 C.3     
  20 C20           10.5303     8.1956     1.4015 C.3     
  21 C21            9.2998     8.9138     2.0351 C.3     
  22 C22            9.2340    10.2818     1.3182 C.3     
  23 C23           10.4309    10.2612     0.3190 C.3     
  24 C24           11.4752     9.4201     1.1346 C.3     
  25 O25            9.6601     5.2015     0.1533 O.2     
  26 H26           -0.9598     1.9058     0.0727 H       
  27 H27           -0.9291    -0.5459     0.2802 H       
  28 H28            3.3367    -0.4871     0.4143 H       
  29 H29            1.1531     3.1675     0.0420 H       
  30 H30            2.9452     3.7900    -0.8437 H       
  31 H31            2.8867     3.9358     0.9293 H       
  32 H32            6.2427     7.0851    -0.1124 H       
  33 H33            8.0812     3.2235     0.2649 H       
  34 H34            5.8049     2.2313     0.2781 H       
  35 H35            7.9587     7.7653    -0.1133 H       
  36 H36           10.8087     7.2090    -0.5373 H       
  37 H37           10.7119     9.2502    -1.6054 H       
  38 H38            8.9988     9.4251    -1.1143 H       
  39 H39           10.9467     7.3680     1.9758 H       
  40 H40            8.3898     8.3434     1.8495 H       
  41 H41            9.4506     9.0527     3.1056 H       
  42 H42            8.2915    10.3839     0.7802 H       
  43 H43            9.3524    11.0932     2.0363 H       
  44 H44           10.7607    11.2326    -0.0494 H       
  45 H45           11.7695     9.9183     2.0583 H       
  46 H46           12.3399     9.1451     0.5306 H       
@<TRIPOS>BOND
   1    1    2 ar
   2    1    6 ar
   3    1   26 1
   4    2    3 ar
   5    2   27 1
   6    3    4 ar
   7    3    7 1
   8    4    5 ar
   9    4   28 1
  10    5    6 ar
  11    5    8 1
  12    6   29 1
  13    8    9 1
  14    9   10 1
  15    9   30 1
  16    9   31 1
  17   10   11 ar
  18   10   15 ar
  19   11   12 ar
  20   12   13 ar
  21   12   32 1
  22   13   14 ar
  23   13   16 1
  24   14   15 ar
  25   14   33 1
  26   15   34 1
  27   16   17 am
  28   16   25 2
  29   17   18 1
  30   17   35 1
  31   18   19 1
  32   18   20 1
  33   18   36 1
  34   19   23 1
  35   19   37 1
  36   19   38 1
  37   20   21 1
  38   20   24 1
  39   20   39 1
  40   21   22 1
  41   21   40 1
  42   21   41 1
  43   22   23 1
  44   22   42 1
  45   22   43 1
  46   23   24 1
  47   23   44 1
  48   24   45 1
  49   24   46 1

#	End of record

