#	Name: ASD06350037
#	Creating user name:	WinNT
#	Creation time:	15. 06. 2019 21:06

#	Modifying user name:	WinNT
#	Modification time:	15. 06. 2019 21:06

#	Program:	/corina/corina34_cracker 3.40 0067  02.08.2006

@<TRIPOS>MOLECULE
ASD06350037
  47   50    0    0    0
SMALL
NO_CHARGES


@<TRIPOS>ATOM
   1 F1            -0.1920    -0.1330     0.1607 F       
   2 C2            -0.1842     1.2180     0.1592 C.ar    
   3 C3            -0.6594     1.9135     1.2585 C.ar    
   4 C4            -0.6519     3.2944     1.2591 C.ar    
   5 C5            -0.1675     3.9857     0.1564 C.ar    
   6 C6             0.3085     3.2864    -0.9449 C.ar    
   7 C7             0.3041     1.9055    -0.9394 C.ar    
   8 N8            -0.1595     5.3863     0.1548 N.am    
   9 C9             1.0202     6.0469     0.2566 C.2     
  10 C10            1.0689     7.4037     0.2582 C.2     
  11 C11           -0.1069     8.1465     0.1544 C.2     
  12 C12           -1.3233     7.4740     0.0494 C.2     
  13 C13           -1.3230     6.0555     0.0466 C.2     
  14 O14           -2.3736     5.4442    -0.0442 O.2     
  15 C15           -2.5845     8.2220    -0.0619 C.2     
  16 O16           -2.5932     9.4276     0.1020 O.2     
  17 N17           -3.7307     7.5722    -0.3454 N.am    
  18 C18           -4.9487     8.2624    -0.3308 C.ar    
  19 C19           -6.1111     7.6112     0.0596 C.ar    
  20 C20           -7.3131     8.2921     0.0746 C.ar    
  21 C21           -7.3599     9.6258    -0.3007 C.ar    
  22 C22           -6.1974    10.2792    -0.6918 C.ar    
  23 C23           -4.9935     9.6002    -0.7015 C.ar    
  24 F24           -6.2432    11.5789    -1.0579 F       
  25 O25           -8.5440    10.2950    -0.2864 O.3     
  26 C26           -9.0605    10.6992    -1.4721 C.ar    
  27 C27          -10.3252    11.2831    -1.5300 C.ar    
  28 C28          -10.8127    11.6805    -2.7610 C.ar    
  29 N29          -10.0697    11.4965    -3.8417 N.ar    
  30 C30           -8.8708    10.9388    -3.7562 C.ar    
  31 N31           -8.3670    10.5499    -2.5946 N.ar    
  32 N32           -8.1243    10.7634    -4.9082 N.pl3   
  33 H33           -1.0363     1.3755     2.1157 H       
  34 H34           -1.0229     3.8364     2.1164 H       
  35 H35            0.6856     3.8222    -1.8035 H       
  36 H36            0.6742     1.3613    -1.7957 H       
  37 H37            1.9379     5.4835     0.3384 H       
  38 H38            2.0200     7.9087     0.3404 H       
  39 H39           -0.0755     9.2260     0.1558 H       
  40 H40           -3.7117     6.6263    -0.5595 H       
  41 H41           -6.0757     6.5720     0.3515 H       
  42 H42           -8.2169     7.7849     0.3785 H       
  43 H43           -4.0896    10.1074    -1.0050 H       
  44 H44          -10.9111    11.4214    -0.6333 H       
  45 H45          -11.7888    12.1357    -2.8405 H       
  46 H46           -8.4802    11.0475    -5.7647 H       
  47 H47           -7.2452    10.3563    -4.8593 H       
@<TRIPOS>BOND
   1    1    2 1
   2    2    3 ar
   3    2    7 ar
   4    3    4 ar
   5    3   33 1
   6    4    5 ar
   7    4   34 1
   8    5    6 ar
   9    5    8 1
  10    6    7 ar
  11    6   35 1
  12    7   36 1
  13    8    9 1
  14    8   13 am
  15    9   10 2
  16    9   37 1
  17   10   11 1
  18   10   38 1
  19   11   12 2
  20   11   39 1
  21   12   13 1
  22   12   15 1
  23   13   14 2
  24   15   16 2
  25   15   17 am
  26   17   18 1
  27   17   40 1
  28   18   19 ar
  29   18   23 ar
  30   19   20 ar
  31   19   41 1
  32   20   21 ar
  33   20   42 1
  34   21   22 ar
  35   21   25 1
  36   22   23 ar
  37   22   24 1
  38   23   43 1
  39   25   26 1
  40   26   27 ar
  41   26   31 ar
  42   27   28 ar
  43   27   44 1
  44   28   29 ar
  45   28   45 1
  46   29   30 ar
  47   30   31 ar
  48   30   32 1
  49   32   46 1
  50   32   47 1

#	End of record

