#	Name: ASD04560006
#	Creating user name:	WinNT
#	Creation time:	15. 06. 2019 20:49

#	Modifying user name:	WinNT
#	Modification time:	15. 06. 2019 20:49

#	Program:	/corina/corina34_cracker 3.40 0067  02.08.2006

@<TRIPOS>MOLECULE
ASD04560006
  44   46    0    0    0
SMALL
NO_CHARGES


@<TRIPOS>ATOM
   1 C1             1.1434     2.0682     0.4223 C.ar    
   2 C2             0.8745     0.7279     0.5245 C.ar    
   3 C3             1.8791    -0.2060     0.2816 C.ar    
   4 C4             3.1596     0.2187    -0.0652 C.ar    
   5 C5             3.4345     1.5577    -0.1690 C.ar    
   6 C6             2.4279     2.4976     0.0738 C.ar    
   7 C7             2.7203     3.9386    -0.0374 C.2     
   8 O8             3.8377     4.3107    -0.3406 O.2     
   9 N9             1.7491     4.8433     0.1968 N.am    
  10 C10            2.0520     6.2097     0.2015 C.ar    
  11 C11            1.1161     7.1309    -0.2500 C.ar    
  12 C12            3.5836     7.9954     0.6668 C.ar    
  13 C13            3.2867     6.6466     0.6631 C.ar    
  14 F14            2.9434    10.2308     0.2153 F       
  15 S15            1.5296    -1.9280     0.4140 S.3     
  16 C16            3.1215    -2.6995     0.0126 C.3     
  17 C17            2.9852    -4.1986     0.0836 C.ar    
  18 C18            2.7929    -4.9383    -1.0829 C.ar    
  19 C19            2.6678    -6.3258    -1.0116 C.ar    
  20 C20            2.7348    -6.9598     0.2104 C.ar    
  21 C21            2.9257    -6.2202     1.3681 C.ar    
  22 C22            3.0562    -4.8414     1.3011 C.ar    
  23 B23            2.7168    -4.2115    -2.4725 Du      
  24 O24            3.2622    -4.8304    -3.6283 O.3     
  25 O25            2.1026    -2.9352    -2.5734 O.3     
  26 F26            2.9899    -6.8455     2.5639 F       
  27 C27            1.4171     8.4788    -0.2446 C.ar    
  28 C28            2.6510     8.9119     0.2108 C.ar    
  29 H29            0.3630     2.7917     0.6064 H       
  30 H30           -0.1172     0.3957     0.7939 H       
  31 H31            3.9367    -0.5076    -0.2523 H       
  32 H32            4.4276     1.8864    -0.4376 H       
  33 H33            0.8403     4.5474     0.3622 H       
  34 H34            0.1537     6.7935    -0.6055 H       
  35 H35            4.5437     8.3356     1.0257 H       
  36 H36            4.0142     5.9322     1.0192 H       
  37 H37            3.4224    -2.4093    -0.9941 H       
  38 H38            3.8758    -2.3690     0.7267 H       
  39 H39            2.5184    -6.9024    -1.9125 H       
  40 H40            2.6381    -8.0340     0.2665 H       
  41 H41            3.2047    -4.2693     2.2050 H       
  42 H42            3.5909    -5.7270    -3.4763 H       
  43 H43            1.6900    -2.6313    -1.7534 H       
  44 H44            0.6896     9.1955    -0.5960 H       
@<TRIPOS>BOND
   1    1    2 ar
   2    1    6 ar
   3    1   29 1
   4    2    3 ar
   5    2   30 1
   6    3    4 ar
   7    3   15 1
   8    4    5 ar
   9    4   31 1
  10    5    6 ar
  11    5   32 1
  12    6    7 1
  13    7    8 2
  14    7    9 am
  15    9   10 1
  16    9   33 1
  17   10   11 ar
  18   10   13 ar
  19   11   27 ar
  20   11   34 1
  21   12   13 ar
  22   12   28 ar
  23   12   35 1
  24   13   36 1
  25   14   28 1
  26   15   16 1
  27   16   17 1
  28   16   37 1
  29   16   38 1
  30   17   18 ar
  31   17   22 ar
  32   18   19 ar
  33   18   23 1
  34   19   20 ar
  35   19   39 1
  36   20   21 ar
  37   20   40 1
  38   21   22 ar
  39   21   26 1
  40   22   41 1
  41   23   24 1
  42   23   25 1
  43   24   42 1
  44   25   43 1
  45   27   28 ar
  46   27   44 1

#	End of record

