#	Name: ASD01812873
#	Creating user name:	WinNT
#	Creation time:	15. 06. 2019 19:29

#	Modifying user name:	WinNT
#	Modification time:	15. 06. 2019 19:29

#	Program:	/corina/corina34_cracker 3.40 0067  02.08.2006

@<TRIPOS>MOLECULE
ASD01812873
  50   54    0    0    0
SMALL
NO_CHARGES


@<TRIPOS>ATOM
   1 N1            -0.0158     1.3146     0.0093 N.ar    
   2 C2             0.0021    -0.0041     0.0020 C.ar    
   3 C3             1.1989    -0.7034    -0.0127 C.ar    
   4 C4             2.3830    -0.0016    -0.0202 C.ar    
   5 C5             2.3452     1.3975    -0.0128 C.ar    
   6 C6             1.0957     2.0332     0.0025 C.ar    
   7 C7             3.8374    -0.3895    -0.0363 C.3     
   8 N8             4.5957     0.8678    -0.0373 N.am    
   9 C9             3.7284     1.8956    -0.0237 C.2     
  10 C10            6.0561     0.9837    -0.0504 C.3     
  11 C11            6.5435     1.0303    -1.4757 C.ar    
  12 C12            6.6716     2.2471    -2.1207 C.ar    
  13 C13            7.1180     2.2955    -3.4259 C.ar    
  14 C14            7.4398     1.1159    -4.0935 C.ar    
  15 C15            7.3089    -0.1069    -3.4392 C.ar    
  16 C16            6.8666    -0.1435    -2.1322 C.ar    
  17 O17            1.0259     3.3855     0.0104 O.3     
  18 O18            4.0434     3.0700    -0.0212 O.2     
  19 C19           -0.2059     3.9610     0.0253 C.ar    
  20 C20           -0.8248     4.2491     1.2348 C.ar    
  21 C21           -2.0781     4.8352     1.2462 C.ar    
  22 C22           -2.7139     5.1333     0.0553 C.ar    
  23 C23           -2.0997     4.8474    -1.1501 C.ar    
  24 C24           -0.8449     4.2670    -1.1681 C.ar    
  25 F25           -0.2041     3.9570     2.3986 F       
  26 C26            8.2681     0.0896    -6.2662 C.2     
  27 C27            7.9200     1.1618    -5.4977 C.2     
  28 C28            8.0985     2.3202    -6.2788 C.2     
  29 N29            8.5322     1.9534    -7.4556 N.2     
  30 N30            8.6468     0.5580    -7.4724 N.pl3   
  31 C31            9.1004    -0.2529    -8.6050 C.3     
  32 Cl32          -0.0723     3.9149    -2.6823 Cl      
  33 H33           -0.9309    -0.5480     0.0080 H       
  34 H34            1.2022    -1.7834    -0.0178 H       
  35 H35            4.0797    -0.9726     0.8521 H       
  36 H36            4.0624    -0.9636    -0.9351 H       
  37 H37            6.3528     1.8971     0.4651 H       
  38 H38            6.4934     0.1227     0.4552 H       
  39 H39            6.4216     3.1609    -1.6023 H       
  40 H40            7.2174     3.2461    -3.9288 H       
  41 H41            7.5570    -1.0242    -3.9522 H       
  42 H42            6.7687    -1.0907    -1.6226 H       
  43 H43           -2.5603     5.0596     2.1861 H       
  44 H44           -3.6924     5.5901     0.0665 H       
  45 H45           -2.5991     5.0813    -2.0787 H       
  46 H46            8.2484    -0.9464    -5.9618 H       
  47 H47            7.9094     3.3348    -5.9607 H       
  48 H48            8.2438    -0.5300    -9.2196 H       
  49 H49            9.8065     0.3221    -9.2040 H       
  50 H50            9.5882    -1.1544    -8.2341 H       
@<TRIPOS>BOND
   1    1    2 ar
   2    1    6 ar
   3    2    3 ar
   4    2   33 1
   5    3    4 ar
   6    3   34 1
   7    4    7 1
   8    4    5 ar
   9    5    6 ar
  10    5    9 1
  11    6   17 1
  12    7    8 1
  13    7   35 1
  14    7   36 1
  15    8    9 am
  16    8   10 1
  17    9   18 2
  18   10   11 1
  19   10   37 1
  20   10   38 1
  21   11   12 ar
  22   11   16 ar
  23   12   13 ar
  24   12   39 1
  25   13   14 ar
  26   13   40 1
  27   14   15 ar
  28   14   27 1
  29   15   16 ar
  30   15   41 1
  31   16   42 1
  32   17   19 1
  33   19   20 ar
  34   19   24 ar
  35   20   21 ar
  36   20   25 1
  37   21   22 ar
  38   21   43 1
  39   22   23 ar
  40   22   44 1
  41   23   24 ar
  42   23   45 1
  43   24   32 1
  44   26   30 1
  45   26   27 2
  46   26   46 1
  47   27   28 1
  48   28   29 2
  49   28   47 1
  50   29   30 1
  51   30   31 1
  52   31   48 1
  53   31   49 1
  54   31   50 1

#	End of record

