#	Name: ASD01811434
#	Creating user name:	WinNT
#	Creation time:	15. 06. 2019 19:26

#	Modifying user name:	WinNT
#	Modification time:	15. 06. 2019 19:26

#	Program:	/corina/corina34_cracker 3.40 0067  02.08.2006

@<TRIPOS>MOLECULE
ASD01811434
  66   70    0    0    0
SMALL
NO_CHARGES


@<TRIPOS>ATOM
   1 N1            -0.0131     1.3808    -0.4648 N.am    
   2 C2             0.1730     0.3072    -1.2580 C.2     
   3 O3             1.2647     0.0968    -1.7501 O.2     
   4 N4            -0.8512    -0.5331    -1.5059 N.am    
   5 N5            -1.6834    -3.5304    -4.3477 N.3     
   6 C6            -1.4982    -3.9723    -2.9596 C.3     
   7 C7            -1.6749    -2.7807    -2.0156 C.3     
   8 C8            -0.6489    -1.7001    -2.3681 C.3     
   9 C9            -0.8317    -1.2921    -3.8326 C.3     
  10 C10           -0.6795    -2.5268    -4.7238 C.3     
  11 C11            1.0730     2.1948    -0.1226 C.ar    
  12 C12            0.8858     3.5584     0.0704 C.ar    
  13 C13            1.9550     4.3666     0.4080 C.ar    
  14 C14            3.2159     3.8249     0.5556 C.ar    
  15 C15            3.4143     2.4566     0.3644 C.ar    
  16 C16            2.3339     1.6401     0.0292 C.ar    
  17 C17           -0.4876     4.1579    -0.0893 C.3     
  18 C18            4.7640     1.8737     0.5214 C.2     
  19 O19            4.9137     0.8513     1.1616 O.2     
  20 C20            7.6833     3.1107    -2.0753 C.3     
  21 O21            8.4971     4.0357    -1.3368 O.3     
  22 C22            9.8043     3.9356    -1.9322 C.3     
  23 C23            9.5764     3.5291    -3.3699 C.ar    
  24 C24           10.3772     3.5770    -4.4889 C.ar    
  25 C25            9.8866     3.1202    -5.7142 C.ar    
  26 C26            8.5861     2.6177    -5.7950 C.ar    
  27 C27            7.7941     2.5746    -4.6660 C.ar    
  28 C28            8.2849     3.0273    -3.4565 C.ar    
  29 N29            5.8283     2.4759    -0.0453 N.am    
  30 C30            7.1595     1.8575     0.0192 C.3     
  31 C31            7.7168     1.7392    -1.4034 C.3     
  32 C32            6.2487     3.6284    -2.1549 C.3     
  33 C33            5.6779     3.7623    -0.7390 C.3     
  34 C34           10.7133     3.1673    -6.8826 C.1     
  35 N35           11.3691     3.2046    -7.8094 N.1     
  36 H36           -0.9003     1.5917    -0.1343 H       
  37 H37           -1.7222    -0.3653    -1.1133 H       
  38 H38           -1.6661    -4.3147    -4.9822 H       
  39 H39           -2.2366    -4.7376    -2.7205 H       
  40 H40           -0.4963    -4.3847    -2.8403 H       
  41 H41           -2.6813    -2.3764    -2.1244 H       
  42 H42           -1.5220    -3.1059    -0.9866 H       
  43 H43            0.3576    -2.0916    -2.2210 H       
  44 H44           -1.8249    -0.8644    -3.9699 H       
  45 H45           -0.0764    -0.5537    -4.1016 H       
  46 H46            0.3185    -2.9460    -4.5963 H       
  47 H47           -0.8233    -2.2423    -5.7662 H       
  48 H48            1.8035     5.4255     0.5563 H       
  49 H49            4.0490     4.4598     0.8187 H       
  50 H50            2.4805     0.5800    -0.1157 H       
  51 H51           -1.0074     4.1354     0.8685 H       
  52 H52           -0.3964     5.1895    -0.4292 H       
  53 H53           -1.0522     3.5822    -0.8228 H       
  54 H54           10.3108     4.8999    -1.8904 H       
  55 H55           10.3947     3.1780    -1.4168 H       
  56 H56           11.3819     3.9672    -4.4194 H       
  57 H57            8.2008     2.2637    -6.7398 H       
  58 H58            6.7882     2.1865    -4.7281 H       
  59 H59            7.8225     2.4792     0.6209 H       
  60 H60            7.0807     0.8658     0.4645 H       
  61 H61            7.1082     1.0389    -1.9755 H       
  62 H62            8.7448     1.3791    -1.3626 H       
  63 H63            6.2402     4.6025    -2.6441 H       
  64 H64            5.6406     2.9282    -2.7276 H       
  65 H65            4.6219     4.0265    -0.7942 H       
  66 H66            6.2224     4.5355    -0.1971 H       
@<TRIPOS>BOND
   1    1    2 am
   2    1   11 1
   3    1   36 1
   4    2    3 2
   5    2    4 am
   6    4    8 1
   7    4   37 1
   8    5    6 1
   9    5   10 1
  10    5   38 1
  11    6    7 1
  12    6   39 1
  13    6   40 1
  14    7    8 1
  15    7   41 1
  16    7   42 1
  17    8    9 1
  18    8   43 1
  19    9   10 1
  20    9   44 1
  21    9   45 1
  22   10   46 1
  23   10   47 1
  24   11   12 ar
  25   11   16 ar
  26   12   13 ar
  27   12   17 1
  28   13   14 ar
  29   13   48 1
  30   14   15 ar
  31   14   49 1
  32   15   16 ar
  33   15   18 1
  34   16   50 1
  35   17   51 1
  36   17   52 1
  37   17   53 1
  38   18   19 2
  39   18   29 am
  40   20   21 1
  41   20   28 1
  42   20   31 1
  43   20   32 1
  44   21   22 1
  45   22   23 1
  46   22   54 1
  47   22   55 1
  48   23   24 ar
  49   23   28 ar
  50   24   25 ar
  51   24   56 1
  52   25   26 ar
  53   25   34 1
  54   26   27 ar
  55   26   57 1
  56   27   28 ar
  57   27   58 1
  58   29   30 1
  59   29   33 1
  60   30   31 1
  61   30   59 1
  62   30   60 1
  63   31   61 1
  64   31   62 1
  65   32   33 1
  66   32   63 1
  67   32   64 1
  68   33   65 1
  69   33   66 1
  70   34   35 3

#	End of record

