#	Name: ASD02198498
#	Creating user name:	WinNT
#	Creation time:	15. 06. 2019 20:19

#	Modifying user name:	WinNT
#	Modification time:	15. 06. 2019 20:19

#	Program:	/corina/corina34_cracker 3.40 0067  02.08.2006

@<TRIPOS>MOLECULE
ASD02198498
  40   43    0    0    0
SMALL
NO_CHARGES


@<TRIPOS>ATOM
   1 C1            -0.1938     1.4236     0.3223 C.2     
   2 C2            -0.1293     0.0763     0.1777 C.2     
   3 N3             1.0611    -0.5496     0.0356 N.pl3   
   4 N4             2.1845     0.0677     0.0271 N.2     
   5 C5             2.2651     1.3742     0.1576 C.2     
   6 C6             1.0229     2.1476     0.3188 C.2     
   7 C7             1.0668    -1.9409    -0.1088 C.ar    
   8 C8            -0.1006    -4.0356    -0.0937 C.ar    
   9 C9             1.0781    -4.6931    -0.3947 C.ar    
  10 C10            2.2526    -3.9787    -0.5475 C.ar    
  11 C11            2.2505    -2.6052    -0.4055 C.ar    
  12 C12            3.5771     2.0523     0.1437 C.2     
  13 N13            4.7264     1.6070     0.7355 N.pl3   
  14 N14            5.7300     2.5496     0.4778 N.2     
  15 C15            5.2166     3.5201    -0.2353 C.2     
  16 C16            3.8700     3.2393    -0.4685 C.2     
  17 C17            4.8731     0.4253     1.4661 C.ar    
  18 C18            6.1200    -0.1819     1.5495 C.ar    
  19 O19            1.0411     3.3630     0.4436 O.2     
  20 N20            3.8241    -0.1023     2.0769 N.ar    
  21 C21            3.9188    -1.2160     2.7766 C.ar    
  22 C22            5.1265    -1.8762     2.8974 C.ar    
  23 C23            6.2517    -1.3526     2.2767 C.ar    
  24 C24           -0.1097    -2.6620     0.0496 C.ar    
  25 C25           -1.3778    -4.8182     0.0718 C.3     
  26 F26           -1.1197    -6.1791    -0.1247 F       
  27 F27           -1.8818    -4.6207     1.3619 F       
  28 F28           -2.3175    -4.3813    -0.8679 F       
  29 H29           -1.1424     1.9279     0.4320 H       
  30 H30           -1.0402    -0.5040     0.1763 H       
  31 H31            1.0816    -5.7668    -0.5107 H       
  32 H32            3.1715    -4.4953    -0.7822 H       
  33 H33            3.1678    -2.0480    -0.5254 H       
  34 H34            5.7484     4.3914    -0.5882 H       
  35 H35            3.1799     3.8536    -1.0278 H       
  36 H36            6.9749     0.2533     1.0533 H       
  37 H37            3.0411    -1.6170     3.2617 H       
  38 H38            5.1950    -2.7878     3.4725 H       
  39 H39            7.2074    -1.8494     2.3554 H       
  40 H40           -1.0306    -2.1491     0.2850 H       
@<TRIPOS>BOND
   1    1    2 2
   2    1    6 1
   3    1   29 1
   4    2    3 1
   5    2   30 1
   6    3    4 1
   7    3    7 1
   8    4    5 2
   9    5    6 1
  10    5   12 1
  11    6   19 2
  12    7   24 ar
  13    7   11 ar
  14    8    9 ar
  15    8   25 1
  16    8   24 ar
  17    9   10 ar
  18    9   31 1
  19   10   11 ar
  20   10   32 1
  21   11   33 1
  22   12   13 1
  23   12   16 2
  24   13   14 1
  25   13   17 1
  26   14   15 2
  27   15   16 1
  28   15   34 1
  29   16   35 1
  30   17   20 ar
  31   17   18 ar
  32   18   23 ar
  33   18   36 1
  34   20   21 ar
  35   21   22 ar
  36   21   37 1
  37   22   23 ar
  38   22   38 1
  39   23   39 1
  40   24   40 1
  41   25   26 1
  42   25   27 1
  43   25   28 1

#	End of record

