#	Name: ASD01882004
#	Creating user name:	WinNT
#	Creation time:	15. 06. 2019 19:43

#	Modifying user name:	WinNT
#	Modification time:	15. 06. 2019 19:43

#	Program:	/corina/corina34_cracker 3.40 0067  02.08.2006

@<TRIPOS>MOLECULE
ASD01882004
  55   58    0    0    0
SMALL
NO_CHARGES


@<TRIPOS>ATOM
   1 N1            -0.0179     1.4660     0.0101 N.am    
   2 C2             0.0021    -0.0041     0.0020 C.3     
   3 C3             1.4817    -0.4423     0.0128 C.3     
   4 C4             2.2073     0.7983     0.5975 C.3     
   5 C5             1.3719     1.9577    -0.0005 C.3     
   6 C6            -1.1236     2.2365     0.0197 C.2     
   7 O7            -2.2237     1.7205     0.0223 O.2     
   8 O8            -1.0093     3.5780     0.0264 O.3     
   9 C9             1.6789    -1.6607     0.9169 C.3     
  10 O10            1.0005    -2.7858     0.3547 O.3     
  11 N11            1.1509    -7.6247     2.9172 N.pl3   
  12 N12            0.3691    -8.3191     1.9821 N.2     
  13 N13            0.0220    -7.5194     1.0363 N.2     
  14 C14            0.5221    -6.2873     1.2572 C.ar    
  15 C15            1.2503    -6.3308     2.4588 C.ar    
  16 C16            0.4425    -5.0805     0.5486 C.ar    
  17 C17            1.0764    -3.9580     1.0398 C.ar    
  18 C18            1.7939    -4.0168     2.2321 C.ar    
  19 C19            1.8815    -5.1865     2.9330 C.ar    
  20 C20            1.7400    -8.1681     4.1435 C.3     
  21 C21            3.1367    -8.7140     3.8399 C.3     
  22 C22            3.9686    -9.2215     5.0194 C.3     
  23 C23            3.3641   -10.2155     4.0257 C.3     
  24 Br24          -0.5293    -4.9915    -1.0712 Br      
  25 C25           -2.2424     4.3446     0.0367 C.3     
  26 C26           -3.0502     3.9946     1.2880 C.3     
  27 C27           -1.9138     5.8389     0.0432 C.3     
  28 C28           -3.0624     4.0082    -1.2104 C.3     
  29 H29           -0.5043    -0.3865     0.8883 H       
  30 H30           -0.4883    -0.3765    -0.8974 H       
  31 H31            1.8295    -0.6512    -0.9989 H       
  32 H32            2.1582     0.8025     1.6863 H       
  33 H33            3.2409     0.8441     0.2544 H       
  34 H34            1.6918     2.1688    -1.0209 H       
  35 H35            1.4634     2.8499     0.6189 H       
  36 H36            2.7428    -1.8826     1.0008 H       
  37 H37            1.2729    -1.4487     1.9060 H       
  38 H38            2.2858    -3.1307     2.6053 H       
  39 H39            2.4405    -5.2218     3.8564 H       
  40 H40            1.8131    -7.3792     4.8921 H       
  41 H41            1.1103    -8.9725     4.5237 H       
  42 H42            3.6671    -8.2213     3.0250 H       
  43 H43            5.0464    -9.0631     4.9802 H       
  44 H44            3.5209    -9.1666     6.0117 H       
  45 H45            2.5187   -10.8145     4.3642 H       
  46 H46            4.0442   -10.7111     3.3328 H       
  47 H47           -2.4659     4.2343     2.1764 H       
  48 H48           -3.9758     4.5701     1.2957 H       
  49 H49           -3.2842     2.9300     1.2834 H       
  50 H50           -1.3383     6.0883    -0.8483 H       
  51 H51           -2.8395     6.4144     0.0508 H       
  52 H52           -1.3296     6.0786     0.9316 H       
  53 H53           -3.2965     2.9436    -1.2150 H       
  54 H54           -3.9881     4.5837    -1.2027 H       
  55 H55           -2.4869     4.2575    -2.1019 H       
@<TRIPOS>BOND
   1    1    2 1
   2    1    5 1
   3    1    6 am
   4    2    3 1
   5    2   29 1
   6    2   30 1
   7    3    4 1
   8    3    9 1
   9    3   31 1
  10    4    5 1
  11    4   32 1
  12    4   33 1
  13    5   34 1
  14    5   35 1
  15    6    7 2
  16    6    8 1
  17    8   25 1
  18    9   10 1
  19    9   36 1
  20    9   37 1
  21   10   17 1
  22   11   12 1
  23   11   15 1
  24   11   20 1
  25   12   13 2
  26   13   14 1
  27   14   15 ar
  28   14   16 ar
  29   15   19 ar
  30   16   17 ar
  31   16   24 1
  32   17   18 ar
  33   18   19 ar
  34   18   38 1
  35   19   39 1
  36   20   21 1
  37   20   40 1
  38   20   41 1
  39   21   22 1
  40   21   23 1
  41   21   42 1
  42   22   23 1
  43   22   43 1
  44   22   44 1
  45   23   45 1
  46   23   46 1
  47   25   26 1
  48   25   28 1
  49   25   27 1
  50   26   47 1
  51   26   48 1
  52   26   49 1
  53   27   50 1
  54   27   51 1
  55   27   52 1
  56   28   53 1
  57   28   54 1
  58   28   55 1

#	End of record

