#	Name: ASD01811622
#	Creating user name:	WinNT
#	Creation time:	15. 06. 2019 19:27

#	Modifying user name:	WinNT
#	Modification time:	15. 06. 2019 19:27

#	Program:	/corina/corina34_cracker 3.40 0067  02.08.2006

@<TRIPOS>MOLECULE
ASD01811622
  60   64    0    0    0
SMALL
NO_CHARGES


@<TRIPOS>ATOM
   1 C1             0.0987     1.3102    -0.0297 C.2     
   2 O2            -0.2873     0.4831     0.7730 O.2     
   3 C3             1.4095     1.9679     0.1587 C.ar    
   4 C4             2.5674     1.1971     0.2872 C.ar    
   5 C5             3.7919     1.8098     0.4632 C.ar    
   6 C6             3.8810     3.1871     0.5133 C.ar    
   7 C7             2.7316     3.9693     0.3861 C.ar    
   8 C8             1.4934     3.3578     0.2026 C.ar    
   9 C9             2.8291     5.4443     0.4405 C.2     
  10 N10            1.7753     6.3160     0.4417 N.pl3   
  11 C11            2.3006     7.5673     0.5018 C.2     
  12 C12            3.6497     7.4366     0.5339 C.2     
  13 N13            3.9459     6.1411     0.5017 N.2     
  14 C14            1.5962     8.8989     0.5329 C.3     
  15 C15            4.5815     8.6230     0.5985 C.3     
  16 C16            3.7743     9.8730     0.2190 C.3     
  17 O17            2.5444     9.8918     0.9484 O.3     
  18 C18            5.2220     3.8471     0.7061 C.3     
  19 C19            2.4795    -0.3064     0.2343 C.3     
  20 N20           -0.6658     1.6239    -1.0945 N.am    
  21 C21           -1.9280     0.9148    -1.3447 C.3     
  22 C22           -1.9102     0.3662    -2.7749 C.3     
  23 C23           -1.6272     1.5095    -3.7521 C.3     
  24 C24           -0.2540     2.1135    -3.4493 C.3     
  25 C25           -0.2558     2.6857    -2.0236 C.3     
  26 C26           -1.6426     0.9797    -5.1628 C.ar    
  27 C27           -2.5461     1.4831    -6.0800 C.ar    
  28 C28           -2.5607     0.9976    -7.3740 C.ar    
  29 C29           -1.6709     0.0076    -7.7512 C.ar    
  30 C30           -0.7669    -0.4958    -6.8328 C.ar    
  31 C31           -0.7495    -0.0055    -5.5406 C.ar    
  32 Cl32          -1.6890    -0.6031    -9.3761 Cl      
  33 H33            4.6841     1.2093     0.5624 H       
  34 H34            0.6019     3.9585     0.0992 H       
  35 H35            0.8338     6.0851     0.4061 H       
  36 H36            1.2212     9.1408    -0.4615 H       
  37 H37            0.7680     8.8613     1.2407 H       
  38 H38            4.9740     8.7298     1.6098 H       
  39 H39            5.4030     8.4863    -0.1047 H       
  40 H40            4.3525    10.7651     0.4598 H       
  41 H41            3.5618     9.8568    -0.8499 H       
  42 H42            5.6311     4.1290    -0.2641 H       
  43 H43            5.1032     4.7379     1.3230 H       
  44 H44            5.9016     3.1519     1.1989 H       
  45 H45            2.4976    -0.6350    -0.8048 H       
  46 H46            3.3265    -0.7388     0.7669 H       
  47 H47            1.5509    -0.6328     0.7025 H       
  48 H48           -2.0304     0.0908    -0.6385 H       
  49 H49           -2.7640     1.6045    -1.2283 H       
  50 H50           -1.1307    -0.3904    -2.8647 H       
  51 H51           -2.8781    -0.0787    -3.0060 H       
  52 H52           -2.3934     2.2773    -3.6443 H       
  53 H53            0.5099     1.3405    -3.5327 H       
  54 H54           -0.0431     2.9123    -4.1603 H       
  55 H55           -0.9582     3.5169    -1.9614 H       
  56 H56            0.7454     3.0306    -1.7655 H       
  57 H57           -3.2409     2.2557    -5.7854 H       
  58 H58           -3.2669     1.3907    -8.0905 H       
  59 H59           -0.0721    -1.2686    -7.1266 H       
  60 H60           -0.0409    -0.3952    -4.8248 H       
@<TRIPOS>BOND
   1    1    2 2
   2    1    3 1
   3    1   20 am
   4    3    4 ar
   5    3    8 ar
   6    4    5 ar
   7    4   19 1
   8    5    6 ar
   9    5   33 1
  10    6    7 ar
  11    6   18 1
  12    7    8 ar
  13    7    9 1
  14    8   34 1
  15    9   10 1
  16    9   13 2
  17   10   11 1
  18   10   35 1
  19   11   12 2
  20   11   14 1
  21   12   13 1
  22   12   15 1
  23   14   17 1
  24   14   36 1
  25   14   37 1
  26   15   16 1
  27   15   38 1
  28   15   39 1
  29   16   17 1
  30   16   40 1
  31   16   41 1
  32   18   42 1
  33   18   43 1
  34   18   44 1
  35   19   45 1
  36   19   46 1
  37   19   47 1
  38   20   21 1
  39   20   25 1
  40   21   22 1
  41   21   48 1
  42   21   49 1
  43   22   23 1
  44   22   50 1
  45   22   51 1
  46   23   24 1
  47   23   26 1
  48   23   52 1
  49   24   25 1
  50   24   53 1
  51   24   54 1
  52   25   55 1
  53   25   56 1
  54   26   27 ar
  55   26   31 ar
  56   27   28 ar
  57   27   57 1
  58   28   29 ar
  59   28   58 1
  60   29   30 ar
  61   29   32 1
  62   30   31 ar
  63   30   59 1
  64   31   60 1

#	End of record

