#	Name: ASD03092928
#	Creating user name:	WinNT
#	Creation time:	15. 06. 2019 20:33

#	Modifying user name:	WinNT
#	Modification time:	15. 06. 2019 20:33

#	Program:	/corina/corina34_cracker 3.40 0067  02.08.2006

@<TRIPOS>MOLECULE
ASD03092928
  35   37    0    0    0
SMALL
NO_CHARGES


@<TRIPOS>ATOM
   1 C1             0.2251     1.4117     0.2365 C.3     
   2 C2             0.0704    -0.0979     0.0415 C.3     
   3 N3            -1.3518    -0.4493     0.0590 N.pl3   
   4 C4            -2.0308    -0.8692     1.1533 C.2     
   5 C5            -3.3325    -1.1100     0.8246 C.2     
   6 C6            -4.3945    -1.5776     1.7249 C.2     
   7 O7            -5.5206    -1.7525     1.2983 O.2     
   8 N8            -4.1217    -1.8132     3.0236 N.am    
   9 C9            -5.1522    -2.1637     3.9023 C.ar    
  10 C10           -5.1296    -1.7322     5.2221 C.ar    
  11 N11           -6.0981    -2.0596     6.0541 N.ar    
  12 C12           -7.1192    -2.8022     5.6746 C.ar    
  13 C13           -7.2134    -3.2706     4.3744 C.ar    
  14 F14           -8.2643    -4.0305     3.9958 F       
  15 C15           -6.2182    -2.9455     3.4646 C.ar    
  16 C16           -3.4635    -0.8078    -0.6127 C.ar    
  17 C17           -4.5202    -0.8551    -1.5183 C.ar    
  18 C18           -4.3080    -0.4979    -2.8342 C.ar    
  19 F19           -5.3300    -0.5417    -3.7166 F       
  20 C20           -3.0476    -0.0930    -3.2548 C.ar    
  21 C21           -1.9945    -0.0427    -2.3676 C.ar    
  22 C22           -2.1905    -0.3936    -1.0362 C.ar    
  23 H23            1.2832     1.6732     0.2235 H       
  24 H24           -0.2888     1.9366    -0.5688 H       
  25 H25           -0.2089     1.7008     1.1937 H       
  26 H26            0.5043    -0.3870    -0.9157 H       
  27 H27            0.5843    -0.6228     0.8468 H       
  28 H28           -1.6053    -0.9950     2.1380 H       
  29 H29           -3.2109    -1.7396     3.3490 H       
  30 H30           -4.3095    -1.1220     5.5706 H       
  31 H31           -7.8925    -3.0489     6.3871 H       
  32 H32           -6.2668    -3.2933     2.4433 H       
  33 H33           -5.5006    -1.1701    -1.1927 H       
  34 H34           -2.8916     0.1846    -4.2867 H       
  35 H35           -1.0184     0.2732    -2.7050 H       
@<TRIPOS>BOND
   1    1    2 1
   2    1   23 1
   3    1   24 1
   4    1   25 1
   5    2    3 1
   6    2   26 1
   7    2   27 1
   8    3   22 1
   9    3    4 1
  10    4    5 2
  11    4   28 1
  12    5    6 1
  13    5   16 1
  14    6    7 2
  15    6    8 am
  16    8    9 1
  17    8   29 1
  18    9   15 ar
  19    9   10 ar
  20   10   11 ar
  21   10   30 1
  22   11   12 ar
  23   12   13 ar
  24   12   31 1
  25   13   14 1
  26   13   15 ar
  27   15   32 1
  28   16   22 ar
  29   16   17 ar
  30   17   18 ar
  31   17   33 1
  32   18   19 1
  33   18   20 ar
  34   20   21 ar
  35   20   34 1
  36   21   22 ar
  37   21   35 1

#	End of record

