#	Name: ASD00740028
#	Creating user name:	WinNT
#	Creation time:	15. 06. 2019 18:37

#	Modifying user name:	WinNT
#	Modification time:	15. 06. 2019 18:37

#	Program:	/corina/corina34_cracker 3.40 0067  02.08.2006

@<TRIPOS>MOLECULE
ASD00740028
  65   69    0    0    0
SMALL
NO_CHARGES


@<TRIPOS>ATOM
   1 C1             0.0069     1.9431     0.0289 C.3     
   2 C2             0.7262     0.0578     1.5022 C.3     
   3 C3            -1.4649    -0.0567     0.3070 C.3     
   4 C4            14.2148     2.2972     2.4412 C.ar    
   5 C5            13.8027     2.8015     1.2114 C.ar    
   6 C6             1.3594    -2.5813    -6.2746 C.ar    
   7 C7             0.3197    -3.4889    -6.3311 C.ar    
   8 C8             1.5949    -1.8671    -5.1153 C.ar    
   9 C9             7.1056    -0.4155    -0.9888 C.ar    
  10 C10            8.0158    -0.1199    -3.1954 C.ar    
  11 C11            8.2600     0.1084    -0.4422 C.ar    
  12 C12            9.1704     0.4040    -2.6492 C.ar    
  13 C13           13.5611     1.2542     3.0279 C.ar    
  14 C14           12.7317     2.2655     0.5578 C.ar    
  15 C15           -0.2588    -2.9705    -4.0556 C.ar    
  16 C16            2.0376    -0.2797    -1.1905 C.2     
  17 C17            4.6147    -0.8018    -2.3523 C.2     
  18 N18           -1.5449    -4.6035    -5.2790 N.pl3   
  19 N19            0.0550    -0.8647    -1.9345 N.2     
  20 N20            5.8082    -1.0626    -2.9214 N.am    
  21 N21            3.4801    -1.2330    -2.9381 N.am    
  22 N22           10.4663     1.0516    -0.7169 N.pl3   
  23 O23            4.5615    -0.1774    -1.3102 O.2     
  24 C24           -0.4931    -3.6864    -5.2212 C.ar    
  25 C25            6.9800    -0.5309    -2.3669 C.ar    
  26 C26            9.2959     0.5200    -1.2708 C.ar    
  27 C27            0.7864    -2.0598    -4.0026 C.ar    
  28 C28            0.6597    -0.2356    -0.9592 C.2     
  29 C29            2.2451    -0.9632    -2.3491 C.2     
  30 C30           -0.0154     0.4246     0.2152 C.3     
  31 N31            1.0265    -1.3353    -2.8272 N.pl3   
  32 N32           10.3224    -0.4156     1.1183 N.ar    
  33 C33           10.7491    -0.8624     2.2887 C.ar    
  34 N34           11.7790    -0.3477     2.9173 N.ar    
  35 C35           12.4571     0.6799     2.3843 C.ar    
  36 C36           12.0393     1.1947     1.1327 C.ar    
  37 C37           10.9206     0.5958     0.5028 C.ar    
  38 H38            1.0395     2.2860    -0.0365 H       
  39 H39           -0.5214     2.2044    -0.8880 H       
  40 H40           -0.4814     2.4206     0.8784 H       
  41 H41            0.2379     0.5353     2.3517 H       
  42 H42            0.7103    -1.0240     1.6349 H       
  43 H43            1.7588     0.4006     1.4368 H       
  44 H44           -1.9932     0.2047    -0.6099 H       
  45 H45           -1.4808    -1.1384     0.4397 H       
  46 H46           -1.9532     0.4208     1.1565 H       
  47 H47           15.0684     2.7359     2.9365 H       
  48 H48           14.3377     3.6285     0.7684 H       
  49 H49            1.9922    -2.4325    -7.1371 H       
  50 H50            0.1382    -4.0455    -7.2386 H       
  51 H51            2.4089    -1.1585    -5.0742 H       
  52 H52            6.3019    -0.7397    -0.3443 H       
  53 H53            7.9180    -0.2097    -4.2672 H       
  54 H54            8.3575     0.1985     0.6296 H       
  55 H55            9.9760     0.7233    -3.2937 H       
  56 H56           13.8925     0.8731     3.9825 H       
  57 H57           12.4206     2.6652    -0.3960 H       
  58 H58           -0.8891    -3.1218    -3.1918 H       
  59 H59            2.8017     0.1555    -0.5634 H       
  60 H60           -1.7085    -5.1031    -6.0942 H       
  61 H61           -2.1118    -4.7409    -4.5040 H       
  62 H62            5.8560    -1.6184    -3.7150 H       
  63 H63            3.5225    -1.7312    -3.7693 H       
  64 H64           10.9578     1.7405    -1.1909 H       
  65 H65           10.2257    -1.6885     2.7469 H       
@<TRIPOS>BOND
   1    1   30 1
   2    1   38 1
   3    1   39 1
   4    1   40 1
   5    2   30 1
   6    2   41 1
   7    2   42 1
   8    2   43 1
   9    3   30 1
  10    3   44 1
  11    3   45 1
  12    3   46 1
  13    4    5 ar
  14    4   13 ar
  15    4   47 1
  16    5   14 ar
  17    5   48 1
  18    6    7 ar
  19    6    8 ar
  20    6   49 1
  21    7   24 ar
  22    7   50 1
  23    8   27 ar
  24    8   51 1
  25    9   11 ar
  26    9   25 ar
  27    9   52 1
  28   10   12 ar
  29   10   25 ar
  30   10   53 1
  31   11   26 ar
  32   11   54 1
  33   12   26 ar
  34   12   55 1
  35   13   35 ar
  36   13   56 1
  37   14   36 ar
  38   14   57 1
  39   15   24 ar
  40   15   27 ar
  41   15   58 1
  42   16   28 1
  43   16   29 2
  44   16   59 1
  45   17   20 am
  46   17   21 am
  47   17   23 2
  48   18   24 1
  49   18   60 1
  50   18   61 1
  51   19   28 2
  52   19   31 1
  53   20   25 1
  54   20   62 1
  55   21   29 1
  56   21   63 1
  57   22   26 1
  58   22   37 1
  59   22   64 1
  60   27   31 1
  61   28   30 1
  62   29   31 1
  63   32   33 ar
  64   32   37 ar
  65   33   34 ar
  66   33   65 1
  67   34   35 ar
  68   35   36 ar
  69   36   37 ar

#	End of record

