#	Name: ASD05380019
#	Creating user name:	WinNT
#	Creation time:	15. 06. 2019 20:59

#	Modifying user name:	WinNT
#	Modification time:	15. 06. 2019 20:59

#	Program:	/corina/corina34_cracker 3.40 0067  02.08.2006

@<TRIPOS>MOLECULE
ASD05380019
  63   68    0    0    0
SMALL
NO_CHARGES


@<TRIPOS>ATOM
   1 C1             0.0087     1.7649    -0.1414 C.ar    
   2 C2             0.2427     0.3720    -0.1779 C.ar    
   3 C3             1.0686     2.6550    -0.3004 C.ar    
   4 C4             2.3426     2.1663    -0.4929 C.ar    
   5 C5             2.5760     0.7981    -0.5299 C.ar    
   6 C6             1.5424    -0.0984    -0.3738 C.ar    
   7 C7             0.8236     4.1415    -0.2626 C.3     
   8 N8            -0.8045    -0.4757    -0.0203 N.2     
   9 C9            -2.0131    -0.0380     0.1628 C.2     
  10 N10           -2.3300     1.2843     0.2118 N.am    
  11 C11           -1.3699     2.2281     0.0731 C.2     
  12 C12           -3.6607     1.6721     0.4128 C.ar    
  13 C13           -4.6018     1.4748    -0.5891 C.ar    
  14 C14           -4.0430     2.2494     1.6165 C.ar    
  15 C15           -5.3561     2.6303     1.8118 C.ar    
  16 C16           -6.2899     2.4369     0.8104 C.ar    
  17 C17           -5.9134     1.8579    -0.3876 C.ar    
  18 C18           -3.1213    -1.0456     0.3290 C.3     
  19 N19           -2.8322    -2.2283    -0.4859 N.pl3   
  20 C20           -1.6790    -2.9592    -0.2601 C.ar    
  21 N21           -0.8231    -2.6022     0.6920 N.ar    
  22 O22           -1.6390     3.4146     0.1148 O.2     
  23 C23           -1.3886    -4.0994    -1.0281 C.ar    
  24 C24           -0.2025    -4.8007    -0.7523 C.ar    
  25 N25            0.5954    -4.3643     0.2167 N.ar    
  26 C26            0.2797    -3.2936     0.9146 C.ar    
  27 N27           -2.0074    -4.7461    -2.0450 N.2     
  28 C28           -1.2942    -5.7744    -2.4021 C.2     
  29 N29           -0.1705    -5.8512    -1.6342 N.pl3   
  30 C30           -3.2239    -1.4528     1.8002 C.3     
  31 O31           -4.3473    -2.3180     1.9778 O.3     
  32 C32           -4.5343    -2.7589     3.3241 C.3     
  33 C33           -5.7398    -3.6604     3.3946 C.ar    
  34 C34           -5.5954    -5.0232     3.2129 C.ar    
  35 C35           -6.7013    -5.8501     3.2775 C.ar    
  36 C36           -7.9515    -5.3143     3.5243 C.ar    
  37 C37           -8.0957    -3.9517     3.7069 C.ar    
  38 C38           -6.9892    -3.1253     3.6466 C.ar    
  39 H39            3.1665     2.8535    -0.6166 H       
  40 H40            3.5807     0.4325    -0.6824 H       
  41 H41            1.7363    -1.1604    -0.4036 H       
  42 H42            0.7999     4.4796     0.7734 H       
  43 H43            1.6244     4.6554    -0.7943 H       
  44 H44           -0.1308     4.3647    -0.7395 H       
  45 H45           -4.3084     1.0227    -1.5250 H       
  46 H46           -3.3143     2.4001     2.3992 H       
  47 H47           -5.6540     3.0794     2.7477 H       
  48 H48           -7.3162     2.7350     0.9658 H       
  49 H49           -6.6449     1.7086    -1.1680 H       
  50 H50           -4.0647    -0.6045     0.0074 H       
  51 H51           -3.4491    -2.4989    -1.1838 H       
  52 H52            0.9479    -2.9681     1.6981 H       
  53 H53           -1.5542    -6.4651    -3.1906 H       
  54 H54            0.5246    -6.5246    -1.6997 H       
  55 H55           -2.3137    -1.9735     2.0975 H       
  56 H56           -3.3504    -0.5621     2.4157 H       
  57 H57           -3.6512    -3.3068     3.6530 H       
  58 H58           -4.6880    -1.8954     3.9712 H       
  59 H59           -4.6187    -5.4417     3.0201 H       
  60 H60           -6.5886    -6.9147     3.1349 H       
  61 H61           -8.8156    -5.9603     3.5741 H       
  62 H62           -9.0725    -3.5331     3.8994 H       
  63 H63           -7.1019    -2.0607     3.7893 H       
@<TRIPOS>BOND
   1    1    2 ar
   2    1    3 ar
   3    1   11 1
   4    2    8 1
   5    2    6 ar
   6    3    4 ar
   7    3    7 1
   8    4    5 ar
   9    4   39 1
  10    5    6 ar
  11    5   40 1
  12    6   41 1
  13    7   42 1
  14    7   43 1
  15    7   44 1
  16    8    9 2
  17    9   10 1
  18    9   18 1
  19   10   11 am
  20   10   12 1
  21   11   22 2
  22   12   13 ar
  23   12   14 ar
  24   13   17 ar
  25   13   45 1
  26   14   15 ar
  27   14   46 1
  28   15   16 ar
  29   15   47 1
  30   16   17 ar
  31   16   48 1
  32   17   49 1
  33   18   19 1
  34   18   30 1
  35   18   50 1
  36   19   20 1
  37   19   51 1
  38   20   21 ar
  39   20   23 ar
  40   21   26 ar
  41   23   24 ar
  42   23   27 1
  43   24   25 ar
  44   24   29 1
  45   25   26 ar
  46   26   52 1
  47   27   28 2
  48   28   29 1
  49   28   53 1
  50   29   54 1
  51   30   31 1
  52   30   55 1
  53   30   56 1
  54   31   32 1
  55   32   33 1
  56   32   57 1
  57   32   58 1
  58   33   34 ar
  59   33   38 ar
  60   34   35 ar
  61   34   59 1
  62   35   36 ar
  63   35   60 1
  64   36   37 ar
  65   36   61 1
  66   37   38 ar
  67   37   62 1
  68   38   63 1

#	End of record

