#	Name: ASD01911887
#	Creating user name:	WinNT
#	Creation time:	15. 06. 2019 19:58

#	Modifying user name:	WinNT
#	Modification time:	15. 06. 2019 19:58

#	Program:	/corina/corina34_cracker 3.40 0067  02.08.2006

@<TRIPOS>MOLECULE
ASD01911887
  36   38    0    0    0
SMALL
NO_CHARGES


@<TRIPOS>ATOM
   1 C1            -1.0607    -0.5023    -2.0828 C.ar    
   2 C2            -1.0559     0.0561    -0.8086 C.ar    
   3 C3            -1.0041     1.4364    -0.6775 C.ar    
   4 N4            -0.9599     2.2130    -1.7418 N.ar    
   5 C5            -0.9629     1.7182    -2.9638 C.ar    
   6 C6            -1.0131     0.3504    -3.1760 C.ar    
   7 O7            -1.1018    -0.7392     0.2924 O.3     
   8 C8            -1.1527    -2.0842     0.1060 C.ar    
   9 C9            -0.0024    -2.7820    -0.2365 C.ar    
  10 C10           -0.0525    -4.1497    -0.4258 C.ar    
  11 C11           -1.2471    -4.8274    -0.2750 C.ar    
  12 C12           -2.4013    -4.1346     0.0676 C.ar    
  13 C13           -2.3519    -2.7612     0.2634 C.ar    
  14 N14           -3.6103    -4.8205     0.2203 N.am    
  15 C15           -4.7727    -4.2161    -0.0961 C.2     
  16 C16           -6.0565    -4.9014     0.1627 C.ar    
  17 O17           -4.7652    -3.1072    -0.5943 O.2     
  18 C18           -7.2619    -4.2782    -0.1639 C.ar    
  19 C19           -8.4572    -4.9231     0.0796 C.ar    
  20 C20           -8.4633    -6.1847     0.6465 C.ar    
  21 C21           -7.2711    -6.8093     0.9732 C.ar    
  22 C22           -6.0683    -6.1771     0.7293 C.ar    
  23 Cl23          -7.2891    -8.3929     1.6844 Cl      
  24 F24           -1.0153    -0.1472    -4.4321 F       
  25 H25           -1.0960    -1.5733    -2.2174 H       
  26 H26           -1.0004     1.8795     0.3074 H       
  27 H27           -0.9260     2.3879    -3.8102 H       
  28 H28            0.9328    -2.2551    -0.3554 H       
  29 H29            0.8437    -4.6901    -0.6925 H       
  30 H30           -1.2835    -5.8965    -0.4239 H       
  31 H31           -3.2478    -2.2201     0.5298 H       
  32 H32           -3.6124    -5.7313     0.5540 H       
  33 H33           -7.2591    -3.2928    -0.6059 H       
  34 H34           -9.3903    -4.4414    -0.1728 H       
  35 H35           -9.4017    -6.6847     0.8356 H       
  36 H36           -5.1390    -6.6648     0.9843 H       
@<TRIPOS>BOND
   1    1    2 ar
   2    1    6 ar
   3    1   25 1
   4    2    3 ar
   5    2    7 1
   6    3    4 ar
   7    3   26 1
   8    4    5 ar
   9    5    6 ar
  10    5   27 1
  11    6   24 1
  12    7    8 1
  13    8    9 ar
  14    8   13 ar
  15    9   10 ar
  16    9   28 1
  17   10   11 ar
  18   10   29 1
  19   11   12 ar
  20   11   30 1
  21   12   13 ar
  22   12   14 1
  23   13   31 1
  24   14   15 am
  25   14   32 1
  26   15   16 1
  27   15   17 2
  28   16   18 ar
  29   16   22 ar
  30   18   19 ar
  31   18   33 1
  32   19   20 ar
  33   19   34 1
  34   20   21 ar
  35   20   35 1
  36   21   22 ar
  37   21   23 1
  38   22   36 1

#	End of record

