#	Name: ASD03090096
#	Creating user name:	WinNT
#	Creation time:	15. 06. 2019 20:28

#	Modifying user name:	WinNT
#	Modification time:	15. 06. 2019 20:28

#	Program:	/corina/corina34_cracker 3.40 0067  02.08.2006

@<TRIPOS>MOLECULE
ASD03090096
  38   39    0    0    0
SMALL
NO_CHARGES


@<TRIPOS>ATOM
   1 C1            -0.0179     1.4706     0.0101 C.2     
   2 C2             0.0021    -0.0041     0.0020 C.ar    
   3 C3             1.2216    -0.6880    -0.0133 C.ar    
   4 C4             1.2372    -2.0588    -0.0203 C.ar    
   5 C5             0.0396    -2.7703    -0.0122 C.ar    
   6 C6            -1.1768    -2.0917     0.0030 C.ar    
   7 C7            -1.1984    -0.7210     0.0155 C.ar    
   8 O8             1.0268     2.0929     0.0035 O.2     
   9 N9            -1.1941     2.1285     0.0193 N.am    
  10 C10           -1.2140     3.5934     0.0273 C.3     
  11 C11           -2.6415     4.0763     0.0367 C.ar    
  12 C12           -3.2893     4.2909     1.2395 C.ar    
  13 C13           -4.5974     4.7335     1.2517 C.ar    
  14 C14           -5.2625     4.9631     0.0540 C.ar    
  15 C15           -4.6088     4.7465    -1.1524 C.ar    
  16 C16           -3.2988     4.3093    -1.1574 C.ar    
  17 N17           -6.5857     5.4103     0.0627 N.pl3   
  18 C18           -7.2856     5.6520    -1.2014 C.3     
  19 S19            0.0635    -4.5322    -0.0219 S.3     
  20 C20           -1.6982    -4.9642    -0.0067 C.3     
  21 F21           -2.2968    -4.4409     1.1444 F       
  22 F22           -2.3195    -4.4287    -1.1400 F       
  23 H23            2.1504    -0.1369    -0.0199 H       
  24 H24            2.1788    -2.5876    -0.0325 H       
  25 H25           -2.1037    -2.6459     0.0089 H       
  26 H26           -2.1417    -0.1954     0.0315 H       
  27 H27           -2.0275     1.6321     0.0205 H       
  28 H28           -0.7009     3.9588     0.9169 H       
  29 H29           -0.7094     3.9685    -0.8630 H       
  30 H30           -2.7717     4.1118     2.1703 H       
  31 H31           -5.1029     4.9005     2.1914 H       
  32 H32           -5.1230     4.9241    -2.0854 H       
  33 H33           -2.7884     4.1453    -2.0950 H       
  34 H34           -7.0412     5.5609     0.9057 H       
  35 H35           -6.7538     6.4140    -1.7712 H       
  36 H36           -7.3237     4.7277    -1.7780 H       
  37 H37           -8.2998     5.9939    -0.9956 H       
  38 H38           -1.8064    -6.0488    -0.0114 H       
@<TRIPOS>BOND
   1    1    2 1
   2    1    8 2
   3    1    9 am
   4    2    3 ar
   5    2    7 ar
   6    3    4 ar
   7    3   23 1
   8    4    5 ar
   9    4   24 1
  10    5    6 ar
  11    5   19 1
  12    6    7 ar
  13    6   25 1
  14    7   26 1
  15    9   10 1
  16    9   27 1
  17   10   11 1
  18   10   28 1
  19   10   29 1
  20   11   12 ar
  21   11   16 ar
  22   12   13 ar
  23   12   30 1
  24   13   14 ar
  25   13   31 1
  26   14   15 ar
  27   14   17 1
  28   15   16 ar
  29   15   32 1
  30   16   33 1
  31   17   18 1
  32   17   34 1
  33   18   35 1
  34   18   36 1
  35   18   37 1
  36   19   20 1
  37   20   21 1
  38   20   22 1
  39   20   38 1

#	End of record

