#	Name: ASD04590689
#	Creating user name:	WinNT
#	Creation time:	15. 06. 2019 20:51

#	Modifying user name:	WinNT
#	Modification time:	15. 06. 2019 20:51

#	Program:	/corina/corina34_cracker 3.40 0067  02.08.2006

@<TRIPOS>MOLECULE
ASD04590689
  56   61    0    0    0
SMALL
NO_CHARGES


@<TRIPOS>ATOM
   1 N1            -0.0041     1.2671     0.4421 N.ar    
   2 C2             0.0023    -0.0445     0.2413 C.ar    
   3 N3             1.1198    -0.7529     0.2312 N.ar    
   4 C4             2.2963    -0.1642     0.4249 C.ar    
   5 C5             2.3232     1.2285     0.6407 C.ar    
   6 C6             1.1223     1.9310     0.6430 C.ar    
   7 N7             3.5852    -0.6341     0.4664 N.pl3   
   8 C8             4.4706     0.4041     0.7034 C.ar    
   9 C9             3.7339     1.5945     0.8209 C.ar    
  10 N10           -1.2031    -0.6950     0.0356 N.pl3   
  11 C11           -2.4026     0.0083     0.1453 C.ar    
  12 C12            3.9700    -2.0361     0.2863 C.3     
  13 C13            3.3051    -2.9081     1.3658 C.3     
  14 C14            5.8551     0.4673     0.8349 C.ar    
  15 N15            6.4514     1.6214     1.0642 N.ar    
  16 C16            5.7806     2.7549     1.1788 C.ar    
  17 C17            4.4181     2.7863     1.0641 C.ar    
  18 C18            2.4137    -3.9250     0.6234 C.3     
  19 C19            3.0390    -4.0171    -0.7907 C.3     
  20 C20            3.4595    -2.5536    -1.0744 C.3     
  21 N21           -2.3877     1.2676     0.5511 N.ar    
  22 C22           -3.4977     1.9714     0.6692 C.ar    
  23 C23           -4.7292     1.4088     0.3690 C.ar    
  24 C24           -4.7844     0.0840    -0.0617 C.ar    
  25 C25           -3.6001    -0.6204    -0.1784 C.ar    
  26 N26           -5.9024     2.1618     0.4972 N.3     
  27 F27            6.5921    -0.6599     0.7276 F       
  28 C28           -7.0197     1.3230     0.9685 C.3     
  29 C29           -7.5608     1.9671     2.2622 C.3     
  30 C30           -7.0921     3.4411     2.1413 C.3     
  31 C31           -5.7153     3.2760     1.4508 C.3     
  32 O32           -6.9495     4.0403     3.4307 O.3     
  33 H33            1.1100     2.9987     0.8051 H       
  34 H34           -1.2131    -1.6395    -0.1848 H       
  35 H35            5.0541    -2.1355     0.3415 H       
  36 H36            4.0664    -3.4313     1.9443 H       
  37 H37            2.6961    -2.2881     2.0237 H       
  38 H38            6.3182     3.6725     1.3667 H       
  39 H39            3.8805     3.7181     1.1595 H       
  40 H40            2.4472    -4.8951     1.1193 H       
  41 H41            1.3879    -3.5612     0.5640 H       
  42 H42            3.9081    -4.6749    -0.7866 H       
  43 H43            2.3009    -4.3548    -1.5181 H       
  44 H44            2.6026    -1.9683    -1.4080 H       
  45 H45            4.2563    -2.5229    -1.8175 H       
  46 H46           -3.4466     2.9969     1.0038 H       
  47 H47           -5.7295    -0.3800    -0.3021 H       
  48 H48           -3.6058    -1.6484    -0.5095 H       
  49 H49           -7.8048     1.2924     0.2130 H       
  50 H50           -6.6636     0.3142     1.1774 H       
  51 H51           -8.6488     1.9102     2.2952 H       
  52 H52           -7.1223     1.4941     3.1409 H       
  53 H53           -7.7750     4.0180     1.5177 H       
  54 H54           -4.9505     3.0227     2.1850 H       
  55 H55           -5.4453     4.1887     0.9197 H       
  56 H56           -7.7704     4.0766     3.9405 H       
@<TRIPOS>BOND
   1    1    2 ar
   2    1    6 ar
   3    2    3 ar
   4    2   10 1
   5    3    4 ar
   6    4    5 ar
   7    4    7 1
   8    5    6 ar
   9    5    9 1
  10    6   33 1
  11    7    8 1
  12    7   12 1
  13    8    9 ar
  14    8   14 ar
  15    9   17 ar
  16   10   11 1
  17   10   34 1
  18   11   21 ar
  19   11   25 ar
  20   12   13 1
  21   12   20 1
  22   12   35 1
  23   13   18 1
  24   13   36 1
  25   13   37 1
  26   14   15 ar
  27   14   27 1
  28   15   16 ar
  29   16   17 ar
  30   16   38 1
  31   17   39 1
  32   18   19 1
  33   18   40 1
  34   18   41 1
  35   19   20 1
  36   19   42 1
  37   19   43 1
  38   20   44 1
  39   20   45 1
  40   21   22 ar
  41   22   23 ar
  42   22   46 1
  43   23   24 ar
  44   23   26 1
  45   24   25 ar
  46   24   47 1
  47   25   48 1
  48   26   28 1
  49   26   31 1
  50   28   29 1
  51   28   49 1
  52   28   50 1
  53   29   30 1
  54   29   51 1
  55   29   52 1
  56   30   31 1
  57   30   32 1
  58   30   53 1
  59   31   54 1
  60   31   55 1
  61   32   56 1

#	End of record

