#	Name: ASD01150339
#	Creating user name:	WinNT
#	Creation time:	15. 06. 2019 19:04

#	Modifying user name:	WinNT
#	Modification time:	15. 06. 2019 19:04

#	Program:	/corina/corina34_cracker 3.40 0067  02.08.2006

@<TRIPOS>MOLECULE
ASD01150339
  68   70    0    0    0
SMALL
NO_CHARGES


@<TRIPOS>ATOM
   1 N1            -0.0011     1.3760     0.1326 N.pl3   
   2 C2             0.0136    -0.0206     0.1114 C.2     
   3 C3            -1.3180    -0.4175     0.1019 C.2     
   4 N4            -2.0723     0.6851     0.1167 N.2     
   5 C5            -1.3066     1.7557     0.1401 C.2     
   6 C6             1.1479    -0.8569     0.1013 C.2     
   7 C7             1.1149     2.2226     0.1491 C.ar    
   8 C8             1.3657     3.0642    -0.9265 C.ar    
   9 C9             2.4668     3.8977    -0.9073 C.ar    
  10 C10            3.3193     3.8944     0.1815 C.ar    
  11 C11            3.0725     3.0572     1.2540 C.ar    
  12 C12            1.9694     2.2261     1.2436 C.ar    
  13 N13           -1.7569     3.0556     0.1609 N.3     
  14 C14           -3.2251     3.1043     0.1531 C.3     
  15 C15           -1.2122     3.7830     1.3151 C.3     
  16 O16            1.0122    -2.0669     0.0826 O.2     
  17 O17            2.3854    -0.3163     0.1123 O.3     
  18 C18            3.4897    -1.2232     0.1010 C.3     
  19 C19            3.4288    -2.0852    -1.1616 C.3     
  20 C20            4.7994    -0.4324     0.1160 C.3     
  21 C21            3.4232    -2.1232     1.3366 C.3     
  22 N22           -1.7821    -1.7269     0.0804 N.am    
  23 C23           -3.1073    -1.9721     0.0732 C.2     
  24 O24           -3.8964    -1.0533     0.1841 O.2     
  25 C25           -3.5993    -3.3512    -0.0687 C.2     
  26 C26           -2.8392    -4.4851    -0.2990 C.2     
  27 C27           -3.7543    -5.5387    -0.3548 C.2     
  28 N28           -4.9507    -5.0417    -0.1697 N.2     
  29 N29           -4.8974    -3.7705     0.0062 N.pl3   
  30 C30           -3.4229    -6.9903    -0.5875 C.3     
  31 C31           -6.0532    -2.9014     0.2408 C.3     
  32 C32           -2.8140    -7.5846     0.6841 C.3     
  33 C33           -4.6993    -7.7536    -0.9466 C.3     
  34 C34           -2.4189    -7.1064    -1.7362 C.3     
  35 H35            0.7006     3.0667    -1.7774 H       
  36 H36            2.6624     4.5525    -1.7436 H       
  37 H37            4.1799     4.5468     0.1940 H       
  38 H38            3.7404     3.0566     2.1027 H       
  39 H39            1.7771     1.5724     2.0815 H       
  40 H40           -3.6105     2.5868     1.0316 H       
  41 H41           -3.5543     4.1432     0.1699 H       
  42 H42           -3.5999     2.6189    -0.7481 H       
  43 H43           -0.1237     3.7911     1.2587 H       
  44 H44           -1.5841     4.8076     1.3072 H       
  45 H45           -1.5247     3.2901     2.2357 H       
  46 H46            3.4762    -1.4441    -2.0419 H       
  47 H47            4.2711    -2.7770    -1.1702 H       
  48 H48            2.4958    -2.6486    -1.1723 H       
  49 H49            4.8427     0.1817     1.0155 H       
  50 H50            5.6417    -1.1242     0.1074 H       
  51 H51            4.8468     0.2087    -0.7643 H       
  52 H52            2.4901    -2.6866     1.3259 H       
  53 H53            4.2655    -2.8150     1.3280 H       
  54 H54            3.4665    -1.5091     2.2361 H       
  55 H55           -1.1522    -2.4645     0.0705 H       
  56 H56           -1.7667    -4.5428    -0.4115 H       
  57 H57           -6.2849    -2.8846     1.3058 H       
  58 H58           -5.8224    -1.8910    -0.0967 H       
  59 H59           -6.9121    -3.2819    -0.3120 H       
  60 H60           -3.5292    -7.5018     1.5024 H       
  61 H61           -2.5743    -8.6345     0.5158 H       
  62 H62           -1.9046    -7.0407     0.9400 H       
  63 H63           -5.1331    -7.3303    -1.8526 H       
  64 H64           -4.4596    -8.8035    -1.1149 H       
  65 H65           -5.4146    -7.6709    -0.1283 H       
  66 H66           -1.5096    -6.5626    -1.4803 H       
  67 H67           -2.1792    -8.1563    -1.9045 H       
  68 H68           -2.8527    -6.6831    -2.6421 H       
@<TRIPOS>BOND
   1    1    2 1
   2    1    7 1
   3    1    5 1
   4    2    3 2
   5    2    6 1
   6    3    4 1
   7    3   22 1
   8    4    5 2
   9    5   13 1
  10    6   16 2
  11    6   17 1
  12    7    8 ar
  13    7   12 ar
  14    8    9 ar
  15    8   35 1
  16    9   10 ar
  17    9   36 1
  18   10   11 ar
  19   10   37 1
  20   11   12 ar
  21   11   38 1
  22   12   39 1
  23   13   14 1
  24   13   15 1
  25   14   40 1
  26   14   41 1
  27   14   42 1
  28   15   43 1
  29   15   44 1
  30   15   45 1
  31   17   18 1
  32   18   19 1
  33   18   20 1
  34   18   21 1
  35   19   46 1
  36   19   47 1
  37   19   48 1
  38   20   49 1
  39   20   50 1
  40   20   51 1
  41   21   52 1
  42   21   53 1
  43   21   54 1
  44   22   23 am
  45   22   55 1
  46   23   24 2
  47   23   25 1
  48   25   26 2
  49   25   29 1
  50   26   27 1
  51   26   56 1
  52   27   28 2
  53   27   30 1
  54   28   29 1
  55   29   31 1
  56   30   32 1
  57   30   33 1
  58   30   34 1
  59   31   57 1
  60   31   58 1
  61   31   59 1
  62   32   60 1
  63   32   61 1
  64   32   62 1
  65   33   63 1
  66   33   64 1
  67   33   65 1
  68   34   66 1
  69   34   67 1
  70   34   68 1

#	End of record

