#	Name: ASD01411013
#	Creating user name:	WinNT
#	Creation time:	15. 06. 2019 19:19

#	Modifying user name:	WinNT
#	Modification time:	15. 06. 2019 19:19

#	Program:	/corina/corina34_cracker 3.40 0067  02.08.2006

@<TRIPOS>MOLECULE
ASD01411013
  73   79    0    0    0
SMALL
NO_CHARGES


@<TRIPOS>ATOM
   1 C1            -0.0289     1.4258    -0.0528 C.ar    
   2 C2            -0.0260     0.0328     0.1525 C.ar    
   3 C3            -1.2224    -0.6453     0.3552 C.ar    
   4 C4            -2.4055     0.0355     0.3559 C.ar    
   5 C5            -2.4277     1.4217     0.1533 C.ar    
   6 C6            -1.2401     2.1189    -0.0462 C.ar    
   7 N7             1.2607     1.8103    -0.2197 N.2     
   8 C8             2.0465     0.7617    -0.1322 C.2     
   9 N9             1.2946    -0.3622     0.0979 N.pl3   
  10 C10            1.8000    -1.7280     0.2569 C.3     
  11 C11            1.3987    -2.2633     1.6328 C.3     
  12 C12            1.9266    -3.6897     1.7989 C.3     
  13 C13            1.3306    -4.5841     0.7100 C.3     
  14 C14            1.7319    -4.0488    -0.6660 C.3     
  15 C15            1.2040    -2.6224    -0.8320 C.3     
  16 C16           -3.7148     2.1456     0.1565 C.2     
  17 O17           -3.7361     3.3485    -0.0191 O.2     
  18 N18           -4.8659     1.4729     0.3541 N.am    
  19 C19           -6.1427     2.1912     0.3573 C.3     
  20 C20           -7.2700     1.2290    -0.0229 C.3     
  21 C21           -6.4015     2.7497     1.7328 C.2     
  22 C22           -7.0769     0.7654    -1.4438 C.2     
  23 C23           -7.6409     1.2960    -2.5403 C.2     
  24 N24           -7.2323     0.6123    -3.6525 N.pl3   
  25 C25           -6.3721    -0.4023    -3.2886 C.ar    
  26 C26           -6.2332    -0.3457    -1.8905 C.ar    
  27 C27           -5.6830    -1.3738    -4.0072 C.ar    
  28 C28           -4.8769    -2.2748    -3.3484 C.ar    
  29 C29           -4.7421    -2.2253    -1.9631 C.ar    
  30 C30           -5.4120    -1.2644    -1.2327 C.ar    
  31 O31           -3.9418    -3.1229    -1.3281 O.3     
  32 C32            3.5113     0.7884    -0.2622 C.2     
  33 C33           -5.5121     2.6647     2.7267 C.2     
  34 S34           -6.2112     3.4375     4.1475 S.3     
  35 C35           -7.6299     3.7980     3.2638 C.2     
  36 N36           -7.5211     3.3667     2.0526 N.2     
  37 C37            4.2540     0.0653    -1.1523 C.2     
  38 C38            5.5993     0.3914    -0.9341 C.2     
  39 C39            5.6471     1.2947     0.0716 C.2     
  40 N40            4.3770     1.5493     0.4860 N.pl3   
  41 C41            3.9962     2.4733     1.5573 C.3     
  42 H42           -1.2158    -1.7138     0.5123 H       
  43 H43           -3.3311    -0.4983     0.5134 H       
  44 H44           -1.2563     3.1874    -0.2024 H       
  45 H45            2.8866    -1.7256     0.1707 H       
  46 H46            1.8233    -1.6262     2.4086 H       
  47 H47            0.3121    -2.2657     1.7190 H       
  48 H48            3.0132    -3.6874     1.7127 H       
  49 H49            1.6407    -4.0711     2.7792 H       
  50 H50            1.7067    -5.6003     0.8283 H       
  51 H51            0.2440    -4.5865     0.7961 H       
  52 H52            2.8185    -4.0464    -0.7521 H       
  53 H53            1.3073    -4.6860    -1.4417 H       
  54 H54            0.1175    -2.6247    -0.7459 H       
  55 H55            1.4900    -2.2410    -1.8123 H       
  56 H56           -4.8489     0.5133     0.4942 H       
  57 H57           -6.1025     3.0070    -0.3645 H       
  58 H58           -7.2539     0.3682     0.6455 H       
  59 H59           -8.2289     1.7398     0.0655 H       
  60 H60           -8.3176     2.1378    -2.5439 H       
  61 H61           -7.5070     0.8111    -4.5613 H       
  62 H62           -5.7805    -1.4214    -5.0817 H       
  63 H63           -4.3444    -3.0272    -3.9111 H       
  64 H64           -5.3063    -1.2268    -0.1586 H       
  65 H65           -3.0247    -2.8322    -1.2308 H       
  66 H66           -4.5371     2.2038     2.6691 H       
  67 H67           -8.4905     4.3159     3.6607 H       
  68 H68            3.8747    -0.6292    -1.8872 H       
  69 H69            6.4464    -0.0072    -1.4725 H       
  70 H70            6.5434     1.7423     0.4748 H       
  71 H71            3.9126     3.4825     1.1540 H       
  72 H72            3.0370     2.1686     1.9759 H       
  73 H73            4.7557     2.4561     2.3389 H       
@<TRIPOS>BOND
   1    1    2 ar
   2    1    7 1
   3    1    6 ar
   4    2    3 ar
   5    2    9 1
   6    3    4 ar
   7    3   42 1
   8    4    5 ar
   9    4   43 1
  10    5    6 ar
  11    5   16 1
  12    6   44 1
  13    7    8 2
  14    8    9 1
  15    8   32 1
  16    9   10 1
  17   10   11 1
  18   10   15 1
  19   10   45 1
  20   11   12 1
  21   11   46 1
  22   11   47 1
  23   12   13 1
  24   12   48 1
  25   12   49 1
  26   13   14 1
  27   13   50 1
  28   13   51 1
  29   14   15 1
  30   14   52 1
  31   14   53 1
  32   15   54 1
  33   15   55 1
  34   16   17 2
  35   16   18 am
  36   18   19 1
  37   18   56 1
  38   19   20 1
  39   19   21 1
  40   19   57 1
  41   20   22 1
  42   20   58 1
  43   20   59 1
  44   21   33 2
  45   21   36 1
  46   22   23 2
  47   22   26 1
  48   23   24 1
  49   23   60 1
  50   24   25 1
  51   24   61 1
  52   25   26 ar
  53   25   27 ar
  54   26   30 ar
  55   27   28 ar
  56   27   62 1
  57   28   29 ar
  58   28   63 1
  59   29   30 ar
  60   29   31 1
  61   30   64 1
  62   31   65 1
  63   32   37 2
  64   32   40 1
  65   33   34 1
  66   33   66 1
  67   34   35 1
  68   35   36 2
  69   35   67 1
  70   37   38 1
  71   37   68 1
  72   38   39 2
  73   38   69 1
  74   39   40 1
  75   39   70 1
  76   40   41 1
  77   41   71 1
  78   41   72 1
  79   41   73 1

#	End of record

