#	Name: ASD01812430
#	Creating user name:	WinNT
#	Creation time:	15. 06. 2019 19:28

#	Modifying user name:	WinNT
#	Modification time:	15. 06. 2019 19:28

#	Program:	/corina/corina34_cracker 3.40 0067  02.08.2006

@<TRIPOS>MOLECULE
ASD01812430
  57   60    0    0    0
SMALL
NO_CHARGES


@<TRIPOS>ATOM
   1 C1             0.0930     1.0479     0.4443 C.ar    
   2 C2             0.2565    -0.3151     0.6016 C.ar    
   3 C3             1.5218    -0.8704     0.5528 C.ar    
   4 C4             2.6244    -0.0648     0.3492 C.ar    
   5 C5             2.4692     1.3088     0.1910 C.ar    
   6 C6             1.1960     1.8640     0.2364 C.ar    
   7 N7             3.6101     2.0931    -0.0067 N.3     
   8 C8             3.2903     3.3919    -0.6106 C.3     
   9 C9             2.1547     4.0391     0.1928 C.3     
  10 O10            0.9998     3.2016     0.0755 O.3     
  11 C11            4.6116     1.3737    -0.8050 C.3     
  12 C12            5.7773     2.2857    -1.0888 C.ar    
  13 C13            5.7734     3.0785    -2.2216 C.ar    
  14 C14            6.8462     2.3324    -0.2130 C.ar    
  15 C15            7.9157     3.1680    -0.4707 C.ar    
  16 C16            7.9168     3.9603    -1.6096 C.ar    
  17 C17            6.8407     3.9154    -2.4840 C.ar    
  18 N18            2.7656     6.3919    -0.2648 N.am    
  19 C19            1.8515     5.4064    -0.3635 C.2     
  20 C20            2.4709     7.7212    -0.8056 C.3     
  21 C21            3.7807     8.4370    -1.1414 C.3     
  22 C22            3.4729     9.8253    -1.7062 C.3     
  23 C23            2.6992    10.6387    -0.6667 C.3     
  24 C24            1.3894     9.9229    -0.3308 C.3     
  25 C25            1.6972     8.5346     0.2340 C.3     
  26 O26            4.5034     7.6773    -2.1124 O.3     
  27 O27            0.7850     5.6201    -0.8999 O.2     
  28 O28            8.9676     4.7834    -1.8651 O.3     
  29 C29            8.9008     5.5702    -3.0561 C.3     
  30 H30           -0.8966     1.4789     0.4789 H       
  31 H31           -0.6043    -0.9470     0.7631 H       
  32 H32            1.6478    -1.9361     0.6746 H       
  33 H33            3.6111    -0.5025     0.3129 H       
  34 H34            4.1702     4.0346    -0.5833 H       
  35 H35            2.9717     3.2469    -1.6428 H       
  36 H36            2.4445     4.1231     1.2402 H       
  37 H37            4.9592     0.5014    -0.2514 H       
  38 H38            4.1642     1.0525    -1.7456 H       
  39 H39            4.9354     3.0433    -2.9020 H       
  40 H40            6.8449     1.7155     0.6734 H       
  41 H41            8.7501     3.2046     0.2140 H       
  42 H42            6.8374     4.5342    -3.3691 H       
  43 H43            3.6186     6.2211     0.1642 H       
  44 H44            1.8697     7.6207    -1.7092 H       
  45 H45            4.3819     8.5375    -0.2378 H       
  46 H46            4.4061    10.3353    -1.9455 H       
  47 H47            2.8717     9.7248    -2.6098 H       
  48 H48            3.3004    10.7392     0.2370 H       
  49 H49            2.4799    11.6277    -1.0690 H       
  50 H50            0.8382    10.5024     0.4098 H       
  51 H51            0.7882     9.8224    -1.2344 H       
  52 H52            0.7640     8.0246     0.4732 H       
  53 H53            2.2984     8.6351     1.1376 H       
  54 H54            5.3465     8.0727    -2.3731 H       
  55 H55            9.8000     6.1805    -3.1393 H       
  56 H56            8.8264     4.9126    -3.9222 H       
  57 H57            8.0248     6.2176    -3.0151 H       
@<TRIPOS>BOND
   1    1    2 ar
   2    1    6 ar
   3    1   30 1
   4    2    3 ar
   5    2   31 1
   6    3    4 ar
   7    3   32 1
   8    4    5 ar
   9    4   33 1
  10    5    7 1
  11    5    6 ar
  12    6   10 1
  13    7   11 1
  14    7    8 1
  15    8    9 1
  16    8   34 1
  17    8   35 1
  18    9   10 1
  19    9   19 1
  20    9   36 1
  21   11   12 1
  22   11   37 1
  23   11   38 1
  24   12   14 ar
  25   12   13 ar
  26   13   17 ar
  27   13   39 1
  28   14   15 ar
  29   14   40 1
  30   15   16 ar
  31   15   41 1
  32   16   17 ar
  33   16   28 1
  34   17   42 1
  35   18   19 am
  36   18   20 1
  37   18   43 1
  38   19   27 2
  39   20   21 1
  40   20   25 1
  41   20   44 1
  42   21   22 1
  43   21   26 1
  44   21   45 1
  45   22   23 1
  46   22   46 1
  47   22   47 1
  48   23   24 1
  49   23   48 1
  50   23   49 1
  51   24   25 1
  52   24   50 1
  53   24   51 1
  54   25   52 1
  55   25   53 1
  56   26   54 1
  57   28   29 1
  58   29   55 1
  59   29   56 1
  60   29   57 1

#	End of record

