#	Name: ASD07300503
#	Creating user name:	WinNT
#	Creation time:	15. 06. 2019 21:09

#	Modifying user name:	WinNT
#	Modification time:	15. 06. 2019 21:09

#	Program:	/corina/corina34_cracker 3.40 0067  02.08.2006

@<TRIPOS>MOLECULE
ASD07300503
  26   28    0    0    0
SMALL
NO_CHARGES


@<TRIPOS>ATOM
   1 C1            -0.0169     1.3925     0.0097 C.ar    
   2 C2             0.0021    -0.0041     0.0020 C.ar    
   3 C3             1.2213    -0.6641    -0.0132 C.ar    
   4 C4             2.3812     0.0972    -0.0202 C.ar    
   5 C5             2.2871     1.4758    -0.0119 C.ar    
   6 N6             1.1136     2.0784     0.0026 N.ar    
   7 O7            -1.2841    -0.4275     0.0125 O.3     
   8 C8            -2.0968     0.6414     0.0263 C.2     
   9 N9            -1.3571     1.7676     0.0301 N.am    
  10 O10           -3.3119     0.5994     0.0381 O.2     
  11 C11           -1.8493     3.0818     0.0446 C.ar    
  12 C12           -3.2186     3.3098     0.0646 C.ar    
  13 C13           -3.7031     4.6026     0.0793 C.ar    
  14 C14           -2.8204     5.6749     0.0741 C.ar    
  15 C15           -1.4506     5.4464     0.0541 C.ar    
  16 C16           -0.9667     4.1534     0.0447 C.ar    
  17 N17           -3.3110     6.9848     0.0885 N.pl3   
  18 H18            1.2669    -1.7431    -0.0191 H       
  19 H19            3.3485    -0.3831    -0.0317 H       
  20 H20            3.1891     2.0698    -0.0173 H       
  21 H21           -3.9048     2.4759     0.0683 H       
  22 H22           -4.7683     4.7799     0.0944 H       
  23 H23           -0.7640     6.2801     0.0496 H       
  24 H24            0.0985     3.9756     0.0334 H       
  25 H25           -4.2677     7.1443     0.1021 H       
  26 H26           -2.6944     7.7337     0.0849 H       
@<TRIPOS>BOND
   1    1    2 ar
   2    1    6 ar
   3    1    9 1
   4    2    3 ar
   5    2    7 1
   6    3    4 ar
   7    3   18 1
   8    4    5 ar
   9    4   19 1
  10    5    6 ar
  11    5   20 1
  12    7    8 1
  13    8    9 am
  14    8   10 2
  15    9   11 1
  16   11   12 ar
  17   11   16 ar
  18   12   13 ar
  19   12   21 1
  20   13   14 ar
  21   13   22 1
  22   14   15 ar
  23   14   17 1
  24   15   16 ar
  25   15   23 1
  26   16   24 1
  27   17   25 1
  28   17   26 1

#	End of record

