#	Name: ASD01209024
#	Creating user name:	WinNT
#	Creation time:	15. 06. 2019 19:10

#	Modifying user name:	WinNT
#	Modification time:	15. 06. 2019 19:10

#	Program:	/corina/corina34_cracker 3.40 0067  02.08.2006

@<TRIPOS>MOLECULE
ASD01209024
  61   65    0    0    0
SMALL
NO_CHARGES


@<TRIPOS>ATOM
   1 S1            -0.9285    -0.3906     0.8412 S.o2    
   2 C2            -3.6540    -0.9261    -5.5579 C.3     
   3 C3            -5.0235    -0.4986    -5.0261 C.3     
   4 C4            -4.8558     0.7003    -4.0905 C.3     
   5 C5            -6.2130     1.2165    -3.6873 C.2     
   6 O6            -6.5790     1.1243    -2.5348 O.2     
   7 N7            -4.1156     0.2875    -2.8956 N.pl3   
   8 C8            -2.9164     0.8081    -2.4835 C.ar    
   9 C9            -2.5653     0.1305    -1.2996 C.ar    
  10 C10           -3.6383    -0.8249    -1.0411 C.2     
  11 N11           -4.5221    -0.6969    -1.9890 N.2     
  12 N12           -7.0200     1.7808    -4.6076 N.am    
  13 C13           -2.0713     1.7935    -2.9855 C.ar    
  14 C14           -0.9003     2.0954    -2.3184 C.ar    
  15 C15           -0.5582     1.4212    -1.1470 C.ar    
  16 C16           -1.3741     0.4531    -0.6401 C.ar    
  17 C17           -8.2217     2.3679    -4.2145 C.ar    
  18 C18           -2.2065     0.0877     2.0364 C.3     
  19 C19           -2.0402    -0.3937     3.4791 C.3     
  20 C20           -1.8126     1.0792     3.1331 C.3     
  21 O21           -1.0463    -1.7673     0.5094 O.2     
  22 O22            0.3260     0.1716     1.2009 O.2     
  23 C23           -3.7991    -2.2186    -6.3670 C.3     
  24 C24           -2.4391    -2.5955    -6.9602 C.3     
  25 O25           -1.9590    -1.5196    -7.7690 O.3     
  26 C26           -1.7590    -0.2976    -7.0557 C.3     
  27 C27           -3.0917     0.1716    -6.4663 C.3     
  28 C28           -8.4380     2.6863    -2.8769 C.ar    
  29 N29           -9.5769     3.2425    -2.5087 N.ar    
  30 C30          -10.5114     3.4972    -3.4087 C.ar    
  31 C31          -10.2999     3.1819    -4.7382 C.ar    
  32 N32           -9.1597     2.6297    -5.1151 N.ar    
  33 O33           -0.0746     3.0574    -2.8079 O.3     
  34 C34           -0.4819     3.7109    -4.0117 C.3     
  35 H35           -2.9744    -1.0933    -4.7223 H       
  36 H36           -5.6669    -0.2208    -5.8610 H       
  37 H37           -5.4752    -1.3261    -4.4790 H       
  38 H38           -4.3054     1.4882    -4.6047 H       
  39 H39           -3.6919    -1.5120    -0.2096 H       
  40 H40           -6.7647     1.7783    -5.5434 H       
  41 H41           -2.3299     2.3194    -3.8927 H       
  42 H42            0.3610     1.6679    -0.6365 H       
  43 H43           -3.2202     0.1510     1.6407 H       
  44 H44           -2.9444    -0.6467     4.0327 H       
  45 H45           -1.1628    -0.9978     3.7101 H       
  46 H46           -0.7855     1.4441     3.1364 H       
  47 H47           -2.5671     1.7951     3.4590 H       
  48 H48           -4.1466    -3.0197    -5.7146 H       
  49 H49           -4.5179    -2.0656    -7.1721 H       
  50 H50           -1.7314    -2.7878    -6.1537 H       
  51 H51           -2.5451    -3.4911    -7.5723 H       
  52 H52           -1.0424    -0.4599    -6.2505 H       
  53 H53           -1.3750     0.4621    -7.7366 H       
  54 H54           -3.7962     0.3729    -7.2734 H       
  55 H55           -2.9332     1.0799    -5.8850 H       
  56 H56           -7.6752     2.4781    -2.1413 H       
  57 H57          -11.4423     3.9525    -3.1046 H       
  58 H58          -11.0659     3.3908    -5.4704 H       
  59 H59           -0.5793     2.9747    -4.8097 H       
  60 H60           -1.4415     4.2023    -3.8516 H       
  61 H61            0.2646     4.4541    -4.2922 H       
@<TRIPOS>BOND
   1    1   21 2
   2    1   22 2
   3    1   16 1
   4    1   18 1
   5    2    3 1
   6    2   23 1
   7    2   27 1
   8    2   35 1
   9    3    4 1
  10    3   36 1
  11    3   37 1
  12    4    7 1
  13    4    5 1
  14    4   38 1
  15    5    6 2
  16    5   12 am
  17    7    8 1
  18    7   11 1
  19    8    9 ar
  20    8   13 ar
  21    9   10 1
  22    9   16 ar
  23   10   11 2
  24   10   39 1
  25   12   17 1
  26   12   40 1
  27   13   14 ar
  28   13   41 1
  29   14   15 ar
  30   14   33 1
  31   15   16 ar
  32   15   42 1
  33   17   28 ar
  34   17   32 ar
  35   18   19 1
  36   18   20 1
  37   18   43 1
  38   19   20 1
  39   19   44 1
  40   19   45 1
  41   20   46 1
  42   20   47 1
  43   23   24 1
  44   23   48 1
  45   23   49 1
  46   24   25 1
  47   24   50 1
  48   24   51 1
  49   25   26 1
  50   26   27 1
  51   26   52 1
  52   26   53 1
  53   27   54 1
  54   27   55 1
  55   28   29 ar
  56   28   56 1
  57   29   30 ar
  58   30   31 ar
  59   30   57 1
  60   31   32 ar
  61   31   58 1
  62   33   34 1
  63   34   59 1
  64   34   60 1
  65   34   61 1

#	End of record

