#	Name: ASD04570014
#	Creating user name:	WinNT
#	Creation time:	15. 06. 2019 20:49

#	Modifying user name:	WinNT
#	Modification time:	15. 06. 2019 20:49

#	Program:	/corina/corina34_cracker 3.40 0067  02.08.2006

@<TRIPOS>MOLECULE
ASD04570014
 292  293    0    0    0
SMALL
NO_CHARGES


@<TRIPOS>ATOM
   1 C1            -0.3959     4.3247    -1.8171 C.3     
   2 C2            -0.4050     2.8336    -2.1600 C.3     
   3 C3             0.1152     2.6348    -3.5850 C.3     
   4 C4             0.2240     1.1383    -3.8841 C.3     
   5 N5            -2.2974     4.1559    -0.2441 N.am    
   6 C6            -1.0218     4.5323    -0.4620 C.2     
   7 C7            -2.9058     4.3578     1.0732 C.3     
   8 C8            -4.0235     3.3657     1.2677 C.2     
   9 C9            -3.4641     5.7793     1.1647 C.3     
  10 C10           -2.3132     6.7849     1.0920 C.3     
  11 C11           -2.8715     8.2064     1.1835 C.3     
  12 O12           -0.3776     5.0382     0.4324 O.2     
  13 C13           -0.8525     3.2840    -4.5764 C.3     
  14 N14           -1.7695     9.1693     1.1139 N.pl3   
  15 C15           -2.0298    10.5178     1.1768 C.2     
  16 N16           -3.3243    10.9627     1.3050 N.pl3   
  17 N17           -1.0494    11.3744     1.1149 N.2     
  18 N18           -4.7313     3.3644     2.4147 N.am    
  19 O19           -4.2859     2.5686     0.3922 O.2     
  20 C20           -5.8178     2.4000     2.6037 C.3     
  21 C21           -5.2443     1.0819     3.1278 C.3     
  22 C22           -6.8082     2.9478     3.5987 C.2     
  23 O23           -4.6904     1.2874     4.4290 O.3     
  24 O24           -6.6246     4.0365     4.1005 O.2     
  25 N25           -7.8980     2.2278     3.9310 N.am    
  26 C26           -8.8609     2.7603     4.8982 C.3     
  27 C27           -9.8603     3.6666     4.1768 C.3     
  28 C28           -9.5980     1.6205     5.5528 C.2     
  29 C29           -9.1293     4.8892     3.6183 C.3     
  30 S30          -10.3143     5.9638     2.7629 S.3     
  31 C31           -9.2769     7.3333     2.1809 C.3     
  32 O32           -9.3441     0.4760     5.2420 O.2     
  33 N33          -10.5394     1.8729     6.4837 N.am    
  34 C34          -11.2560     0.7649     7.1200 C.3     
  35 C35          -10.4378     0.2399     8.3015 C.3     
  36 C36          -12.5953     1.2496     7.6124 C.2     
  37 O37          -10.3434     1.2542     9.3036 O.3     
  38 C38           -9.0342    -0.1362     7.8227 C.3     
  39 O39          -12.9193     2.4067     7.4479 O.2     
  40 N40          -13.4330     0.3973     8.2355 N.am    
  41 C41          -14.6864     0.8915     8.8108 C.3     
  42 C42          -14.4449     1.3427    10.2283 C.2     
  43 N43          -15.4622     1.8385    10.9602 N.am    
  44 O44          -17.0405    -1.4795     7.1265 O.3     
  45 C45          -16.0732    -0.5839     7.3793 C.2     
  46 C46          -15.7280    -0.2291     8.8027 C.3     
  47 O47          -15.4791    -0.0622     6.4657 O.2     
  48 O48          -13.3352     1.2596    10.7104 O.2     
  49 C49          -15.2275     2.2771    12.3381 C.3     
  50 C50          -16.5157     2.1994    13.1164 C.2     
  51 C51          -14.7202     3.7206    12.3345 C.3     
  52 C52          -13.3518     3.7785    11.6526 C.3     
  53 C53          -12.8445     5.2219    11.6490 C.3     
  54 C54          -11.4760     5.2798    10.9671 C.3     
  55 N55          -10.9890     6.6657    10.9636 N.3     
  56 N56          -16.5406     2.5565    14.4157 N.am    
  57 O57          -17.5299     1.8154    12.5735 O.2     
  58 C58          -17.7929     2.4810    15.1723 C.3     
  59 C59          -17.4849     2.3227    16.6389 C.2     
  60 N60          -18.4898     2.2314    17.5325 N.am    
  61 C61          -20.2112     3.3114    13.0968 C.ar    
  62 C62          -19.0109     3.8598    13.5096 C.ar    
  63 C63          -18.5978     3.7640    14.9557 C.3     
  64 C64          -20.5921     3.3979    11.7718 C.ar    
  65 C65          -19.7691     4.0357    10.8549 C.ar    
  66 C66          -18.5650     4.5846    11.2714 C.ar    
  67 C67          -18.1887     4.4955    12.5976 C.ar    
  68 O68          -16.3329     2.2775    17.0152 O.2     
  69 C69          -18.1904     2.0776    18.9583 C.3     
  70 C70          -19.3508     1.4051    19.6455 C.2     
  71 C71          -17.9570     3.4550    19.5819 C.3     
  72 C72          -16.7040     4.0858    18.9710 C.3     
  73 C73          -16.4706     5.4633    19.5947 C.3     
  74 N74          -15.2709     6.0672    19.0097 N.pl3   
  75 C75          -14.8601     7.3141    19.4181 C.2     
  76 N76          -13.7342     7.8809    18.8691 N.pl3   
  77 N77          -15.5379     7.9588    20.3256 N.2     
  78 O78          -20.1414     4.1217     9.5507 O.3     
  79 N79          -19.2989     1.1585    20.9695 N.am    
  80 O80          -20.3313     1.0858    19.0072 O.2     
  81 C81          -20.3777     0.4086    21.6178 C.3     
  82 C82          -20.3798     0.7117    23.1174 C.3     
  83 N83          -20.4697     2.1634    23.3235 N.3     
  84 C84          -21.0834    -3.3677    21.8475 C.3     
  85 C85          -21.3541    -1.8659    21.9579 C.3     
  86 C86          -20.1589    -1.0900    21.4006 C.3     
  87 C87          -22.6091    -1.5137    21.1568 C.3     
  88 C88          -20.4743     2.4926    24.7551 C.3     
  89 C89          -19.9517     3.9169    24.9526 C.3     
  90 C90          -18.5059     3.9843    24.5326 C.2     
  91 N91          -17.5142     3.2079    24.9938 N.2     
  92 N92          -22.1279     2.6555    26.5875 N.am    
  93 C93          -21.8803     2.3950    25.2885 C.2     
  94 O94          -22.7891     2.0819    24.5489 O.2     
  95 C95          -17.9843     4.8306    23.6242 C.2     
  96 N96          -16.6460     4.5539    23.5477 N.pl3   
  97 C97          -16.3968     3.5447    24.4098 C.2     
  98 N98            0.9852     4.8127    -1.7971 N.am    
  99 C99            1.5782     5.2045    -2.9422 C.2     
 100 O100           0.9684     5.1530    -3.9893 O.2     
 101 C101           2.9990     5.7065    -2.9216 C.3     
 102 C102           3.0919     6.9373    -2.0174 C.3     
 103 N103           3.4092     6.0672    -4.2810 N.am    
 104 C104           4.5538     7.3724    -1.8970 C.3     
 105 C105           4.6467     8.6031    -0.9928 C.3     
 106 C106           6.1086     9.0382    -0.8724 C.3     
 107 N107           6.1978    10.2199    -0.0042 N.3     
 108 C108           4.7145     6.0551    -4.6165 C.2     
 109 O109           5.5494     5.7457    -3.7931 O.2     
 110 C110           5.1365     6.4261    -6.0148 C.3     
 111 C111           4.4889     5.4659    -7.0146 C.3     
 112 N112           6.5945     6.3357    -6.1251 N.am    
 113 H113           7.0905     5.7506    -5.5313 H       
 114 C114           7.2468     7.0656    -7.0515 C.2     
 115 O115           6.6268     7.7972    -7.7939 O.2     
 116 C116           8.7467     6.9726    -7.1649 C.3     
 117 C117           4.8158     5.9167    -8.4397 C.3     
 118 C118           4.1683     4.9565    -9.4395 C.3     
 119 C119           4.4952     5.4073   -10.8646 C.3     
 120 N120           3.8734     4.4854   -11.8246 N.3     
 121 C121           9.2315     7.8945    -8.2856 C.3     
 122 C122          10.7543     7.8001    -8.4007 C.3     
 123 C123          11.2391     8.7220    -9.5213 C.3     
 124 C124          12.7619     8.6276    -9.6365 C.3     
 125 C125          13.2467     9.5495   -10.7571 C.3     
 126 C126          14.7695     9.4551   -10.8723 C.3     
 127 C127          15.2543    10.3770   -11.9929 C.3     
 128 C128          16.7771    10.2826   -12.1080 C.3     
 129 C129          17.2619    11.2046   -13.2287 C.3     
 130 C130          18.7847    11.1101   -13.3438 C.3     
 131 C131          19.2695    12.0321   -14.4645 C.3     
 132 C132          20.7923    11.9377   -14.5796 C.3     
 133 C133          21.2771    12.8596   -15.7003 C.3     
 134 C134          22.7999    12.7652   -15.8154 C.3     
 135 H135          -0.9644     4.8736    -2.5678 H       
 136 H136           0.2358     2.2961    -1.4610 H       
 137 H137          -1.4229     2.4504    -2.0880 H       
 138 H138           1.0978     3.0968    -3.6808 H       
 139 H139          -0.7586     0.6762    -3.7883 H       
 140 H140           0.5946     0.9966    -4.8993 H       
 141 H141           0.9134     0.6757    -3.1778 H       
 142 H142          -2.8127     3.7513    -0.9594 H       
 143 H143          -2.1524     4.2127     1.8475 H       
 144 H144          -4.1517     5.9536     0.3371 H       
 145 H145          -3.9941     5.9015     2.1093 H       
 146 H146          -1.6256     6.6106     1.9197 H       
 147 H147          -1.7832     6.6628     0.1475 H       
 148 H148          -3.5590     8.3807     0.3559 H       
 149 H149          -3.4015     8.3286     2.1281 H       
 150 H150          -0.9300     4.3502    -4.3634 H       
 151 H151          -0.4819     3.1424    -5.5917 H       
 152 H152          -1.8351     2.8220    -4.4806 H       
 153 H153          -0.8561     8.8553     1.0235 H       
 154 H154          -4.0540    10.3252     1.3510 H       
 155 H155          -3.5080    11.9141     1.3493 H       
 156 H156          -1.2331    12.3258     1.1592 H       
 157 H157          -4.5214     4.0019     3.1149 H       
 158 H158          -6.3183     2.2252     1.6514 H       
 159 H159          -6.0382     0.3372     3.1843 H       
 160 H160          -4.4642     0.7309     2.4522 H       
 161 H161          -4.3078     0.4918     4.8238 H       
 162 H162          -8.0448     1.3570     3.5297 H       
 163 H163          -8.3320     3.3352     5.6584 H       
 164 H164         -10.3252     3.1162     3.3588 H       
 165 H165         -10.6283     3.9917     4.8786 H       
 166 H166          -8.6644     5.4396     4.4363 H       
 167 H167          -8.3613     4.5641     2.9165 H       
 168 H168          -9.8938     8.0533     1.6432 H       
 169 H169          -8.8083     7.8225     3.0349 H       
 170 H170          -8.5052     6.9470     1.5151 H       
 171 H171         -10.7425     2.7883     6.7323 H       
 172 H172         -11.4034    -0.0362     6.3956 H       
 173 H173         -10.9269    -0.6398     8.7198 H       
 174 H174          -9.8369     0.9902    10.0839 H       
 175 H175          -8.5451     0.7435     7.4043 H       
 176 H176          -8.4512    -0.5102     8.6644 H       
 177 H177          -9.1062    -0.9099     7.0583 H       
 178 H178         -13.2060    -0.5434     8.3030 H       
 179 H179         -15.0514     1.7312     8.2194 H       
 180 H180         -16.3498     1.9049    10.5746 H       
 181 H181         -17.2262    -1.6747     6.1978 H       
 182 H182         -15.3224    -1.1059     9.3076 H       
 183 H183         -16.6261     0.1059     9.3217 H       
 184 H184         -14.4826     1.6314    12.8031 H       
 185 H185         -15.4238     4.3516    11.7914 H       
 186 H186         -14.6302     4.0766    13.3607 H       
 187 H187         -12.6482     3.1475    12.1957 H       
 188 H188         -13.4418     3.4224    10.6264 H       
 189 H189         -13.5480     5.8529    11.1059 H       
 190 H190         -12.7544     5.5780    12.6752 H       
 191 H191         -10.7725     4.6488    11.5102 H       
 192 H192         -11.5661     4.9238     9.9409 H       
 193 H193         -10.9581     7.0405    11.8999 H       
 194 H194         -10.0859     6.7305    10.5183 H       
 195 H195         -15.7294     2.8637    14.8499 H       
 196 H196         -18.3739     1.6251    14.8286 H       
 197 H197         -19.4112     2.2675    17.2315 H       
 198 H198         -20.8494     2.8112    13.8102 H       
 199 H199         -19.4863     3.7464    15.5869 H       
 200 H200         -17.9841     4.6263    15.2161 H       
 201 H201         -21.5296     2.9692    11.4498 H       
 202 H202         -17.9225     5.0813    10.5595 H       
 203 H203         -17.2516     4.9230    12.9225 H       
 204 H204         -17.2946     1.4681    19.0778 H       
 205 H205         -18.8181     4.0936    19.3851 H       
 206 H206         -17.8222     3.3485    20.6583 H       
 207 H207         -15.8429     3.4472    19.1679 H       
 208 H208         -16.8388     4.1924    17.8947 H       
 209 H209         -17.3318     6.1019    19.3978 H       
 210 H210         -16.3358     5.3567    20.6710 H       
 211 H211         -14.7665     5.5874    18.3343 H       
 212 H212         -13.2297     7.4010    18.1937 H       
 213 H213         -13.4443     8.7605    19.1572 H       
 214 H214         -15.2480     8.8385    20.6138 H       
 215 H215         -20.6567     4.9124     9.3401 H       
 216 H216         -18.5474     1.4776    21.4932 H       
 217 H217         -21.3346     0.7023    21.1864 H       
 218 H218         -21.2353     0.2246    23.5853 H       
 219 H219         -19.4591     0.3375    23.5650 H       
 220 H220         -19.7227     2.6435    22.8444 H       
 221 H221         -20.1893    -3.6187    22.4182 H       
 222 H222         -21.9349    -3.9205    22.2445 H       
 223 H223         -20.9333    -3.6340    20.8012 H       
 224 H224         -21.5042    -1.5997    23.0041 H       
 225 H225         -20.0599    -1.2920    20.3341 H       
 226 H226         -19.2506    -1.4030    21.9155 H       
 227 H227         -23.4396    -2.1359    21.4903 H       
 228 H228         -22.8566    -0.4636    21.3123 H       
 229 H229         -22.4253    -1.6905    20.0971 H       
 230 H230         -19.8330     1.7927    25.2909 H       
 231 H231         -20.5387     4.6067    24.3461 H       
 232 H232         -20.0380     4.1933    26.0034 H       
 233 H233         -21.4011     2.9058    27.1790 H       
 234 H234         -23.0329     2.5927    26.9308 H       
 235 H235         -18.5193     5.5828    23.0634 H       
 236 H236         -15.9980     4.9978    22.9785 H       
 237 H237         -15.4325     3.0918    24.5870 H       
 238 H238           1.4730     4.8539    -0.9596 H       
 239 H239           3.6551     4.9245    -2.5395 H       
 240 H240           2.5054     7.7492    -2.4474 H       
 241 H241           2.7032     6.6921    -1.0290 H       
 242 H242           2.7414     6.3147    -4.9395 H       
 243 H243           5.1403     6.5605    -1.4670 H       
 244 H244           4.9425     7.6175    -2.8854 H       
 245 H245           4.0602     9.4150    -1.4228 H       
 246 H246           4.2580     8.3580    -0.0044 H       
 247 H247           6.6951     8.2263    -0.4424 H       
 248 H248           6.4973     9.2834    -1.8608 H       
 249 H249           5.7848    10.0377     0.8981 H       
 250 H250           7.1542    10.5270     0.0913 H       
 251 H251           4.8182     7.4458    -6.2319 H       
 252 H252           4.8753     4.4594    -6.8543 H       
 253 H253           3.4083     5.4672    -6.8720 H       
 254 H254           9.2018     7.2762    -6.2222 H       
 255 H255           9.0309     5.9449    -7.3913 H       
 256 H256           4.4294     6.9232    -8.6001 H       
 257 H257           5.8964     5.9154    -8.5823 H       
 258 H258           4.5547     3.9500    -9.2792 H       
 259 H259           3.0876     4.9578    -9.2969 H       
 260 H260           4.1087     6.4138   -11.0250 H       
 261 H261           5.5758     5.4060   -11.0072 H       
 262 H262           2.8784     4.4197   -11.6704 H       
 263 H263           4.0748     4.7618   -12.7738 H       
 264 H264           8.7764     7.5909    -9.2283 H       
 265 H265           8.9473     8.9221    -8.0592 H       
 266 H266          11.2094     8.1037    -7.4579 H       
 267 H267          11.0385     6.7724    -8.6271 H       
 268 H268          10.7840     8.4184   -10.4641 H       
 269 H269          10.9549     9.7497    -9.2950 H       
 270 H270          13.2170     8.9312    -8.6937 H       
 271 H271          13.0461     7.6000    -9.8629 H       
 272 H272          12.7916     9.2459   -11.6999 H       
 273 H273          12.9625    10.5772   -10.5307 H       
 274 H274          15.2246     9.7587    -9.9295 H       
 275 H275          15.0537     8.4275   -11.0986 H       
 276 H276          14.7992    10.0735   -12.9356 H       
 277 H277          14.9701    11.4047   -11.7665 H       
 278 H278          17.2322    10.5862   -11.1653 H       
 279 H279          17.0613     9.2550   -12.3344 H       
 280 H280          16.8068    10.9010   -14.1714 H       
 281 H281          16.9777    12.2322   -13.0023 H       
 282 H282          19.2398    11.4137   -12.4011 H       
 283 H283          19.0689    10.0825   -13.5702 H       
 284 H284          18.8144    11.7285   -15.4072 H       
 285 H285          18.9853    13.0597   -14.2381 H       
 286 H286          21.2474    12.2413   -13.6369 H       
 287 H287          21.0765    10.9100   -14.8060 H       
 288 H288          20.8220    12.5560   -16.6430 H       
 289 H289          20.9929    13.8872   -15.4739 H       
 290 H290          23.1453    13.4220   -16.6138 H       
 291 H291          23.2550    13.0688   -14.8726 H       
 292 H292          23.0841    11.7375   -16.0418 H       
@<TRIPOS>BOND
   1    1    2 1
   2    1   98 1
   3    1    6 1
   4    1  135 1
   5    2    3 1
   6    2  136 1
   7    2  137 1
   8    3    4 1
   9    3   13 1
  10    3  138 1
  11    4  139 1
  12    4  140 1
  13    4  141 1
  14    5    6 am
  15    5    7 1
  16    5  142 1
  17    6   12 2
  18    7    8 1
  19    7    9 1
  20    7  143 1
  21    8   18 am
  22    8   19 2
  23    9   10 1
  24    9  144 1
  25    9  145 1
  26   10   11 1
  27   10  146 1
  28   10  147 1
  29   11   14 1
  30   11  148 1
  31   11  149 1
  32   13  150 1
  33   13  151 1
  34   13  152 1
  35   14   15 1
  36   14  153 1
  37   15   16 1
  38   15   17 2
  39   16  154 1
  40   16  155 1
  41   17  156 1
  42   18   20 1
  43   18  157 1
  44   20   21 1
  45   20   22 1
  46   20  158 1
  47   21   23 1
  48   21  159 1
  49   21  160 1
  50   22   24 2
  51   22   25 am
  52   23  161 1
  53   25   26 1
  54   25  162 1
  55   26   27 1
  56   26   28 1
  57   26  163 1
  58   27   29 1
  59   27  164 1
  60   27  165 1
  61   28   32 2
  62   28   33 am
  63   29   30 1
  64   29  166 1
  65   29  167 1
  66   30   31 1
  67   31  168 1
  68   31  169 1
  69   31  170 1
  70   33   34 1
  71   33  171 1
  72   34   35 1
  73   34   36 1
  74   34  172 1
  75   35   37 1
  76   35   38 1
  77   35  173 1
  78   36   39 2
  79   36   40 am
  80   37  174 1
  81   38  175 1
  82   38  176 1
  83   38  177 1
  84   40   41 1
  85   40  178 1
  86   41   42 1
  87   41   46 1
  88   41  179 1
  89   42   43 am
  90   42   48 2
  91   43   49 1
  92   43  180 1
  93   44   45 1
  94   44  181 1
  95   45   46 1
  96   45   47 2
  97   46  182 1
  98   46  183 1
  99   49   50 1
 100   49   51 1
 101   49  184 1
 102   50   56 am
 103   50   57 2
 104   51   52 1
 105   51  185 1
 106   51  186 1
 107   52   53 1
 108   52  187 1
 109   52  188 1
 110   53   54 1
 111   53  189 1
 112   53  190 1
 113   54   55 1
 114   54  191 1
 115   54  192 1
 116   55  193 1
 117   55  194 1
 118   56   58 1
 119   56  195 1
 120   58   59 1
 121   58   63 1
 122   58  196 1
 123   59   60 am
 124   59   68 2
 125   60   69 1
 126   60  197 1
 127   61   62 ar
 128   61   64 ar
 129   61  198 1
 130   62   63 1
 131   62   67 ar
 132   63  199 1
 133   63  200 1
 134   64   65 ar
 135   64  201 1
 136   65   66 ar
 137   65   78 1
 138   66   67 ar
 139   66  202 1
 140   67  203 1
 141   69   70 1
 142   69   71 1
 143   69  204 1
 144   70   79 am
 145   70   80 2
 146   71   72 1
 147   71  205 1
 148   71  206 1
 149   72   73 1
 150   72  207 1
 151   72  208 1
 152   73   74 1
 153   73  209 1
 154   73  210 1
 155   74   75 1
 156   74  211 1
 157   75   76 1
 158   75   77 2
 159   76  212 1
 160   76  213 1
 161   77  214 1
 162   78  215 1
 163   79   81 1
 164   79  216 1
 165   81   82 1
 166   81   86 1
 167   81  217 1
 168   82   83 1
 169   82  218 1
 170   82  219 1
 171   83   88 1
 172   83  220 1
 173   84   85 1
 174   84  221 1
 175   84  222 1
 176   84  223 1
 177   85   86 1
 178   85   87 1
 179   85  224 1
 180   86  225 1
 181   86  226 1
 182   87  227 1
 183   87  228 1
 184   87  229 1
 185   88   89 1
 186   88   93 1
 187   88  230 1
 188   89   90 1
 189   89  231 1
 190   89  232 1
 191   90   91 1
 192   90   95 2
 193   91   97 2
 194   92   93 am
 195   92  233 1
 196   92  234 1
 197   93   94 2
 198   95   96 1
 199   95  235 1
 200   96   97 1
 201   96  236 1
 202   97  237 1
 203   98   99 am
 204   98  238 1
 205   99  100 2
 206   99  101 1
 207  101  102 1
 208  101  103 1
 209  101  239 1
 210  102  104 1
 211  102  240 1
 212  102  241 1
 213  103  108 am
 214  103  242 1
 215  104  105 1
 216  104  243 1
 217  104  244 1
 218  105  106 1
 219  105  245 1
 220  105  246 1
 221  106  107 1
 222  106  247 1
 223  106  248 1
 224  107  249 1
 225  107  250 1
 226  108  109 2
 227  108  110 1
 228  110  111 1
 229  110  112 1
 230  110  251 1
 231  111  117 1
 232  111  252 1
 233  111  253 1
 234  112  113 1
 235  112  114 am
 236  114  115 2
 237  114  116 1
 238  116  121 1
 239  116  254 1
 240  116  255 1
 241  117  118 1
 242  117  256 1
 243  117  257 1
 244  118  119 1
 245  118  258 1
 246  118  259 1
 247  119  120 1
 248  119  260 1
 249  119  261 1
 250  120  262 1
 251  120  263 1
 252  121  122 1
 253  121  264 1
 254  121  265 1
 255  122  123 1
 256  122  266 1
 257  122  267 1
 258  123  124 1
 259  123  268 1
 260  123  269 1
 261  124  125 1
 262  124  270 1
 263  124  271 1
 264  125  126 1
 265  125  272 1
 266  125  273 1
 267  126  127 1
 268  126  274 1
 269  126  275 1
 270  127  128 1
 271  127  276 1
 272  127  277 1
 273  128  129 1
 274  128  278 1
 275  128  279 1
 276  129  130 1
 277  129  280 1
 278  129  281 1
 279  130  131 1
 280  130  282 1
 281  130  283 1
 282  131  132 1
 283  131  284 1
 284  131  285 1
 285  132  133 1
 286  132  286 1
 287  132  287 1
 288  133  134 1
 289  133  288 1
 290  133  289 1
 291  134  290 1
 292  134  291 1
 293  134  292 1

#	End of record

