#	Name: ASD01814047
#	Creating user name:	WinNT
#	Creation time:	15. 06. 2019 19:31

#	Modifying user name:	WinNT
#	Modification time:	15. 06. 2019 19:31

#	Program:	/corina/corina34_cracker 3.40 0067  02.08.2006

@<TRIPOS>MOLECULE
ASD01814047
  46   48    0    0    0
SMALL
NO_CHARGES


@<TRIPOS>ATOM
   1 C1            -0.5557     0.7232     0.2435 C.ar    
   2 C2            -0.2948    -0.6381     0.2294 C.ar    
   3 C3             0.9979    -1.1076     0.1359 C.ar    
   4 C4             2.0602    -0.2123     0.0539 C.ar    
   5 C5             1.7962     1.1684     0.0676 C.ar    
   6 C6             0.4816     1.6313     0.1632 C.ar    
   7 N7             3.3566    -0.6709    -0.0394 N.pl3   
   8 C8             4.4124     0.1493    -0.1199 C.2     
   9 C9             4.2785     1.5228    -0.1156 C.2     
  10 C10            2.9299     2.1056    -0.0200 C.2     
  11 F11            0.2268     2.9580     0.1765 F       
  12 O12            2.7585     3.3121    -0.0127 O.2     
  13 C13            5.4623     2.3892    -0.2047 C.2     
  14 O14            5.3185     3.7295    -0.1996 O.3     
  15 O15            6.5711     1.8971    -0.2829 O.2     
  16 C16            3.5898    -2.1172    -0.0506 C.3     
  17 C17            3.5657    -2.6189    -1.4715 C.ar    
  18 C18            4.7345    -2.6578    -2.2093 C.ar    
  19 C19            4.7158    -3.1170    -3.5117 C.ar    
  20 C20            3.5215    -3.5405    -4.0799 C.ar    
  21 C21            2.3495    -3.5007    -3.3362 C.ar    
  22 C22            2.3758    -3.0448    -2.0327 C.ar    
  23 N23            3.4991    -4.0060    -5.3995 N.am    
  24 C24            4.5417    -4.7094    -5.8838 C.2     
  25 N25            4.4811    -5.2379    -7.1222 N.am    
  26 O26            5.5371    -4.8673    -5.2035 O.2     
  27 C27            5.6145    -6.0025    -7.6486 C.3     
  28 C28            5.2898    -6.4872    -9.0630 C.3     
  29 H29           -1.5744     1.0751     0.3130 H       
  30 H30           -1.1140    -1.3391     0.2927 H       
  31 H31            1.1865    -2.1710     0.1268 H       
  32 H32            5.4016    -0.2785    -0.1900 H       
  33 H33            6.1261     4.2579    -0.2601 H       
  34 H34            4.5614    -2.3321     0.3941 H       
  35 H35            2.8090    -2.6155     0.5239 H       
  36 H36            5.6630    -2.3283    -1.7668 H       
  37 H37            5.6288    -3.1465    -4.0878 H       
  38 H38            1.4191    -3.8290    -3.7754 H       
  39 H39            1.4647    -3.0139    -1.4536 H       
  40 H40            2.7331    -3.8224    -5.9656 H       
  41 H41            3.6871    -5.1120    -7.6649 H       
  42 H42            6.4998    -5.3673    -7.6764 H       
  43 H43            5.8037    -6.8614    -7.0047 H       
  44 H44            6.1330    -7.0561    -9.4546 H       
  45 H45            4.4045    -7.1224    -9.0351 H       
  46 H46            5.1006    -5.6282    -9.7069 H       
@<TRIPOS>BOND
   1    1    2 ar
   2    1    6 ar
   3    1   29 1
   4    2    3 ar
   5    2   30 1
   6    3    4 ar
   7    3   31 1
   8    4    5 ar
   9    4    7 1
  10    5    6 ar
  11    5   10 1
  12    6   11 1
  13    7    8 1
  14    7   16 1
  15    8    9 2
  16    8   32 1
  17    9   10 1
  18    9   13 1
  19   10   12 2
  20   13   14 1
  21   13   15 2
  22   14   33 1
  23   16   17 1
  24   16   34 1
  25   16   35 1
  26   17   18 ar
  27   17   22 ar
  28   18   19 ar
  29   18   36 1
  30   19   20 ar
  31   19   37 1
  32   20   21 ar
  33   20   23 1
  34   21   22 ar
  35   21   38 1
  36   22   39 1
  37   23   24 am
  38   23   40 1
  39   24   25 am
  40   24   26 2
  41   25   27 1
  42   25   41 1
  43   27   28 1
  44   27   42 1
  45   27   43 1
  46   28   44 1
  47   28   45 1
  48   28   46 1

#	End of record

