#	Name: ASD01730015
#	Creating user name:	WinNT
#	Creation time:	15. 06. 2019 19:23

#	Modifying user name:	WinNT
#	Modification time:	15. 06. 2019 19:23

#	Program:	/corina/corina34_cracker 3.40 0067  02.08.2006

@<TRIPOS>MOLECULE
ASD01730015
  36   37    0    0    0
SMALL
NO_CHARGES


@<TRIPOS>ATOM
   1 N1            -0.0162     1.3436     0.0094 N.am    
   2 C2             0.0021    -0.0041     0.0020 C.2     
   3 S3             1.4961    -0.8398    -0.0167 S.2     
   4 N4            -1.1558    -0.6938     0.0094 N.am    
   5 S5            -2.5667    -3.1016     0.0099 S.3     
   6 C6            -1.1370    -2.0786     0.0018 C.2     
   7 N7            -0.0701    -2.7990    -0.0131 N.2     
   8 C8            -0.2140    -4.1403    -0.0195 C.ar    
   9 C9            -1.5529    -4.5426    -0.0086 C.ar    
  10 C10            0.7867    -5.1345    -0.0353 C.ar    
  11 C11            0.4478    -6.4638    -0.0397 C.ar    
  12 C12           -0.8878    -6.8530    -0.0288 C.ar    
  13 C13           -1.8834    -5.8954    -0.0137 C.ar    
  14 O14           -1.2126    -8.1735    -0.0336 O.3     
  15 C15           -0.1312    -9.1076    -0.0501 C.3     
  16 F16            0.6641    -8.9203     1.0854 F       
  17 F17           -0.6405   -10.4106    -0.0530 F       
  18 F18            0.6413    -8.9063    -1.1990 F       
  19 C19            1.2424     2.0932     0.0014 C.3     
  20 C20            0.9425     3.5935     0.0124 C.3     
  21 C21            2.2528     4.3747     0.1298 C.3     
  22 C22            0.2323     3.9811    -1.2862 C.3     
  23 H23           -0.8627     1.8171     0.0160 H       
  24 H24           -2.0023    -0.2203     0.0200 H       
  25 H25            1.8277    -4.8469    -0.0442 H       
  26 H26            1.2242    -7.2144    -0.0522 H       
  27 H27           -2.9205    -6.1966    -0.0052 H       
  28 H28            1.8260     1.8329     0.8845 H       
  29 H29            1.8090     1.8425    -0.8954 H       
  30 H30            0.3013     3.8297     0.8616 H       
  31 H31            2.8939     4.1386    -0.7195 H       
  32 H32            2.0391     5.4435     0.1376 H       
  33 H33            2.7587     4.0986     1.0549 H       
  34 H34            0.8734     3.7449    -2.1355 H       
  35 H35           -0.7012     3.4245    -1.3699 H       
  36 H36            0.0186     5.0499    -1.2784 H       
@<TRIPOS>BOND
   1    1    2 am
   2    1   19 1
   3    1   23 1
   4    2    3 2
   5    2    4 am
   6    4    6 1
   7    4   24 1
   8    5    6 1
   9    5    9 1
  10    6    7 2
  11    7    8 1
  12    8    9 ar
  13    8   10 ar
  14    9   13 ar
  15   10   11 ar
  16   10   25 1
  17   11   12 ar
  18   11   26 1
  19   12   13 ar
  20   12   14 1
  21   13   27 1
  22   14   15 1
  23   15   16 1
  24   15   17 1
  25   15   18 1
  26   19   20 1
  27   19   28 1
  28   19   29 1
  29   20   21 1
  30   20   22 1
  31   20   30 1
  32   21   31 1
  33   21   32 1
  34   21   33 1
  35   22   34 1
  36   22   35 1
  37   22   36 1

#	End of record

