#	Name: ASD04882201
#	Creating user name:	WinNT
#	Creation time:	15. 06. 2019 20:54

#	Modifying user name:	WinNT
#	Modification time:	15. 06. 2019 20:54

#	Program:	/corina/corina34_cracker 3.40 0067  02.08.2006

@<TRIPOS>MOLECULE
ASD04882201
  92   95    0    0    0
SMALL
NO_CHARGES


@<TRIPOS>ATOM
   1 C1             0.1258     1.4840    -0.4332 C.2     
   2 C2             0.1460     0.0187    -0.4838 C.2     
   3 N3             1.1860    -0.6594     0.0406 N.am    
   4 C4             1.1515    -2.0587     0.0999 C.ar    
   5 C5             2.3302    -2.7944    -0.0510 C.ar    
   6 C6             2.2974    -4.1830     0.0076 C.ar    
   7 C7             1.1041    -4.8386     0.2150 C.ar    
   8 C8            -0.0782    -4.1089     0.3672 C.ar    
   9 C9            -0.0473    -2.7126     0.3134 C.ar    
  10 N10            3.5390    -2.1357    -0.2608 N.3     
  11 C11            3.5457    -1.4484    -1.5598 C.3     
  12 C12            4.6713    -3.0665    -0.1549 C.3     
  13 C13            5.9817    -2.2915    -0.3123 C.3     
  14 N14            5.9884    -1.6042    -1.6112 N.3     
  15 C15            4.8561    -0.6735    -1.7171 C.3     
  16 C16            7.2008    -0.9435    -1.8217 C.ar    
  17 C17            7.9953    -1.2770    -2.9110 C.ar    
  18 C18            7.6121     0.0528    -0.9450 C.ar    
  19 C19            8.8114     0.7039    -1.1560 C.ar    
  20 C20            9.6026     0.3657    -2.2388 C.ar    
  21 C21            9.1937    -0.6217    -3.1162 C.ar    
  22 C22           -1.3564    -4.8114     0.5887 C.2     
  23 N23           -1.3846    -6.1578     0.6445 N.am    
  24 O24           -2.3846    -4.1758     0.7210 O.2     
  25 O25           -0.7765    -0.5852    -0.9993 O.2     
  26 O26            1.0791     2.2718     0.1059 O.3     
  27 C27            0.7234     3.5560    -0.0292 C.2     
  28 C28           -0.4701     3.6125    -0.6605 C.2     
  29 C29           -0.8584     2.2905    -0.9287 C.2     
  30 C30            7.5505    -2.3530    -3.8678 C.3     
  31 C31            1.5221     4.7426     0.4454 C.3     
  32 C32           -2.6539    -6.8554     0.8645 C.3     
  33 C33           -2.4089    -8.3655     0.8850 C.3     
  34 C34           -3.7345    -9.0941     1.1148 C.3     
  35 C35           -3.4896   -10.6043     1.1353 C.3     
  36 C36           -4.8152   -11.3329     1.3650 C.3     
  37 C37           -4.5703   -12.8430     1.3855 C.3     
  38 N38           -5.8396   -13.5406     1.6055 N.am    
  39 C39           -5.8677   -14.8870     1.6613 C.2     
  40 O40           -4.8403   -15.5221     1.5291 O.2     
  41 O41           -7.0342   -15.5281     1.8635 O.3     
  42 C42           -6.9894   -16.9786     1.9122 C.3     
  43 C43           -6.0730   -17.4225     3.0542 C.3     
  44 C44           -8.3990   -17.5248     2.1478 C.3     
  45 C45           -6.4489   -17.5169     0.5859 C.3     
  46 H46            1.9584    -0.1786     0.3769 H       
  47 H47            3.2097    -4.7489    -0.1100 H       
  48 H48            1.0819    -5.9174     0.2597 H       
  49 H49           -0.9593    -2.1461     0.4310 H       
  50 H50            3.4593    -2.1831    -2.3603 H       
  51 H51            2.7054    -0.7558    -1.6091 H       
  52 H52            4.6517    -3.5535     0.8200 H       
  53 H53            4.5977    -3.8195    -0.9395 H       
  54 H54            6.0681    -1.5569     0.4883 H       
  55 H55            6.8219    -2.9841    -0.2630 H       
  56 H56            4.8757    -0.1864    -2.6920 H       
  57 H57            4.9297     0.0796    -0.9325 H       
  58 H58            6.9944     0.3178    -0.0997 H       
  59 H59            9.1317     1.4784    -0.4749 H       
  60 H60           10.5397     0.8770    -2.4019 H       
  61 H61            9.8139    -0.8834    -3.9607 H       
  62 H62           -0.5644    -6.6648     0.5390 H       
  63 H63           -1.0196     4.5067    -0.9148 H       
  64 H64           -1.7637     1.9726    -1.4245 H       
  65 H65            6.9594    -1.9065    -4.6674 H       
  66 H66            8.4251    -2.8448    -4.2936 H       
  67 H67            6.9452    -3.0860    -3.3344 H       
  68 H68            2.4408     4.3962     0.9188 H       
  69 H69            1.7689     5.3781    -0.4051 H       
  70 H70            0.9344     5.3116     1.1657 H       
  71 H71           -3.0794    -6.5434     1.8183 H       
  72 H72           -3.3472    -6.6107     0.0599 H       
  73 H73           -1.9834    -8.6776    -0.0688 H       
  74 H74           -1.7156    -8.6103     1.6897 H       
  75 H75           -4.1601    -8.7821     2.0685 H       
  76 H76           -4.4279    -8.8494     0.3101 H       
  77 H77           -3.0641   -10.9163     0.1815 H       
  78 H78           -2.7963   -10.8490     1.9399 H       
  79 H79           -5.2408   -11.0208     2.3188 H       
  80 H80           -5.5086   -11.0881     0.5604 H       
  81 H81           -4.1448   -13.1550     0.4317 H       
  82 H82           -3.8769   -13.0877     2.1902 H       
  83 H83           -6.6598   -13.0336     1.7110 H       
  84 H84           -6.4580   -17.0390     3.9990 H       
  85 H85           -6.0393   -18.5113     3.0907 H       
  86 H86           -5.0687   -17.0333     2.8863 H       
  87 H87           -9.0519   -17.2086     1.3342 H       
  88 H88           -8.3653   -18.6137     2.1843 H       
  89 H89           -8.7840   -17.1413     3.0927 H       
  90 H90           -5.4447   -17.1278     0.4181 H       
  91 H91           -6.4152   -18.6058     0.6225 H       
  92 H92           -7.1018   -17.2007    -0.2276 H       
@<TRIPOS>BOND
   1    1    2 1
   2    1   26 1
   3    1   29 2
   4    2    3 am
   5    2   25 2
   6    3    4 1
   7    3   46 1
   8    4    5 ar
   9    4    9 ar
  10    5    6 ar
  11    5   10 1
  12    6    7 ar
  13    6   47 1
  14    7    8 ar
  15    7   48 1
  16    8    9 ar
  17    8   22 1
  18    9   49 1
  19   10   11 1
  20   10   12 1
  21   11   15 1
  22   11   50 1
  23   11   51 1
  24   12   13 1
  25   12   52 1
  26   12   53 1
  27   13   14 1
  28   13   54 1
  29   13   55 1
  30   14   15 1
  31   14   16 1
  32   15   56 1
  33   15   57 1
  34   16   17 ar
  35   16   18 ar
  36   17   30 1
  37   17   21 ar
  38   18   19 ar
  39   18   58 1
  40   19   20 ar
  41   19   59 1
  42   20   21 ar
  43   20   60 1
  44   21   61 1
  45   22   23 am
  46   22   24 2
  47   23   32 1
  48   23   62 1
  49   26   27 1
  50   27   28 2
  51   27   31 1
  52   28   29 1
  53   28   63 1
  54   29   64 1
  55   30   65 1
  56   30   66 1
  57   30   67 1
  58   31   68 1
  59   31   69 1
  60   31   70 1
  61   32   33 1
  62   32   71 1
  63   32   72 1
  64   33   34 1
  65   33   73 1
  66   33   74 1
  67   34   35 1
  68   34   75 1
  69   34   76 1
  70   35   36 1
  71   35   77 1
  72   35   78 1
  73   36   37 1
  74   36   79 1
  75   36   80 1
  76   37   38 1
  77   37   81 1
  78   37   82 1
  79   38   39 am
  80   38   83 1
  81   39   40 2
  82   39   41 1
  83   41   42 1
  84   42   43 1
  85   42   44 1
  86   42   45 1
  87   43   84 1
  88   43   85 1
  89   43   86 1
  90   44   87 1
  91   44   88 1
  92   44   89 1
  93   45   90 1
  94   45   91 1
  95   45   92 1

#	End of record

