#	Name: ASD04570045
#	Creating user name:	WinNT
#	Creation time:	15. 06. 2019 20:49

#	Modifying user name:	WinNT
#	Modification time:	15. 06. 2019 20:49

#	Program:	/corina/corina34_cracker 3.40 0067  02.08.2006

@<TRIPOS>MOLECULE
ASD04570045
 336  338    0    0    0
SMALL
NO_CHARGES


@<TRIPOS>ATOM
   1 C1            -0.0187     1.5258     0.0104 C.3     
   2 C2             0.0021    -0.0041     0.0020 C.3     
   3 C3            -1.4333    -0.5336     0.0129 C.3     
   4 C4            -1.4126    -2.0635     0.0045 C.3     
   5 C5            -2.8479    -2.5931     0.0153 C.3     
   6 C6            -2.8272    -4.1229     0.0069 C.3     
   7 C7            -4.2626    -4.6525     0.0178 C.3     
   8 C8            -4.2418    -6.1823     0.0094 C.3     
   9 C9            -5.6772    -6.7119     0.0202 C.3     
  10 C10           -5.6565    -8.2417     0.0118 C.3     
  11 C11           -7.0918    -8.7713     0.0227 C.3     
  12 C12           -7.0711   -10.3012     0.0143 C.3     
  13 C13           -8.5065   -10.8307     0.0251 C.3     
  14 C14           -8.4857   -12.3606     0.0167 C.3     
  15 C15           -9.8995   -12.8822     0.0274 C.2     
  16 N16          -10.1278   -14.2105     0.0224 N.am    
  17 O17          -10.8319   -12.1067     0.0405 O.2     
  18 C18          -11.5022   -14.7176     0.0328 C.3     
  19 C19          -11.4818   -16.2244     0.0246 C.2     
  20 N20          -12.6397   -16.9141     0.0319 N.am    
  21 O21          -10.4234   -16.8164     0.0113 O.2     
  22 C22          -12.6198   -18.3789     0.0239 C.3     
  23 C23          -14.0336   -18.9006     0.0345 C.2     
  24 N24          -14.2619   -20.2288     0.0296 N.am    
  25 O25          -14.9660   -18.1251     0.0476 O.2     
  26 C26          -15.6363   -20.7359     0.0400 C.3     
  27 C27          -15.6677   -22.1146    -0.5676 C.2     
  28 O28          -14.6429   -22.6236    -0.9697 O.2     
  29 N29          -16.8345   -22.7821    -0.6641 N.am    
  30 C30          -16.1445   -20.8022     1.4816 C.3     
  31 C31          -16.2295   -19.4087     2.0489 C.ar    
  32 C32          -17.3963   -18.6790     1.9152 C.ar    
  33 C33          -16.8650   -24.1224    -1.2548 C.3     
  34 C34          -16.5289   -25.1603    -0.1821 C.3     
  35 C35          -18.2404   -24.3973    -1.8061 C.2     
  36 O36          -19.1095   -23.5563    -1.7147 O.2     
  37 N37          -18.5045   -25.5775    -2.4008 N.am    
  38 C38          -15.0873   -24.9583     0.2890 C.3     
  39 C39          -14.7562   -25.9805     1.3456 C.2     
  40 N40          -13.5323   -25.9942     1.9100 N.am    
  41 C41          -19.8415   -25.8447    -2.9368 C.3     
  42 C42          -19.9467   -25.2745    -4.3527 C.3     
  43 C43          -20.0793   -27.3323    -2.9754 C.2     
  44 O44          -19.2168   -28.0943    -2.5928 O.2     
  45 N45          -21.2503   -27.8159    -3.4350 N.am    
  46 C46          -21.4814   -29.2621    -3.4724 C.3     
  47 C47          -22.9850   -29.5399    -3.4170 C.3     
  48 C48          -20.9038   -29.8375    -4.7671 C.3     
  49 C49          -23.5399   -29.0761    -2.0688 C.3     
  50 C50          -25.0435   -29.3539    -2.0134 C.3     
  51 C51          -17.4766   -17.4013     2.4344 C.ar    
  52 C52          -16.3853   -16.8505     3.0903 C.ar    
  53 C53          -15.2157   -17.5846     3.2231 C.ar    
  54 C54          -15.1423   -18.8640     2.7071 C.ar    
  55 O55          -16.4617   -15.5936     3.6015 O.3     
  56 O56          -15.5910   -26.7909     1.6881 O.2     
  57 C57          -25.5985   -28.8901    -0.6651 C.3     
  58 N58          -27.0421   -29.1568    -0.6119 N.3     
  59 C59            1.4167     2.0553    -0.0004 C.3     
  60 H60           -9.3821   -14.8307     0.0120 H       
  61 C61          -19.8295   -23.7500    -4.2987 C.3     
  62 C62          -19.9346   -23.1799    -5.7146 C.3     
  63 C63          -19.8174   -21.6553    -5.6605 C.3     
  64 N64          -19.9183   -21.1079    -7.0200 N.3     
  65 H65           -0.5459     1.8868    -0.8726 H       
  66 H66           -0.5289     1.8773     0.9072 H       
  67 H67            0.5123    -0.3556    -0.8948 H       
  68 H68            0.5293    -0.3651     0.8851 H       
  69 H69           -1.9435    -0.1821     0.9097 H       
  70 H70           -1.9605    -0.1726    -0.8702 H       
  71 H71           -0.9024    -2.4150    -0.8923 H       
  72 H72           -0.8854    -2.4246     0.8875 H       
  73 H73           -3.3581    -2.2415     0.9121 H       
  74 H74           -3.3751    -2.2320    -0.8677 H       
  75 H75           -2.3170    -4.4744    -0.8899 H       
  76 H76           -2.3000    -4.4840     0.8900 H       
  77 H77           -4.7728    -4.3010     0.9146 H       
  78 H78           -4.7898    -4.2914    -0.8653 H       
  79 H79           -3.7316    -6.5338    -0.8874 H       
  80 H80           -3.7146    -6.5434     0.8924 H       
  81 H81           -6.1874    -6.3604     0.9170 H       
  82 H82           -6.2044    -6.3508    -0.8628 H       
  83 H83           -5.1463    -8.5933    -0.8850 H       
  84 H84           -5.1293    -8.6028     0.8949 H       
  85 H85           -7.6020    -8.4198     0.9195 H       
  86 H86           -7.6190    -8.4102    -0.8604 H       
  87 H87           -6.5609   -10.6527    -0.8825 H       
  88 H88           -6.5439   -10.6622     0.8973 H       
  89 H89           -9.0167   -10.4792     0.9219 H       
  90 H90           -9.0337   -10.4697    -0.8579 H       
  91 H91           -7.9755   -12.7121    -0.8801 H       
  92 H92           -7.9586   -12.7217     0.8998 H       
  93 H93          -12.0124   -14.3660     0.9296 H       
  94 H94          -12.0294   -14.3565    -0.8502 H       
  95 H95          -13.4862   -16.4406     0.0425 H       
  96 H96          -12.1096   -18.7305    -0.8729 H       
  97 H97          -12.0926   -18.7400     0.9069 H       
  98 H98          -13.5162   -20.8491     0.0191 H       
  99 H99          -16.2741   -20.0688    -0.5398 H       
 100 H100         -17.6542   -22.3751    -0.3425 H       
 101 H101         -17.1328   -21.2619     1.4977 H       
 102 H102         -15.4570   -21.3977     2.0822 H       
 103 H103         -18.2455   -19.1081     1.4042 H       
 104 H104         -16.1324   -24.1815    -2.0597 H       
 105 H105         -17.2072   -25.0422     0.6630 H       
 106 H106         -16.6381   -26.1617    -0.5985 H       
 107 H107         -17.8094   -26.2501    -2.4740 H       
 108 H108         -14.4090   -25.0764    -0.5560 H       
 109 H109         -14.9781   -23.9569     0.7054 H       
 110 H110         -12.8646   -25.3461     1.6360 H       
 111 H111         -13.3192   -26.6522     2.5901 H       
 112 H112         -20.5895   -25.3736    -2.2990 H       
 113 H113         -19.1430   -25.6791    -4.9679 H       
 114 H114         -20.9088   -25.5499    -4.7848 H       
 115 H115         -21.9401   -27.2064    -3.7409 H       
 116 H116         -20.9937   -29.7302    -2.6174 H       
 117 H117         -23.4842   -28.9990    -4.2209 H       
 118 H118         -23.1614   -30.6091    -3.5342 H       
 119 H119         -19.8327   -29.6396    -4.8066 H       
 120 H120         -21.0758   -30.9135    -4.7950 H       
 121 H121         -21.3916   -29.3693    -5.6221 H       
 122 H122         -23.0407   -29.6170    -1.2649 H       
 123 H123         -23.3635   -28.0069    -1.9516 H       
 124 H124         -25.5428   -28.8130    -2.8173 H       
 125 H125         -25.2200   -30.4231    -2.1305 H       
 126 H126         -18.3881   -16.8317     2.3294 H       
 127 H127         -14.3647   -17.1580     3.7332 H       
 128 H128         -14.2321   -19.4361     2.8105 H       
 129 H129         -16.7777   -15.5590     4.5147 H       
 130 H130         -25.0992   -29.4310     0.1388 H       
 131 H131         -25.4220   -27.8209    -0.5480 H       
 132 H132         -27.2361   -30.1322    -0.7824 H       
 133 H133         -27.4325   -28.8592     0.2696 H       
 134 H134           1.4019     3.1452     0.0056 H       
 135 H135           1.9439     1.6943     0.8826 H       
 136 H136           1.9269     1.7038    -0.8972 H       
 137 H137         -20.6332   -23.3454    -3.6835 H       
 138 H138         -18.8674   -23.4746    -3.8666 H       
 139 H139         -19.1309   -23.5845    -6.3298 H       
 140 H140         -20.8967   -23.4552    -6.1466 H       
 141 H141         -20.6211   -21.2507    -5.0453 H       
 142 H142         -18.8553   -21.3800    -5.2285 H       
 143 H143         -19.8438   -20.1017    -7.0111 H       
 144 H144         -19.2236   -21.5167    -7.6269 H       
 145 C145          15.8664    12.9455    24.5731 C.3     
 146 C146          16.3102    13.7925    25.7674 C.3     
 147 C147          15.1978    14.7306    26.1591 C.2     
 148 N148          16.6295    12.9153    26.8965 N.am    
 149 N149          14.7351    15.6345    25.2729 N.am    
 150 O150          14.7188    14.6722    27.2718 O.2     
 151 C151          13.6537    16.5465    25.6536 C.3     
 152 C152          12.9166    16.9952    24.4181 C.2     
 153 N153          11.8749    17.8437    24.5257 N.am    
 154 O154          13.2608    16.5929    23.3270 O.2     
 155 C155          11.2280    18.3659    23.3195 C.3     
 156 C156          11.9138    19.6380    22.8923 C.2     
 157 O157          12.8508    20.0662    23.5324 O.2     
 158 N158          11.4860    20.2998    21.7990 N.am    
 159 C159          12.1527    21.5364    21.3836 C.3     
 160 C160          11.5587    22.7188    22.1517 C.3     
 161 C161          11.9492    21.7446    19.9050 C.2     
 162 O162          11.3102    20.9393    19.2615 O.2     
 163 N163          12.4773    22.8257    19.2978 N.am    
 164 C164          12.2795    23.0281    17.8604 C.3     
 165 C165          13.3466    22.2532    17.0846 C.3     
 166 C166          12.3922    24.4963    17.5396 C.2     
 167 O167          12.6158    25.2949    18.4246 O.2     
 168 N168          12.2446    24.9218    16.2694 N.am    
 169 C169          12.3542    26.3490    15.9575 C.3     
 170 C170          12.7696    26.5212    14.4951 C.3     
 171 C171          11.0219    27.0162    16.1832 C.2     
 172 O172          10.0742    26.3638    16.5667 O.2     
 173 N173          10.8836    28.3380    15.9588 N.am    
 174 C174          14.1762    25.9538    14.2943 C.3     
 175 C175          14.5916    26.1259    12.8319 C.3     
 176 N176          15.9385    25.5827    12.6396 N.pl3   
 177 C177          16.5264    25.6260    11.3975 C.2     
 178 C178          14.2418    17.7653    26.3675 C.3     
 179 C179          15.0936    17.3014    27.5507 C.3     
 180 O180          15.0562    18.5046    25.4552 O.3     
 181 C181           9.7550    18.6553    23.6155 C.3     
 182 C182           9.0347    17.3609    23.8928 C.2     
 183 O183           7.7057    17.3596    24.0816 O.3     
 184 O184           9.6534    16.3244    23.9452 O.2     
 185 C185          11.8741    22.5695    23.6414 C.3     
 186 C186          11.2801    23.7520    24.4094 C.3     
 187 C187          11.5955    23.6027    25.8991 C.3     
 188 N188          11.0252    24.7380    26.6365 N.3     
 189 C189          13.1566    20.7752    17.3089 C.ar    
 190 C190          12.3423    20.0466    16.4622 C.ar    
 191 C191          13.8011    20.1469    18.3581 C.ar    
 192 C192          13.6268    18.7911    18.5639 C.ar    
 193 C193          12.8077    18.0637    17.7208 C.ar    
 194 C194          12.1680    18.6908    16.6680 C.ar    
 195 N195          17.7904    25.1162    11.2171 N.pl3   
 196 N196          15.8853    26.1503    10.3911 N.2     
 197 C197           9.5884    28.9866    16.1782 C.3     
 198 C198           8.7353    28.8347    14.9452 C.2     
 199 C199           9.8051    30.4731    16.4685 C.3     
 200 C200          10.6264    30.6279    17.7501 C.3     
 201 N201           7.4930    29.3565    14.9168 N.am    
 202 O202           9.1667    28.2430    13.9784 O.2     
 203 C203          10.9694    32.1040    17.9608 C.3     
 204 C204           9.8132    30.1182    18.9417 C.3     
 205 C205          17.8556    12.3645    26.9963 C.2     
 206 O206          18.6945    12.5952    26.1514 O.2     
 207 C207          18.1840    11.4622    28.1577 C.3     
 208 N208          19.5713    10.9884    28.0461 N.am    
 209 C209          19.5638     9.5158    27.9768 C.3     
 210 C210          18.1587     9.1514    27.4358 C.3     
 211 C211          17.2713    10.2180    28.1301 C.3     
 212 C212          20.6682    11.7708    28.0119 C.2     
 213 O213          21.7602    11.2764    27.8274 O.2     
 214 C214          20.5378    13.2599    28.2030 C.3     
 215 C215          20.1046    13.5536    29.6407 C.3     
 216 N216          21.8289    13.9007    27.9414 N.am    
 217 C217          21.8748    15.1910    27.5547 C.2     
 218 C218          19.8145    15.0484    29.7907 C.3     
 219 C219          19.3813    15.3420    31.2284 C.3     
 220 N220          19.1036    16.7733    31.3721 N.pl3   
 221 C221          18.6955    17.2760    32.5849 C.2     
 222 N222          18.5558    16.4793    33.6069 N.2     
 223 N223          18.4348    18.6192    32.7196 N.pl3   
 224 O224          20.8472    15.8216    27.4233 O.2     
 225 C225          23.2030    15.8502    27.2856 C.3     
 226 C226          23.6956    15.4548    25.8921 C.3     
 227 N227          23.0487    17.3055    27.3543 N.am    
 228 C228          22.1984    17.9332    26.5181 C.2     
 229 O229          21.5608    17.2933    25.7088 O.2     
 230 C230          22.0397    19.4301    26.5888 C.3     
 231 C231          25.0988    16.0216    25.6674 C.3     
 232 C232          26.0766    15.3648    26.6438 C.3     
 233 C233          25.5413    15.7335    24.2313 C.3     
 234 C234          17.0190    12.0955    24.1040 C.2     
 235 C235          17.0092    10.7561    23.9648 C.2     
 236 N236          18.2515    10.3953    23.5174 N.pl3   
 237 C237          18.9777    11.5277    23.3988 C.2     
 238 N238          18.2325    12.5410    23.7465 N.2     
 239 H239          15.0384    12.3024    24.8715 H       
 240 H240          15.5444    13.6000    23.7631 H       
 241 H241          17.1936    14.3701    25.4950 H       
 242 H242          15.9585    12.7308    27.5722 H       
 243 H243          15.1182    15.6813    24.3830 H       
 244 H244          12.9631    16.0322    26.3220 H       
 245 H245          11.5536    18.1085    25.4018 H       
 246 H246          11.2999    17.6283    22.5203 H       
 247 H247          10.7366    19.9573    21.2871 H       
 248 H248          13.2191    21.4635    21.5969 H       
 249 H249          11.9912    23.6477    21.7800 H       
 250 H250          10.4782    22.7386    22.0093 H       
 251 H251          12.9884    23.4697    19.8124 H       
 252 H252          11.2906    22.6689    17.5756 H       
 253 H253          13.2548    22.4741    16.0212 H       
 254 H254          14.3360    22.5494    17.4331 H       
 255 H255          12.0658    24.2831    15.5616 H       
 256 H256          13.1034    26.8057    16.6042 H       
 257 H257          12.0679    25.9886    13.8530 H       
 258 H258          12.7650    27.5805    14.2384 H       
 259 H259          11.6415    28.8598    15.6521 H       
 260 H260          14.8778    26.4864    14.9364 H       
 261 H261          14.1808    24.8945    14.5511 H       
 262 H262          13.8900    25.5934    12.1898 H       
 263 H263          14.5870    27.1853    12.5751 H       
 264 H264          16.4156    25.1925    13.3887 H       
 265 H265          13.4329    18.4001    26.7289 H       
 266 H266          15.5127    18.1696    28.0593 H       
 267 H267          14.4725    16.7374    28.2466 H       
 268 H268          15.9026    16.6665    27.1893 H       
 269 H269          15.4626    19.2928    25.8406 H       
 270 H270           9.6805    19.3064    24.4864 H       
 271 H271           9.3012    19.1465    22.7547 H       
 272 H272           7.2880    16.5051    24.2564 H       
 273 H273          11.4415    21.6407    24.0131 H       
 274 H274          12.9546    22.5497    23.7838 H       
 275 H275          11.7127    24.6809    24.0377 H       
 276 H276          10.1996    23.7718    24.2670 H       
 277 H277          11.1629    22.6738    26.2708 H       
 278 H278          12.6760    23.5829    26.0415 H       
 279 H279          10.0333    24.8166    26.4688 H       
 280 H280          11.2201    24.6626    27.6237 H       
 281 H281          11.8420    20.5367    15.6401 H       
 282 H282          14.4411    20.7151    19.0168 H       
 283 H283          14.1310    18.3000    19.3831 H       
 284 H284          12.6718    17.0044    17.8813 H       
 285 H285          11.5280    18.1225    16.0093 H       
 286 H286          18.2675    24.7260    11.9662 H       
 287 H287          18.2052    25.1467    10.3408 H       
 288 H288          16.3001    26.1808     9.5147 H       
 289 H289           9.0874    28.5200    17.0263 H       
 290 H290          10.3399    30.9316    15.6367 H       
 291 H291           8.8397    30.9632    16.5942 H       
 292 H292          11.5464    30.0498    17.6642 H       
 293 H293           7.1480    29.8298    15.6901 H       
 294 H294           6.9439    29.2588    14.1232 H       
 295 H295          10.0534    32.6687    18.1346 H       
 296 H296          11.6275    32.2045    18.8239 H       
 297 H297          11.4717    32.4905    17.0739 H       
 298 H298           9.5688    29.0666    18.7916 H       
 299 H299          10.3982    30.2286    19.8547 H       
 300 H300           8.8931    30.6964    19.0276 H       
 301 H301          18.0508    12.0017    29.0954 H       
 302 H302          20.3365     9.1642    27.2931 H       
 303 H303          19.7109     9.0886    28.9688 H       
 304 H304          18.1185     9.2554    26.3515 H       
 305 H305          17.8714     8.1452    27.7411 H       
 306 H306          17.0140     9.9060    29.1423 H       
 307 H307          16.3724    10.4120    27.5450 H       
 308 H308          19.7913    13.6510    27.5116 H       
 309 H309          19.2048    12.9838    29.8727 H       
 310 H310          20.9025    13.2678    30.3262 H       
 311 H311          22.6508    13.3964    28.0466 H       
 312 H312          20.7143    15.6182    29.5588 H       
 313 H313          19.0166    15.3342    29.1053 H       
 314 H314          18.4816    14.7722    31.4604 H       
 315 H315          20.1792    15.0562    31.9139 H       
 316 H316          19.2075    17.3662    30.6115 H       
 317 H317          18.2679    16.8340    34.4626 H       
 318 H318          18.5388    19.2121    31.9591 H       
 319 H319          18.1469    18.9739    33.5753 H       
 320 H320          23.9275    15.5260    28.0327 H       
 321 H321          23.7256    14.3681    25.8121 H       
 322 H322          23.0169    15.8559    25.1394 H       
 323 H323          23.5586    17.8172    28.0016 H       
 324 H324          22.7587    19.9037    25.9203 H       
 325 H325          21.0285    19.7030    26.2869 H       
 326 H326          22.2171    19.7665    27.6103 H       
 327 H327          25.0867    17.0986    25.8346 H       
 328 H328          27.0763    15.7686    26.4837 H       
 329 H329          25.7614    15.5701    27.6668 H       
 330 H330          26.0887    14.2878    26.4765 H       
 331 H331          24.8447    16.2014    23.5357 H       
 332 H332          26.5410    16.1373    24.0712 H       
 333 H333          25.5534    14.6565    24.0640 H       
 334 H334          16.1806    10.0937    24.1675 H       
 335 H335          18.5538     9.4946    23.3221 H       
 336 H336          20.0039    11.5855    23.0671 H       
@<TRIPOS>BOND
   1    1    2 1
   2    1   59 1
   3    1   65 1
   4    1   66 1
   5    2    3 1
   6    2   67 1
   7    2   68 1
   8    3    4 1
   9    3   69 1
  10    3   70 1
  11    4    5 1
  12    4   71 1
  13    4   72 1
  14    5    6 1
  15    5   73 1
  16    5   74 1
  17    6    7 1
  18    6   75 1
  19    6   76 1
  20    7    8 1
  21    7   77 1
  22    7   78 1
  23    8    9 1
  24    8   79 1
  25    8   80 1
  26    9   10 1
  27    9   81 1
  28    9   82 1
  29   10   11 1
  30   10   83 1
  31   10   84 1
  32   11   12 1
  33   11   85 1
  34   11   86 1
  35   12   13 1
  36   12   87 1
  37   12   88 1
  38   13   14 1
  39   13   89 1
  40   13   90 1
  41   14   15 1
  42   14   91 1
  43   14   92 1
  44   15   16 am
  45   15   17 2
  46   16   18 1
  47   16   60 1
  48   18   19 1
  49   18   93 1
  50   18   94 1
  51   19   20 am
  52   19   21 2
  53   20   22 1
  54   20   95 1
  55   22   23 1
  56   22   96 1
  57   22   97 1
  58   23   24 am
  59   23   25 2
  60   24   26 1
  61   24   98 1
  62   26   27 1
  63   26   30 1
  64   26   99 1
  65   27   28 2
  66   27   29 am
  67   29   33 1
  68   29  100 1
  69   30   31 1
  70   30  101 1
  71   30  102 1
  72   31   32 ar
  73   31   54 ar
  74   32   51 ar
  75   32  103 1
  76   33   34 1
  77   33   35 1
  78   33  104 1
  79   34   38 1
  80   34  105 1
  81   34  106 1
  82   35   36 2
  83   35   37 am
  84   37   41 1
  85   37  107 1
  86   38   39 1
  87   38  108 1
  88   38  109 1
  89   39   40 am
  90   39   56 2
  91   40  110 1
  92   40  111 1
  93   41   42 1
  94   41   43 1
  95   41  112 1
  96   42   61 1
  97   42  113 1
  98   42  114 1
  99   43   44 2
 100   43   45 am
 101   45   46 1
 102   45  115 1
 103   46   47 1
 104   46   48 1
 105   46  116 1
 106   47   49 1
 107   47  117 1
 108   47  118 1
 109   48  119 1
 110   48  120 1
 111   48  121 1
 112   49   50 1
 113   49  122 1
 114   49  123 1
 115   50   57 1
 116   50  124 1
 117   50  125 1
 118   51   52 ar
 119   51  126 1
 120   52   53 ar
 121   52   55 1
 122   53   54 ar
 123   53  127 1
 124   54  128 1
 125   55  129 1
 126   57   58 1
 127   57  130 1
 128   57  131 1
 129   58  132 1
 130   58  133 1
 131   59  134 1
 132   59  135 1
 133   59  136 1
 134   61   62 1
 135   61  137 1
 136   61  138 1
 137   62   63 1
 138   62  139 1
 139   62  140 1
 140   63   64 1
 141   63  141 1
 142   63  142 1
 143   64  143 1
 144   64  144 1
 145  145  234 1
 146  145  146 1
 147  145  239 1
 148  145  240 1
 149  146  147 1
 150  146  148 1
 151  146  241 1
 152  147  149 am
 153  147  150 2
 154  148  205 am
 155  148  242 1
 156  149  151 1
 157  149  243 1
 158  151  152 1
 159  151  178 1
 160  151  244 1
 161  152  153 am
 162  152  154 2
 163  153  155 1
 164  153  245 1
 165  155  156 1
 166  155  181 1
 167  155  246 1
 168  156  157 2
 169  156  158 am
 170  158  159 1
 171  158  247 1
 172  159  160 1
 173  159  161 1
 174  159  248 1
 175  160  185 1
 176  160  249 1
 177  160  250 1
 178  161  162 2
 179  161  163 am
 180  163  164 1
 181  163  251 1
 182  164  165 1
 183  164  166 1
 184  164  252 1
 185  165  189 1
 186  165  253 1
 187  165  254 1
 188  166  167 2
 189  166  168 am
 190  168  169 1
 191  168  255 1
 192  169  170 1
 193  169  171 1
 194  169  256 1
 195  170  174 1
 196  170  257 1
 197  170  258 1
 198  171  172 2
 199  171  173 am
 200  173  197 1
 201  173  259 1
 202  174  175 1
 203  174  260 1
 204  174  261 1
 205  175  176 1
 206  175  262 1
 207  175  263 1
 208  176  177 1
 209  176  264 1
 210  177  195 1
 211  177  196 2
 212  178  179 1
 213  178  180 1
 214  178  265 1
 215  179  266 1
 216  179  267 1
 217  179  268 1
 218  180  269 1
 219  181  182 1
 220  181  270 1
 221  181  271 1
 222  182  183 1
 223  182  184 2
 224  183  272 1
 225  185  186 1
 226  185  273 1
 227  185  274 1
 228  186  187 1
 229  186  275 1
 230  186  276 1
 231  187  188 1
 232  187  277 1
 233  187  278 1
 234  188  279 1
 235  188  280 1
 236  189  190 ar
 237  189  191 ar
 238  190  194 ar
 239  190  281 1
 240  191  192 ar
 241  191  282 1
 242  192  193 ar
 243  192  283 1
 244  193  194 ar
 245  193  284 1
 246  194  285 1
 247  195  286 1
 248  195  287 1
 249  196  288 1
 250  197  198 1
 251  197  199 1
 252  197  289 1
 253  198  201 am
 254  198  202 2
 255  199  200 1
 256  199  290 1
 257  199  291 1
 258  200  203 1
 259  200  204 1
 260  200  292 1
 261  201  293 1
 262  201  294 1
 263  203  295 1
 264  203  296 1
 265  203  297 1
 266  204  298 1
 267  204  299 1
 268  204  300 1
 269  205  206 2
 270  205  207 1
 271  207  208 1
 272  207  211 1
 273  207  301 1
 274  208  209 1
 275  208  212 am
 276  209  210 1
 277  209  302 1
 278  209  303 1
 279  210  211 1
 280  210  304 1
 281  210  305 1
 282  211  306 1
 283  211  307 1
 284  212  213 2
 285  212  214 1
 286  214  215 1
 287  214  216 1
 288  214  308 1
 289  215  218 1
 290  215  309 1
 291  215  310 1
 292  216  217 am
 293  216  311 1
 294  217  224 2
 295  217  225 1
 296  218  219 1
 297  218  312 1
 298  218  313 1
 299  219  220 1
 300  219  314 1
 301  219  315 1
 302  220  221 1
 303  220  316 1
 304  221  222 2
 305  221  223 1
 306  222  317 1
 307  223  318 1
 308  223  319 1
 309  225  226 1
 310  225  227 1
 311  225  320 1
 312  226  231 1
 313  226  321 1
 314  226  322 1
 315  227  228 am
 316  227  323 1
 317  228  229 2
 318  228  230 1
 319  230  324 1
 320  230  325 1
 321  230  326 1
 322  231  232 1
 323  231  233 1
 324  231  327 1
 325  232  328 1
 326  232  329 1
 327  232  330 1
 328  233  331 1
 329  233  332 1
 330  233  333 1
 331  234  235 2
 332  234  238 1
 333  235  236 1
 334  235  334 1
 335  236  237 1
 336  236  335 1
 337  237  238 2
 338  237  336 1

#	End of record

