#	Name: ASD01910697
#	Creating user name:	WinNT
#	Creation time:	15. 06. 2019 19:56

#	Modifying user name:	WinNT
#	Modification time:	15. 06. 2019 19:56

#	Program:	/corina/corina34_cracker 3.40 0067  02.08.2006

@<TRIPOS>MOLECULE
ASD01910697
  56   59    0    0    0
SMALL
NO_CHARGES


@<TRIPOS>ATOM
   1 C1            12.4810    -1.9059     4.2721 C.ar    
   2 C2            13.1009    -2.0697     3.0406 C.ar    
   3 C3            12.3916    -1.7501     1.8967 C.ar    
   4 C4            11.0887    -1.2782     2.0183 C.ar    
   5 N5            10.5324    -1.1353     3.2115 N.ar    
   6 C6            11.1848    -1.4326     4.3191 C.ar    
   7 N7            10.3645    -0.9533     0.8772 N.3     
   8 C8             9.0190    -0.4775     1.2253 C.3     
   9 C9             8.3208     0.0388    -0.0373 C.3     
  10 N10            8.3616    -1.0183    -1.0591 N.am    
  11 C11            9.6585    -1.6412    -1.3646 C.3     
  12 C12           10.3040    -2.0914    -0.0497 C.3     
  13 C13            7.2404    -1.4055    -1.6989 C.2     
  14 C14            7.3210    -2.3785    -2.8064 C.ar    
  15 O15            6.1625    -0.9536    -1.3641 O.2     
  16 C16            6.3464    -3.3726    -2.9362 C.ar    
  17 C17            6.4171    -4.2838    -3.9679 C.ar    
  18 C18            7.4557    -4.2217    -4.8854 C.ar    
  19 C19            8.4406    -3.2276    -4.7653 C.ar    
  20 C20            8.3661    -2.3027    -3.7265 C.ar    
  21 C21            9.5140    -3.1615    -5.7108 C.1     
  22 C22           10.3941    -3.1073    -6.4859 C.1     
  23 C23           11.4675    -3.0412    -7.4314 C.ar    
  24 O24            7.5203    -5.1213    -5.8984 O.3     
  25 C25            6.4856    -6.1050    -5.9594 C.3     
  26 C26           12.4477    -2.0526    -7.3127 C.ar    
  27 C27           13.4787    -1.9951    -8.2273 C.ar    
  28 C28           13.5434    -2.9130    -9.2605 C.ar    
  29 C29           12.5761    -3.8951    -9.3845 C.ar    
  30 C30           11.5429    -3.9688    -8.4742 C.ar    
  31 C31           14.5369    -0.9296    -8.1010 C.3     
  32 H32           13.0058    -2.1505     5.1838 H       
  33 H33           14.1142    -2.4379     2.9772 H       
  34 H34           12.8433    -1.8651     0.9225 H       
  35 H35           10.6989    -1.3034     5.2749 H       
  36 H36            8.4416    -1.2985     1.6504 H       
  37 H37            9.0958     0.3293     1.9542 H       
  38 H38            7.2844     0.2861     0.1926 H       
  39 H39            8.8385     0.9244    -0.4057 H       
  40 H40            9.5065    -2.5046    -2.0123 H       
  41 H41           10.3047    -0.9170    -1.8607 H       
  42 H42           11.3127    -2.4550    -0.2456 H       
  43 H43            9.7087    -2.8899     0.3931 H       
  44 H44            5.5353    -3.4270    -2.2252 H       
  45 H45            5.6612    -5.0493    -4.0622 H       
  46 H46            9.1202    -1.5358    -3.6284 H       
  47 H47            6.4906    -6.6950    -5.0429 H       
  48 H48            5.5202    -5.6106    -6.0679 H       
  49 H49            6.6566    -6.7597    -6.8139 H       
  50 H50           12.3980    -1.3350    -6.5071 H       
  51 H51           14.3526    -2.8627    -9.9741 H       
  52 H52           12.6331    -4.6082   -10.1936 H       
  53 H53           10.7888    -4.7356    -8.5721 H       
  54 H54           15.3520    -1.2990    -7.4787 H       
  55 H55           14.9200    -0.6789    -9.0902 H       
  56 H56           14.1042    -0.0403    -7.6428 H       
@<TRIPOS>BOND
   1    1    2 ar
   2    1    6 ar
   3    1   32 1
   4    2    3 ar
   5    2   33 1
   6    3    4 ar
   7    3   34 1
   8    4    5 ar
   9    4    7 1
  10    5    6 ar
  11    6   35 1
  12    7    8 1
  13    7   12 1
  14    8    9 1
  15    8   36 1
  16    8   37 1
  17    9   10 1
  18    9   38 1
  19    9   39 1
  20   10   11 1
  21   10   13 am
  22   11   12 1
  23   11   40 1
  24   11   41 1
  25   12   42 1
  26   12   43 1
  27   13   14 1
  28   13   15 2
  29   14   16 ar
  30   14   20 ar
  31   16   17 ar
  32   16   44 1
  33   17   18 ar
  34   17   45 1
  35   18   19 ar
  36   18   24 1
  37   19   20 ar
  38   19   21 1
  39   20   46 1
  40   21   22 3
  41   22   23 1
  42   23   26 ar
  43   23   30 ar
  44   24   25 1
  45   25   47 1
  46   25   48 1
  47   25   49 1
  48   26   27 ar
  49   26   50 1
  50   27   28 ar
  51   27   31 1
  52   28   29 ar
  53   28   51 1
  54   29   30 ar
  55   29   52 1
  56   30   53 1
  57   31   54 1
  58   31   55 1
  59   31   56 1

#	End of record

