#	Name: ASD00570018
#	Creating user name:	WinNT
#	Creation time:	15. 06. 2019 18:36

#	Modifying user name:	WinNT
#	Modification time:	15. 06. 2019 18:36

#	Program:	/corina/corina34_cracker 3.40 0067  02.08.2006

@<TRIPOS>MOLECULE
ASD00570018
  52   54    0    0    0
SMALL
NO_CHARGES


@<TRIPOS>ATOM
   1 C1            -2.2196    -6.2385     2.5945 C.ar    
   2 N2            -4.6424    -6.4729     2.6518 N.am    
   3 O3            -5.4142    -8.5491     2.8169 O.2     
   4 C4            -3.3793    -6.8602     3.1038 C.ar    
   5 N5            -6.8794    -6.9874     2.2270 N.am    
   6 O6            -9.2758    -6.0645     1.5298 O.2     
   7 C7            -0.9483    -6.6479     3.0673 C.ar    
   8 N8            -7.1364    -5.6389     1.9471 N.am    
   9 O9           -12.3304    -2.4540    -0.1793 O.2     
  10 C10           -2.3014    -5.2268     1.6249 C.ar    
  11 N11          -11.5436    -1.6511     0.2895 N.pl3   
  12 O12          -11.8777    -0.4901     0.4442 O.2     
  13 C13           -3.2541    -7.8535     4.0509 C.ar    
  14 C14           -0.8643    -7.6648     4.0333 C.ar    
  15 C15            0.2070    -6.0284     2.5598 C.ar    
  16 C16           -1.1613    -4.6492     1.1556 C.ar    
  17 C17           -2.0000    -8.2473     4.5077 C.ar    
  18 C18           -5.6373    -7.3788     2.5740 C.2     
  19 C19            0.0893    -5.0470     1.6243 C.ar    
  20 C20           -8.3785    -5.2475     1.6000 C.2     
  21 C21           -8.6497    -3.8245     1.3047 C.ar    
  22 C22           -9.9347    -3.4159     0.9450 C.ar    
  23 C23           -7.6228    -2.8828     1.3900 C.ar    
  24 C24          -10.1812    -2.0863     0.6711 C.ar    
  25 C25           -7.8826    -1.5566     1.1136 C.ar    
  26 C26           -9.1578    -1.1590     0.7520 C.ar    
  27 C27           -9.4342     0.2915     0.4509 C.3     
  28 C28           -8.1109     1.0529     0.3512 C.3     
  29 C29          -10.1877     0.4024    -0.8761 C.3     
  30 C30          -10.2848     0.8919     1.5720 C.3     
  31 H31           -4.8038    -5.5518     2.3939 H       
  32 H32           -7.5954    -7.6394     2.1709 H       
  33 H33           -6.4204    -4.9869     2.0031 H       
  34 H34           -3.2640    -4.9084     1.2527 H       
  35 H35           -4.1395    -8.3315     4.4433 H       
  36 H36            0.1003    -7.9836     4.3999 H       
  37 H37            1.1830    -6.3295     2.9107 H       
  38 H38           -1.2271    -3.8710     0.4096 H       
  39 H39           -1.9262    -9.0279     5.2504 H       
  40 H40            0.9785    -4.5724     1.2363 H       
  41 H41          -10.7344    -4.1390     0.8809 H       
  42 H42           -6.6271    -3.1918     1.6721 H       
  43 H43           -7.0890    -0.8270     1.1792 H       
  44 H44           -7.5049     0.6251    -0.4475 H       
  45 H45           -8.3108     2.1020     0.1335 H       
  46 H46           -7.5741     0.9739     1.2966 H       
  47 H47          -10.8664    -0.4441    -0.9804 H       
  48 H48          -10.7591     1.3304    -0.8930 H       
  49 H49           -9.4743     0.3999    -1.7002 H       
  50 H50           -9.6366     1.2156     2.3864 H       
  51 H51          -10.8406     1.7474     1.1881 H       
  52 H52          -10.9833     0.1406     1.9403 H       
@<TRIPOS>BOND
   1    1    4 ar
   2    1    7 ar
   3    1   10 ar
   4    2    4 1
   5    2   18 am
   6    2   31 1
   7    3   18 2
   8    4   13 ar
   9    5    8 1
  10    5   18 am
  11    5   32 1
  12    6   20 2
  13    7   14 ar
  14    7   15 ar
  15    8   20 am
  16    8   33 1
  17    9   11 2
  18   10   16 ar
  19   10   34 1
  20   11   12 2
  21   11   24 1
  22   13   17 ar
  23   13   35 1
  24   14   17 ar
  25   14   36 1
  26   15   19 ar
  27   15   37 1
  28   16   19 ar
  29   16   38 1
  30   17   39 1
  31   19   40 1
  32   20   21 1
  33   21   22 ar
  34   21   23 ar
  35   22   24 ar
  36   22   41 1
  37   23   25 ar
  38   23   42 1
  39   24   26 ar
  40   25   26 ar
  41   25   43 1
  42   26   27 1
  43   27   28 1
  44   27   29 1
  45   27   30 1
  46   28   44 1
  47   28   45 1
  48   28   46 1
  49   29   47 1
  50   29   48 1
  51   29   49 1
  52   30   50 1
  53   30   51 1
  54   30   52 1

#	End of record

