#	Name: ASD07932194
#	Creating user name:	WinNT
#	Creation time:	15. 06. 2019 21:14

#	Modifying user name:	WinNT
#	Modification time:	15. 06. 2019 21:14

#	Program:	/corina/corina34_cracker 3.40 0067  02.08.2006

@<TRIPOS>MOLECULE
ASD07932194
  69   71    0    0    0
SMALL
NO_CHARGES


@<TRIPOS>ATOM
   1 Cl1            0.0000     0.0000     0.0000 Cl      
   2 H2             0.0000     1.3700     0.0000 H       
   3 Cl3            5.0000     6.3700     5.0000 Cl      
   4 H4             5.0000     7.7400     5.0000 H       
   5 C5            10.9474    20.0700    19.3104 C.ar    
   6 C6            10.9662    18.6770    19.3027 C.ar    
   7 C7            12.1436    17.9925    19.2883 C.ar    
   8 C8            13.3576    18.6967    19.2805 C.ar    
   9 C9            13.3445    20.1161    19.2878 C.ar    
  10 C10           12.1050    20.7888    19.3032 C.ar    
  11 C11           14.5935    18.0226    19.2662 C.ar    
  12 C12           15.7361    18.7689    19.2597 C.ar    
  13 C13           15.6545    20.1696    19.2673 C.ar    
  14 N14           14.4921    20.7925    19.2813 N.ar    
  15 C15           16.9037    20.9678    19.2606 C.2     
  16 N16           16.8431    22.3142    19.2678 N.am    
  17 O17           17.9821    20.4082    19.2486 O.2     
  18 C18           18.0776    23.1029    19.2611 C.3     
  19 C19           17.8088    24.4762    19.8799 C.3     
  20 C20           19.0981    25.2999    19.8730 C.3     
  21 C21           19.5832    25.4757    18.4326 C.3     
  22 C22           19.8520    24.1025    17.8138 C.3     
  23 C23           18.5628    23.2787    17.8208 C.3     
  24 O24           17.3557    24.3120    21.2252 O.3     
  25 C25           14.6531    16.5168    19.2587 C.3     
  26 N26           14.4198    16.0243    17.8945 N.3     
  27 C27           14.7027    14.5854    17.7984 C.3     
  28 C28           14.3722    14.0964    16.3863 C.3     
  29 N29           15.1682    14.8531    15.4099 N.3     
  30 C30           14.8853    16.2919    15.5059 C.3     
  31 C31           15.2157    16.7810    16.9180 C.3     
  32 C32           14.9446    14.3810    14.1023 C.2     
  33 C33           15.5210    14.8593    12.9707 C.2     
  34 F34           12.0656    22.1392    19.3103 F       
  35 C35           14.0913    13.3293    13.7390 C.2     
  36 N36           14.1474    13.1829    12.4398 N.2     
  37 N37           15.0399    14.1328    11.9269 N.pl3   
  38 C38           15.3928    14.3115    10.5163 C.3     
  39 H39           10.0000    20.5885    19.3176 H       
  40 H40           10.0338    18.1320    19.3086 H       
  41 H41           12.1431    16.9125    19.2832 H       
  42 H42           16.7004    18.2827    19.2490 H       
  43 H43           15.9822    22.7609    19.2774 H       
  44 H44           18.8421    22.5863    19.8415 H       
  45 H45           17.0444    24.9928    19.2996 H       
  46 H46           18.9065    26.2782    20.3138 H       
  47 H47           19.8625    24.7833    20.4533 H       
  48 H48           18.8188    25.9924    17.8523 H       
  49 H49           20.5017    26.0626    18.4277 H       
  50 H50           20.1977    24.2278    16.7877 H       
  51 H51           20.6165    23.5858    18.3942 H       
  52 H52           18.7543    22.3004    17.3799 H       
  53 H53           17.7983    23.7954    17.2404 H       
  54 H54           17.1654    25.1436    21.6804 H       
  55 H55           15.6356    16.1903    19.5997 H       
  56 H56           13.8869    16.1195    19.9244 H       
  57 H57           15.7576    14.4075    18.0073 H       
  58 H58           14.0923    14.0456    18.5224 H       
  59 H59           14.6087    13.0355    16.3042 H       
  60 H60           13.3115    14.2493    16.1875 H       
  61 H61           15.4957    16.8317    14.7820 H       
  62 H62           13.8304    16.4698    15.2971 H       
  63 H63           14.9793    17.8418    17.0001 H       
  64 H64           16.2765    16.6280    17.1169 H       
  65 H65           16.2320    15.6700    12.9102 H       
  66 H66           13.4907    12.7400    14.4161 H       
  67 H67           14.7067    15.0234    10.0575 H       
  68 H68           16.4123    14.6900    10.4420 H       
  69 H69           15.3221    13.3542    10.0000 H       
@<TRIPOS>BOND
   1    1    2 1
   2    3    4 1
   3    5    6 ar
   4    5   10 ar
   5    5   39 1
   6    6    7 ar
   7    6   40 1
   8    7    8 ar
   9    7   41 1
  10    8    9 ar
  11    8   11 ar
  12    9   10 ar
  13    9   14 ar
  14   10   34 1
  15   11   12 ar
  16   11   25 1
  17   12   13 ar
  18   12   42 1
  19   13   14 ar
  20   13   15 1
  21   15   16 am
  22   15   17 2
  23   16   18 1
  24   16   43 1
  25   18   19 1
  26   18   23 1
  27   18   44 1
  28   19   20 1
  29   19   24 1
  30   19   45 1
  31   20   21 1
  32   20   46 1
  33   20   47 1
  34   21   22 1
  35   21   48 1
  36   21   49 1
  37   22   23 1
  38   22   50 1
  39   22   51 1
  40   23   52 1
  41   23   53 1
  42   24   54 1
  43   25   26 1
  44   25   55 1
  45   25   56 1
  46   26   27 1
  47   26   31 1
  48   27   28 1
  49   27   57 1
  50   27   58 1
  51   28   29 1
  52   28   59 1
  53   28   60 1
  54   29   30 1
  55   29   32 1
  56   30   31 1
  57   30   61 1
  58   30   62 1
  59   31   63 1
  60   31   64 1
  61   32   33 2
  62   32   35 1
  63   33   37 1
  64   33   65 1
  65   35   36 2
  66   35   66 1
  67   36   37 1
  68   37   38 1
  69   38   67 1
  70   38   68 1
  71   38   69 1

#	End of record

