#	Name: ASD04880045
#	Creating user name:	WinNT
#	Creation time:	15. 06. 2019 20:52

#	Modifying user name:	WinNT
#	Modification time:	15. 06. 2019 20:52

#	Program:	/corina/corina34_cracker 3.40 0067  02.08.2006

@<TRIPOS>MOLECULE
ASD04880045
  38   40    0    0    0
SMALL
NO_CHARGES


@<TRIPOS>ATOM
   1 C1            -0.0144     1.2121     0.0087 C.2     
   2 O2             0.0624    -0.0016    -0.0136 O.2     
   3 C3             1.2158     2.0312    -0.0196 C.ar    
   4 C4             1.1308     3.4194    -0.1379 C.ar    
   5 C5             2.2848     4.1788    -0.1633 C.ar    
   6 C6             3.5235     3.5639    -0.0720 C.ar    
   7 C7             3.6123     2.1887     0.0449 C.ar    
   8 C8             2.4668     1.4201     0.0776 C.ar    
   9 F9             2.2056     5.5226    -0.2777 F       
  10 N10           -1.2213     1.8103     0.0536 N.am    
  11 N11           -1.4434     3.1786     0.1947 N.2     
  12 C12           -2.6840     3.5116     0.2111 C.2     
  13 C13           -3.5421     2.2750     0.0677 C.3     
  14 C14           -2.5205     1.1259    -0.0446 C.3     
  15 N15           -3.1613     4.8024     0.3405 N.pl3   
  16 C16           -2.2236     5.9202     0.4726 C.3     
  17 C17           -2.9935     7.2096     0.5976 C.ar    
  18 C18           -3.3640     7.6745     1.8458 C.ar    
  19 C19           -4.0709     8.8584     1.9614 C.ar    
  20 C20           -4.4072     9.5774     0.8241 C.ar    
  21 C21           -4.0350     9.1094    -0.4237 C.ar    
  22 C22           -3.3238     7.9291    -0.5354 C.ar    
  23 F23           -5.0978    10.7333     0.9344 F       
  24 F24           -4.4336     9.3131     3.1808 F       
  25 H25            0.1656     3.8986    -0.2098 H       
  26 H26            4.4232     4.1611    -0.0925 H       
  27 H27            4.5806     1.7156     0.1153 H       
  28 H28            2.5383     0.3467     0.1735 H       
  29 H29           -4.1749     2.1447     0.9455 H       
  30 H30           -4.1481     2.3328    -0.8366 H       
  31 H31           -2.6152     0.6181    -1.0045 H       
  32 H32           -2.6463     0.4214     0.7775 H       
  33 H33           -4.1170     4.9680     0.3439 H       
  34 H34           -1.6094     5.7762     1.3615 H       
  35 H35           -1.5832     5.9633    -0.4084 H       
  36 H36           -3.1018     7.1135     2.7307 H       
  37 H37           -4.2966     9.6682    -1.3101 H       
  38 H38           -3.0297     7.5666    -1.5094 H       
@<TRIPOS>BOND
   1    1    2 2
   2    1    3 1
   3    1   10 am
   4    3    4 ar
   5    3    8 ar
   6    4    5 ar
   7    4   25 1
   8    5    6 ar
   9    5    9 1
  10    6    7 ar
  11    6   26 1
  12    7    8 ar
  13    7   27 1
  14    8   28 1
  15   10   11 1
  16   10   14 1
  17   11   12 2
  18   12   13 1
  19   12   15 1
  20   13   14 1
  21   13   29 1
  22   13   30 1
  23   14   31 1
  24   14   32 1
  25   15   16 1
  26   15   33 1
  27   16   17 1
  28   16   34 1
  29   16   35 1
  30   17   18 ar
  31   17   22 ar
  32   18   19 ar
  33   18   36 1
  34   19   20 ar
  35   19   24 1
  36   20   21 ar
  37   20   23 1
  38   21   22 ar
  39   21   37 1
  40   22   38 1

#	End of record

