#	Name: ASD01911943
#	Creating user name:	WinNT
#	Creation time:	15. 06. 2019 19:58

#	Modifying user name:	WinNT
#	Modification time:	15. 06. 2019 19:58

#	Program:	/corina/corina34_cracker 3.40 0067  02.08.2006

@<TRIPOS>MOLECULE
ASD01911943
  51   53    0    0    0
SMALL
NO_CHARGES


@<TRIPOS>ATOM
   1 C1             0.2606     1.4389     1.9542 C.3     
   2 C2             0.2428    -0.0599     1.6475 C.3     
   3 C3            -1.2044    -0.5313     1.4912 C.3     
   4 O4            -1.2210    -1.9313     1.2048 O.3     
   5 C5            -2.4380    -2.5120     1.0357 C.ar    
   6 C6            -2.5281    -3.8677     0.7553 C.ar    
   7 C7            -3.7663    -4.4556     0.5838 C.ar    
   8 C8            -4.9154    -3.6941     0.6915 C.ar    
   9 C9            -4.8283    -2.3427     0.9704 C.ar    
  10 C10           -3.5927    -1.7513     1.1489 C.ar    
  11 C11           -6.2649    -4.3381     0.5039 C.3     
  12 C12           -6.7726    -4.8366     1.8324 C.2     
  13 O13           -6.1043    -4.6840     2.8329 O.2     
  14 N14           -7.9692    -5.4520     1.9086 N.am    
  15 C15           -8.4834    -5.9461     3.1949 C.3     
  16 C16           -9.9071    -5.4130     3.3872 C.3     
  17 N17          -10.7209    -5.7658     2.2161 N.3     
  18 C18          -10.2069    -5.1260     0.9978 C.3     
  19 C19           -8.7982    -5.6419     0.7086 C.3     
  20 C20          -12.0513    -5.4443     2.4217 C.ar    
  21 C21          -13.0593    -6.2829     1.9156 C.ar    
  22 C22          -14.3974    -5.9370     2.1361 C.ar    
  23 C23          -14.6691    -4.7802     2.8454 C.ar    
  24 C24          -13.6223    -4.0056     3.3121 C.ar    
  25 N25          -12.3677    -4.3515     3.0985 N.ar    
  26 C26          -12.7234    -7.4692     1.1872 C.1     
  27 N27          -12.4569    -8.4103     0.6095 N.1     
  28 H28            1.2916     1.7747     2.0656 H       
  29 H29           -0.2123     1.9827     1.1365 H       
  30 H30           -0.2847     1.6271     2.8790 H       
  31 H31            0.7881    -0.2481     0.7227 H       
  32 H32            0.7157    -0.6038     2.4653 H       
  33 H33           -1.7497    -0.3432     2.4161 H       
  34 H34           -1.6773     0.0125     0.6735 H       
  35 H35           -1.6308    -4.4628     0.6708 H       
  36 H36           -3.8369    -5.5109     0.3652 H       
  37 H37           -5.7272    -1.7499     1.0533 H       
  38 H38           -3.5252    -0.6956     1.3668 H       
  39 H39           -6.9638    -3.6059     0.0995 H       
  40 H40           -6.1749    -5.1754    -0.1881 H       
  41 H41           -8.4982    -7.0360     3.1890 H       
  42 H42           -7.8467    -5.5902     4.0049 H       
  43 H43          -10.3444    -5.8576     4.2812 H       
  44 H44           -9.8779    -4.3289     3.4966 H       
  45 H45          -10.8615    -5.3624     0.1589 H       
  46 H46          -10.1735    -4.0459     1.1404 H       
  47 H47           -8.3693    -5.0875    -0.1261 H       
  48 H48           -8.8400    -6.7033     0.4639 H       
  49 H49          -15.1983    -6.5573     1.7617 H       
  50 H50          -15.6906    -4.4842     3.0328 H       
  51 H51          -13.8364    -3.1032     3.8655 H       
@<TRIPOS>BOND
   1    1    2 1
   2    1   28 1
   3    1   29 1
   4    1   30 1
   5    2    3 1
   6    2   31 1
   7    2   32 1
   8    3    4 1
   9    3   33 1
  10    3   34 1
  11    4    5 1
  12    5    6 ar
  13    5   10 ar
  14    6    7 ar
  15    6   35 1
  16    7    8 ar
  17    7   36 1
  18    8    9 ar
  19    8   11 1
  20    9   10 ar
  21    9   37 1
  22   10   38 1
  23   11   12 1
  24   11   39 1
  25   11   40 1
  26   12   13 2
  27   12   14 am
  28   14   15 1
  29   14   19 1
  30   15   16 1
  31   15   41 1
  32   15   42 1
  33   16   17 1
  34   16   43 1
  35   16   44 1
  36   17   18 1
  37   17   20 1
  38   18   19 1
  39   18   45 1
  40   18   46 1
  41   19   47 1
  42   19   48 1
  43   20   21 ar
  44   20   25 ar
  45   21   22 ar
  46   21   26 1
  47   22   23 ar
  48   22   49 1
  49   23   24 ar
  50   23   50 1
  51   24   25 ar
  52   24   51 1
  53   26   27 3

#	End of record

