#	Name: ASD05140009
#	Creating user name:	WinNT
#	Creation time:	15. 06. 2019 20:57

#	Modifying user name:	WinNT
#	Modification time:	15. 06. 2019 20:57

#	Program:	/corina/corina34_cracker 3.40 0067  02.08.2006

@<TRIPOS>MOLECULE
ASD05140009
  57   61    0    0    0
SMALL
NO_CHARGES


@<TRIPOS>ATOM
   1 O1            -0.8395     1.7321    -2.1686 O.2     
   2 C2            -0.4827     2.1593    -1.0911 C.2     
   3 C3             0.7486     3.0226    -0.9929 C.3     
   4 N4             1.3315     3.1979    -2.3299 N.3     
   5 C5             0.4290     3.9607    -3.2016 C.3     
   6 C6             0.9964     3.9902    -4.6234 C.3     
   7 C7             2.3870     4.6216    -4.5987 C.3     
   8 C8             2.9925     4.6085    -6.0139 C.3     
   9 C9             2.6674     6.0150    -6.5773 C.3     
  10 C10            2.8441     6.9296    -5.3395 C.3     
  11 C11            2.2892     6.0923    -4.1677 C.3     
  12 C12            3.2949     3.8548    -3.6389 C.3     
  13 C13            2.6545     3.8298    -2.2483 C.3     
  14 N14           -1.1906     1.8665     0.0178 N.am    
  15 C15           -2.3817     1.1606    -0.0851 C.2     
  16 C16           -3.6440     1.6921    -0.2892 C.2     
  17 N17           -4.5656     0.6548    -0.3333 N.pl3   
  18 H18           -5.5203     0.7631    -0.4660 H       
  19 C19           -3.9237    -0.5493    -0.1609 C.ar    
  20 C20           -4.3775    -1.8657    -0.1229 C.ar    
  21 C21           -3.4822    -2.8941     0.0701 C.ar    
  22 C22           -2.1274    -2.6344     0.2285 C.ar    
  23 C23           -1.6587    -1.3522     0.1955 C.ar    
  24 C24           -2.5480    -0.2919    -0.0056 C.ar    
  25 C25           -3.9438     3.0610    -0.4286 C.2     
  26 O26           -3.0540     3.8866    -0.3726 O.2     
  27 C27           -5.3682     3.5019    -0.6472 C.3     
  28 C28           -5.8276     4.7809     0.0557 C.3     
  29 C29           -5.5957     4.7801    -1.4566 C.3     
  30 H30            0.4781     3.9961    -0.5840 H       
  31 H31            1.4771     2.5435    -0.3389 H       
  32 H32           -0.5526     3.4870    -3.2119 H       
  33 H33            0.3366     4.9799    -2.8261 H       
  34 H34            1.0654     2.9729    -5.0088 H       
  35 H35            0.3407     4.5791    -5.2647 H       
  36 H36            4.0708     4.4562    -5.9664 H       
  37 H37            2.5234     3.8356    -6.6227 H       
  38 H38            3.3715     6.2884    -7.3631 H       
  39 H39            1.6420     6.0562    -6.9447 H       
  40 H40            3.8982     7.1568    -5.1805 H       
  41 H41            2.2687     7.8477    -5.4584 H       
  42 H42            1.2492     6.3579    -3.9780 H       
  43 H43            2.8876     6.2600    -3.2721 H       
  44 H44            3.4247     2.8340    -3.9981 H       
  45 H45            4.2654     4.3480    -3.5838 H       
  46 H46            2.5479     4.8498    -1.8791 H       
  47 H47            3.2874     3.2611    -1.5671 H       
  48 H48           -0.8679     2.1489     0.8879 H       
  49 H49           -5.4292    -2.0793    -0.2443 H       
  50 H50           -3.8378    -3.9135     0.0990 H       
  51 H51           -1.4390    -3.4528     0.3794 H       
  52 H52           -0.6036    -1.1578     0.3202 H       
  53 H53           -6.0969     2.6990    -0.7588 H       
  54 H54           -6.8587     4.8196     0.4068 H       
  55 H55           -5.0995     5.3034     0.6762 H       
  56 H56           -4.7152     5.3021    -1.8311 H       
  57 H57           -6.4744     4.8183    -2.1005 H       
@<TRIPOS>BOND
   1    1    2 2
   2    2    3 1
   3    2   14 am
   4    3    4 1
   5    3   30 1
   6    3   31 1
   7    4   13 1
   8    4    5 1
   9    5    6 1
  10    5   32 1
  11    5   33 1
  12    6    7 1
  13    6   34 1
  14    6   35 1
  15    7   11 1
  16    7    8 1
  17    7   12 1
  18    8    9 1
  19    8   36 1
  20    8   37 1
  21    9   10 1
  22    9   38 1
  23    9   39 1
  24   10   11 1
  25   10   40 1
  26   10   41 1
  27   11   42 1
  28   11   43 1
  29   12   13 1
  30   12   44 1
  31   12   45 1
  32   13   46 1
  33   13   47 1
  34   14   15 1
  35   14   48 1
  36   15   24 1
  37   15   16 2
  38   16   17 1
  39   16   25 1
  40   17   18 1
  41   17   19 1
  42   19   24 ar
  43   19   20 ar
  44   20   21 ar
  45   20   49 1
  46   21   22 ar
  47   21   50 1
  48   22   23 ar
  49   22   51 1
  50   23   24 ar
  51   23   52 1
  52   25   26 2
  53   25   27 1
  54   27   29 1
  55   27   28 1
  56   27   53 1
  57   28   29 1
  58   28   54 1
  59   28   55 1
  60   29   56 1
  61   29   57 1

#	End of record

