#	Name: ASD01915134
#	Creating user name:	WinNT
#	Creation time:	15. 06. 2019 20:04

#	Modifying user name:	WinNT
#	Modification time:	15. 06. 2019 20:04

#	Program:	/corina/corina34_cracker 3.40 0067  02.08.2006

@<TRIPOS>MOLECULE
ASD01915134
  36   39    0    0    0
SMALL
NO_CHARGES


@<TRIPOS>ATOM
   1 C1             0.0628     0.5914    -0.0202 C.ar    
   2 C2             0.3889    -0.7429     0.2333 C.ar    
   3 N3            -0.5764    -1.6420     0.4378 N.ar    
   4 C4            -1.8486    -1.3199     0.4105 C.ar    
   5 C5            -2.2509    -0.0160     0.1651 C.ar    
   6 C6            -1.2993     0.9570    -0.0480 C.ar    
   7 C7             1.2500     1.4176    -0.2166 C.2     
   8 C8             2.4017     0.7581    -0.1194 C.2     
   9 S9             2.1377    -0.9402     0.2226 S.3     
  10 C10            1.1785     2.8707    -0.5012 C.ar    
  11 C11            1.4714     3.8015     0.4931 C.ar    
  12 N12            1.4085     5.0939     0.2421 N.ar    
  13 C13            1.0700     5.5566    -0.9474 C.ar    
  14 C14            0.7647     4.6934    -1.9886 C.ar    
  15 C15            0.8217     3.3285    -1.7742 C.ar    
  16 S16            3.9894     1.4979    -0.3107 S.o2    
  17 O17            3.8541     2.8508     0.1025 O.2     
  18 O18            4.9239     0.5980     0.2690 O.2     
  19 C19            4.3417     1.5377    -2.0366 C.ar    
  20 C20            4.0884     2.6836    -2.7673 C.ar    
  21 C21            4.8766     0.4249    -2.6584 C.ar    
  22 C22            5.1537     0.4556    -4.0122 C.ar    
  23 C23            4.8951     1.6002    -4.7451 C.ar    
  24 C24            4.3642     2.7152    -4.1213 C.ar    
  25 Cl25           5.2428     1.6396    -6.4454 Cl      
  26 F26            1.0201     6.8909    -1.1529 F       
  27 H27           -2.5938    -2.0828     0.5815 H       
  28 H28           -3.3010     0.2355     0.1454 H       
  29 H29           -1.5909     1.9789    -0.2409 H       
  30 H30            1.7522     3.4610     1.4787 H       
  31 H31            0.4887     5.0828    -2.9574 H       
  32 H32            0.5893     2.6334    -2.5674 H       
  33 H33            3.6746     3.5541    -2.2801 H       
  34 H34            5.0784    -0.4685    -2.0862 H       
  35 H35            5.5722    -0.4136    -4.4977 H       
  36 H36            4.1618     3.6088    -4.6930 H       
@<TRIPOS>BOND
   1    1    2 ar
   2    1    7 1
   3    1    6 ar
   4    2    3 ar
   5    2    9 1
   6    3    4 ar
   7    4    5 ar
   8    4   27 1
   9    5    6 ar
  10    5   28 1
  11    6   29 1
  12    7    8 2
  13    7   10 1
  14    8    9 1
  15    8   16 1
  16   10   11 ar
  17   10   15 ar
  18   11   12 ar
  19   11   30 1
  20   12   13 ar
  21   13   14 ar
  22   13   26 1
  23   14   15 ar
  24   14   31 1
  25   15   32 1
  26   16   17 2
  27   16   18 2
  28   16   19 1
  29   19   20 ar
  30   19   21 ar
  31   20   24 ar
  32   20   33 1
  33   21   22 ar
  34   21   34 1
  35   22   23 ar
  36   22   35 1
  37   23   24 ar
  38   23   25 1
  39   24   36 1

#	End of record

