#	Name: ASD06020190
#	Creating user name:	WinNT
#	Creation time:	15. 06. 2019 21:04

#	Modifying user name:	WinNT
#	Modification time:	15. 06. 2019 21:04

#	Program:	/corina/corina34_cracker 3.40 0067  02.08.2006

@<TRIPOS>MOLECULE
ASD06020190
  24   26    0    0    0
SMALL
NO_CHARGES


@<TRIPOS>ATOM
   1 C1             0.0021    -0.0041     0.0020 C.1     
   2 C2            -0.0173     1.4278     0.0099 C.ar    
   3 C3             1.1901     2.1532     0.0023 C.ar    
   4 C4             1.1549     3.5472     0.0096 C.ar    
   5 C5            -0.0594     4.2072     0.0243 C.ar    
   6 C6            -1.2454     3.4935     0.0317 C.ar    
   7 C7            -1.2316     2.1130     0.0193 C.ar    
   8 N8             0.0175    -1.1399    -0.0042 N.1     
   9 C9             5.4555    -1.0630    -0.0517 C.ar    
  10 C10            4.4223    -0.1297    -0.0382 C.ar    
  11 C11            4.7266     1.2395    -0.0340 C.ar    
  12 C12            6.0979     1.5937    -0.0440 C.ar    
  13 C13            7.0410     0.6134    -0.0570 C.ar    
  14 N14            6.7122    -0.6681    -0.0601 N.ar    
  15 S15            2.6712    -0.3068    -0.0235 S.3     
  16 C16            2.4845     1.4422    -0.0129 C.2     
  17 N17            3.6435     2.0162    -0.0204 N.2     
  18 Cl18           5.0851    -2.7590    -0.0497 Cl      
  19 Cl19           2.6357     4.4533     0.0009 Cl      
  20 H20           -0.0830     5.2869     0.0303 H       
  21 H21           -2.1882     4.0202     0.0436 H       
  22 H22           -2.1615     1.5637     0.0207 H       
  23 H23            6.3922     2.6328    -0.0418 H       
  24 H24            8.0854     0.8884    -0.0646 H       
@<TRIPOS>BOND
   1    1    2 1
   2    1    8 3
   3    2    3 ar
   4    2    7 ar
   5    3    4 ar
   6    3   16 1
   7    4    5 ar
   8    4   19 1
   9    5    6 ar
  10    5   20 1
  11    6    7 ar
  12    6   21 1
  13    7   22 1
  14    9   10 ar
  15    9   14 ar
  16    9   18 1
  17   10   11 ar
  18   10   15 1
  19   11   12 ar
  20   11   17 1
  21   12   13 ar
  22   12   23 1
  23   13   14 ar
  24   13   24 1
  25   15   16 1
  26   16   17 2

#	End of record

