#	Name: ASD01812991
#	Creating user name:	WinNT
#	Creation time:	15. 06. 2019 19:29

#	Modifying user name:	WinNT
#	Modification time:	15. 06. 2019 19:29

#	Program:	/corina/corina34_cracker 3.40 0067  02.08.2006

@<TRIPOS>MOLECULE
ASD01812991
  49   52    0    0    0
SMALL
NO_CHARGES


@<TRIPOS>ATOM
   1 C1            -0.0167     1.3765     0.0233 C.ar    
   2 C2             0.0018    -0.0040     0.0178 C.ar    
   3 C3             1.2084    -0.6873    -0.0064 C.ar    
   4 C4             2.3936     0.0073    -0.0256 C.ar    
   5 C5             2.3937     1.4055    -0.0208 C.ar    
   6 C6             1.1718     2.0915     0.0041 C.ar    
   7 C7             3.8405    -0.4180    -0.0538 C.3     
   8 N8             4.6306     0.8185    -0.0642 N.am    
   9 C9             3.7910     1.8681    -0.0451 C.2     
  10 C10            6.0933     0.8963    -0.0905 C.3     
  11 C11            6.5690     0.9275    -1.5201 C.ar    
  12 O12            1.1515     3.4479     0.0091 O.3     
  13 O13            4.1366     3.0338    -0.0471 O.2     
  14 C14            6.7237     2.1373    -2.1708 C.ar    
  15 C15            7.1601     2.1660    -3.4821 C.ar    
  16 C16            7.4421     0.9848    -4.1427 C.ar    
  17 C17            7.2883    -0.2249    -3.4917 C.ar    
  18 C18            6.8561    -0.2533    -2.1789 C.ar    
  19 C19            7.9169     1.0160    -5.5726 C.3     
  20 C20           -0.1276     4.0779    -0.0868 C.3     
  21 C21            0.0357     5.4819    -0.6770 C.3     
  22 C22           -1.3276     6.1779    -0.7027 C.3     
  23 O23           -1.8630     6.2230     0.6214 O.3     
  24 C24           -2.0816     4.9376     1.2064 C.3     
  25 C25           -0.7486     4.1918     1.3089 C.3     
  26 O26            0.5471     5.3839    -2.0078 O.3     
  27 H27           -0.9603     1.9017     0.0381 H       
  28 H28           -0.9274    -0.5542     0.0328 H       
  29 H29            1.2163    -1.7672    -0.0099 H       
  30 H30            4.0758    -1.0055     0.8337 H       
  31 H31            4.0427    -0.9994    -0.9533 H       
  32 H32            6.4182     1.8027     0.4204 H       
  33 H33            6.5126     0.0252     0.4130 H       
  34 H34            6.5034     3.0601    -1.6547 H       
  35 H35            7.2803     3.1111    -3.9907 H       
  36 H36            7.5083    -1.1477    -4.0079 H       
  37 H37            6.7395    -1.1982    -1.6691 H       
  38 H38            9.0051     1.0746    -5.5930 H       
  39 H39            7.5922     0.1093    -6.0831 H       
  40 H40            7.4966     1.8867    -6.0761 H       
  41 H41           -0.7786     3.4855    -0.7297 H       
  42 H42            0.7271     6.0576    -0.0616 H       
  43 H43           -1.2103     7.1930    -1.0822 H       
  44 H44           -2.0065     5.6236    -1.3507 H       
  45 H45           -2.5075     5.0592     2.2024 H       
  46 H46           -2.7704     4.3671     0.5834 H       
  47 H47           -0.9194     3.1944     1.7140 H       
  48 H48           -0.0731     4.7414     1.9644 H       
  49 H49            0.6757     6.2375    -2.4436 H       
@<TRIPOS>BOND
   1    1    2 ar
   2    1    6 ar
   3    1   27 1
   4    2    3 ar
   5    2   28 1
   6    3    4 ar
   7    3   29 1
   8    4    7 1
   9    4    5 ar
  10    5    6 ar
  11    5    9 1
  12    6   12 1
  13    7    8 1
  14    7   30 1
  15    7   31 1
  16    8    9 am
  17    8   10 1
  18    9   13 2
  19   10   11 1
  20   10   32 1
  21   10   33 1
  22   11   14 ar
  23   11   18 ar
  24   12   20 1
  25   14   15 ar
  26   14   34 1
  27   15   16 ar
  28   15   35 1
  29   16   17 ar
  30   16   19 1
  31   17   18 ar
  32   17   36 1
  33   18   37 1
  34   19   38 1
  35   19   39 1
  36   19   40 1
  37   20   21 1
  38   20   25 1
  39   20   41 1
  40   21   22 1
  41   21   26 1
  42   21   42 1
  43   22   23 1
  44   22   43 1
  45   22   44 1
  46   23   24 1
  47   24   25 1
  48   24   45 1
  49   24   46 1
  50   25   47 1
  51   25   48 1
  52   26   49 1

#	End of record

