#	Name: ASD01910705
#	Creating user name:	WinNT
#	Creation time:	15. 06. 2019 19:56

#	Modifying user name:	WinNT
#	Modification time:	15. 06. 2019 19:56

#	Program:	/corina/corina34_cracker 3.40 0067  02.08.2006

@<TRIPOS>MOLECULE
ASD01910705
  56   59    0    0    0
SMALL
NO_CHARGES


@<TRIPOS>ATOM
   1 C1            12.4924    -1.8931     4.2631 C.ar    
   2 C2            13.1105    -2.0562     3.0306 C.ar    
   3 C3            12.3985    -1.7385     1.8878 C.ar    
   4 C4            11.0950    -1.2691     2.0115 C.ar    
   5 N5            10.5404    -1.1268     3.2056 N.ar    
   6 C6            11.1954    -1.4223     4.3122 C.ar    
   7 N7            10.3681    -0.9461     0.8715 N.3     
   8 C8             9.0223    -0.4728     1.2218 C.3     
   9 C9             8.3209     0.0416    -0.0398 C.3     
  10 N10            8.3620    -1.0158    -1.0613 N.am    
  11 C11            9.6595    -1.6363    -1.3687 C.3     
  12 C12           10.3082    -2.0847    -0.0548 C.3     
  13 C13            7.2404    -1.4055    -1.6989 C.2     
  14 C14            7.3212    -2.3800    -2.8082 C.ar    
  15 O15            6.1624    -0.9560    -1.3622 O.2     
  16 C16            6.3483    -3.3735    -2.9390 C.ar    
  17 C17            6.4215    -4.2850    -3.9742 C.ar    
  18 C18            7.4555    -4.2219    -4.8862 C.ar    
  19 C19            8.4369    -3.2328    -4.7674 C.ar    
  20 C20            8.3647    -2.3055    -3.7281 C.ar    
  21 C21            9.5099    -3.1687    -5.7136 C.1     
  22 C22           10.3895    -3.1161    -6.4893 C.1     
  23 C23           11.4624    -3.0520    -7.4356 C.ar    
  24 C24            7.5272    -5.2211    -6.0120 C.3     
  25 C25           12.4436    -2.0640    -7.3177 C.ar    
  26 C26           13.4756    -2.0058    -8.2315 C.ar    
  27 C27           13.5429    -2.9221    -9.2647 C.ar    
  28 C28           12.5723    -3.9075    -9.3908 C.ar    
  29 C29           11.5356    -3.9802    -8.4767 C.ar    
  30 O30           12.6441    -4.8050   -10.4089 O.3     
  31 C31           13.7442    -4.6754   -11.3116 C.3     
  32 H32           13.0192    -2.1362     5.1740 H       
  33 H33           14.1243    -2.4225     2.9656 H       
  34 H34           12.8488    -1.8530     0.9129 H       
  35 H35           10.7109    -1.2935     5.2688 H       
  36 H36            8.4472    -1.2947     1.6482 H       
  37 H37            9.0988     0.3345     1.9502 H       
  38 H38            7.2844     0.2870     0.1918 H       
  39 H39            8.8362     0.9281    -0.4096 H       
  40 H40            9.5080    -2.5003    -2.0158 H       
  41 H41           10.3035    -0.9111    -1.8662 H       
  42 H42           11.3173    -2.4464    -0.2522 H       
  43 H43            9.7152    -2.8841     0.3894 H       
  44 H44            5.5368    -3.4294    -2.2286 H       
  45 H45            5.6663    -5.0510    -4.0701 H       
  46 H46            9.1195    -1.5391    -3.6313 H       
  47 H47            6.9844    -4.8356    -6.8751 H       
  48 H48            8.5695    -5.3884    -6.2835 H       
  49 H49            7.0796    -6.1619    -5.6919 H       
  50 H50           12.3939    -1.3464    -6.5121 H       
  51 H51           14.2333    -1.2416    -8.1397 H       
  52 H52           14.3533    -2.8712    -9.9768 H       
  53 H53           10.7805    -4.7463    -8.5736 H       
  54 H54           13.6817    -5.4515   -12.0744 H       
  55 H55           13.7106    -3.6951   -11.7871 H       
  56 H56           14.6796    -4.7806   -10.7619 H       
@<TRIPOS>BOND
   1    1    2 ar
   2    1    6 ar
   3    1   32 1
   4    2    3 ar
   5    2   33 1
   6    3    4 ar
   7    3   34 1
   8    4    5 ar
   9    4    7 1
  10    5    6 ar
  11    6   35 1
  12    7    8 1
  13    7   12 1
  14    8    9 1
  15    8   36 1
  16    8   37 1
  17    9   10 1
  18    9   38 1
  19    9   39 1
  20   10   11 1
  21   10   13 am
  22   11   12 1
  23   11   40 1
  24   11   41 1
  25   12   42 1
  26   12   43 1
  27   13   14 1
  28   13   15 2
  29   14   16 ar
  30   14   20 ar
  31   16   17 ar
  32   16   44 1
  33   17   18 ar
  34   17   45 1
  35   18   19 ar
  36   18   24 1
  37   19   20 ar
  38   19   21 1
  39   20   46 1
  40   21   22 3
  41   22   23 1
  42   23   25 ar
  43   23   29 ar
  44   24   47 1
  45   24   48 1
  46   24   49 1
  47   25   26 ar
  48   25   50 1
  49   26   27 ar
  50   26   51 1
  51   27   28 ar
  52   27   52 1
  53   28   29 ar
  54   28   30 1
  55   29   53 1
  56   30   31 1
  57   31   54 1
  58   31   55 1
  59   31   56 1

#	End of record

