#	Name: ASD04590351
#	Creating user name:	WinNT
#	Creation time:	15. 06. 2019 20:50

#	Modifying user name:	WinNT
#	Modification time:	15. 06. 2019 20:50

#	Program:	/corina/corina34_cracker 3.40 0067  02.08.2006

@<TRIPOS>MOLECULE
ASD04590351
  55   59    0    0    0
SMALL
NO_CHARGES


@<TRIPOS>ATOM
   1 C1            -0.0294     1.4009    -0.1008 C.ar    
   2 C2            -0.0025     0.0033    -0.0102 C.ar    
   3 C3             1.2133    -0.6702     0.0609 C.ar    
   4 C4             2.4037     0.0566     0.0412 C.ar    
   5 C5             2.3573     1.4611    -0.0504 C.ar    
   6 C6             1.1334     2.1159    -0.1204 C.ar    
   7 N7             3.7118    -0.2985     0.0934 N.2     
   8 C8             4.4605     0.7760     0.0409 C.2     
   9 N9             3.6681     1.8896    -0.0486 N.pl3   
  10 C10            5.9375     0.7848     0.0739 C.2     
  11 C11            6.7737    -0.3519     0.1659 C.2     
  12 C12            8.0587     0.0794     0.1669 C.2     
  13 N13            8.0431     1.4355     0.0791 N.pl3   
  14 N14            6.7079     1.8535     0.0170 N.2     
  15 N15            6.3488    -1.6882     0.2424 N.am    
  16 C16            7.2572    -2.6804     0.3267 C.2     
  17 C17            6.8115    -4.0820     0.4071 C.ar    
  18 O18            8.4450    -2.4183     0.3364 O.2     
  19 C19            6.5718    -4.6732     1.6539 C.ar    
  20 C20            6.1540    -5.9863     1.7227 C.ar    
  21 C21            5.9716    -6.7221     0.5584 C.ar    
  22 C22            6.2079    -6.1412    -0.6815 C.ar    
  23 C23            6.6203    -4.8271    -0.7634 C.ar    
  24 C24           -1.2679    -0.7576     0.0106 C.2     
  25 N25           -2.3286    -0.2828     0.6931 N.am    
  26 C26           -3.6348    -0.9574     0.6282 C.3     
  27 C27           -2.2132     0.9219     1.5302 C.3     
  28 C28           -2.7864     0.6045     2.9160 C.3     
  29 O29           -4.0989     0.0573     2.7685 O.3     
  30 C30           -4.1359    -1.1795     2.0598 C.3     
  31 F31            6.7495    -3.9592     2.7870 F       
  32 F32            6.8493    -4.2635    -1.9696 F       
  33 O33           -1.3529    -1.8123    -0.5881 O.2     
  34 O34            5.5615    -8.0136     0.6324 O.3     
  35 C35            5.3936    -8.7128    -0.6025 C.3     
  36 H36           -0.9767     1.9163    -0.1601 H       
  37 H37            1.2350    -1.7477     0.1311 H       
  38 H38            1.1022     3.1931    -0.1909 H       
  39 H39            3.9725     2.8091    -0.1013 H       
  40 H40            8.9386    -0.5439     0.2270 H       
  41 H41            8.8219     2.0134     0.0593 H       
  42 H42            5.4017    -1.8972     0.2347 H       
  43 H43            5.9688    -6.4432     2.6836 H       
  44 H44            6.0647    -6.7183    -1.5830 H       
  45 H45           -4.3436    -0.3334     0.0838 H       
  46 H46           -3.5274    -1.9176     0.1238 H       
  47 H47           -1.1648     1.2056     1.6227 H       
  48 H48           -2.7764     1.7384     1.0781 H       
  49 H49           -2.1446    -0.1192     3.4185 H       
  50 H50           -2.8376     1.5189     3.5070 H       
  51 H51           -5.1603    -1.5508     2.0289 H       
  52 H52           -3.4992    -1.9068     2.5635 H       
  53 H53            6.3426    -8.7371    -1.1382 H       
  54 H54            5.0638    -9.7320    -0.4011 H       
  55 H55            4.6463    -8.2026    -1.2103 H       
@<TRIPOS>BOND
   1    1    2 ar
   2    1    6 ar
   3    1   36 1
   4    2    3 ar
   5    2   24 1
   6    3    4 ar
   7    3   37 1
   8    4    5 ar
   9    4    7 1
  10    5    6 ar
  11    5    9 1
  12    6   38 1
  13    7    8 2
  14    8    9 1
  15    8   10 1
  16    9   39 1
  17   10   11 1
  18   10   14 2
  19   11   12 2
  20   11   15 1
  21   12   13 1
  22   12   40 1
  23   13   14 1
  24   13   41 1
  25   15   16 am
  26   15   42 1
  27   16   17 1
  28   16   18 2
  29   17   19 ar
  30   17   23 ar
  31   19   20 ar
  32   19   31 1
  33   20   21 ar
  34   20   43 1
  35   21   22 ar
  36   21   34 1
  37   22   23 ar
  38   22   44 1
  39   23   32 1
  40   24   25 am
  41   24   33 2
  42   25   26 1
  43   25   27 1
  44   26   30 1
  45   26   45 1
  46   26   46 1
  47   27   28 1
  48   27   47 1
  49   27   48 1
  50   28   29 1
  51   28   49 1
  52   28   50 1
  53   29   30 1
  54   30   51 1
  55   30   52 1
  56   34   35 1
  57   35   53 1
  58   35   54 1
  59   35   55 1

#	End of record

