#	Name: ASD01918189
#	Creating user name:	WinNT
#	Creation time:	15. 06. 2019 20:10

#	Modifying user name:	WinNT
#	Modification time:	15. 06. 2019 20:10

#	Program:	/corina/corina34_cracker 3.40 0067  02.08.2006

@<TRIPOS>MOLECULE
ASD01918189
  37   39    0    0    0
SMALL
NO_CHARGES


@<TRIPOS>ATOM
   1 N1             0.0433     1.3149     0.1338 N.ar    
   2 C2             0.0706    -0.0011     0.1457 C.ar    
   3 C3             1.2725    -0.6876     0.1674 C.ar    
   4 C4             2.4637     0.0239     0.1767 C.ar    
   5 C5             2.4079     1.4068     0.1637 C.ar    
   6 C6             1.1608     2.0347     0.1420 C.ar    
   7 N7             1.0886     3.4002     0.1285 N.2     
   8 N8            -0.0610     3.9851     0.1080 N.2     
   9 C9            -0.1329     5.3466     0.0946 C.ar    
  10 C10           -1.4466     7.3618     0.0651 C.ar    
  11 C11           -1.3792     5.9829     0.0781 C.ar    
  12 C12            1.0394     6.1110     0.1031 C.ar    
  13 C13            0.9649     7.4860     0.0900 C.ar    
  14 C14           -0.2732     8.1181     0.0688 C.ar    
  15 O15           -2.6560     7.9833     0.0486 O.3     
  16 C16           -3.8150     7.1473     0.0457 C.3     
  17 N17           -0.3432     9.5124     0.0551 N.am    
  18 C18            0.6796    10.2336    -0.4449 C.2     
  19 O19            1.6927     9.6739    -0.8192 O.2     
  20 C20            0.5708    11.6990    -0.5382 C.2     
  21 C21           -0.4515    13.6547    -0.2874 C.2     
  22 N22           -0.5087    12.3778    -0.1411 N.2     
  23 C23            1.5567    12.4838    -1.0287 C.2     
  24 S24            1.0458    14.1140    -0.9681 S.3     
  25 H25           -0.8577    -0.5529     0.1389 H       
  26 H26            1.2829    -1.7675     0.1774 H       
  27 H27            3.4134    -0.4900     0.1939 H       
  28 H28            3.3157     1.9917     0.1707 H       
  29 H29           -2.2862     5.3966     0.0753 H       
  30 H30            2.0025     5.6225     0.1203 H       
  31 H31            1.8703     8.0747     0.0966 H       
  32 H32           -3.8011     6.5100    -0.8385 H       
  33 H33           -3.8171     6.5261     0.9413 H       
  34 H34           -4.7107     7.7682     0.0321 H       
  35 H35           -1.1281     9.9621     0.4055 H       
  36 H36           -1.2399    14.3409    -0.0156 H       
  37 H37            2.5108    12.1375    -1.3980 H       
@<TRIPOS>BOND
   1    1    2 ar
   2    1    6 ar
   3    2    3 ar
   4    2   25 1
   5    3    4 ar
   6    3   26 1
   7    4    5 ar
   8    4   27 1
   9    5    6 ar
  10    5   28 1
  11    6    7 1
  12    7    8 2
  13    8    9 1
  14    9   12 ar
  15    9   11 ar
  16   10   11 ar
  17   10   14 ar
  18   10   15 1
  19   11   29 1
  20   12   13 ar
  21   12   30 1
  22   13   14 ar
  23   13   31 1
  24   14   17 1
  25   15   16 1
  26   16   32 1
  27   16   33 1
  28   16   34 1
  29   17   18 am
  30   17   35 1
  31   18   19 2
  32   18   20 1
  33   20   23 2
  34   20   22 1
  35   21   22 2
  36   21   24 1
  37   21   36 1
  38   23   24 1
  39   23   37 1

#	End of record

