#	Name: ASD00069006
#	Creating user name:	WinNT
#	Creation time:	15. 06. 2019 18:29

#	Modifying user name:	WinNT
#	Modification time:	15. 06. 2019 18:29

#	Program:	/corina/corina34_cracker 3.40 0067  02.08.2006

@<TRIPOS>MOLECULE
ASD00069006
  42   46    0    0    0
SMALL
NO_CHARGES


@<TRIPOS>ATOM
   1 C1            -0.0230     1.3940     0.0015 C.ar    
   2 C2            -0.0001    -0.0006    -0.0037 C.ar    
   3 C3             1.2046    -0.6776    -0.0217 C.ar    
   4 C4             2.3991     0.0450    -0.0350 C.ar    
   5 C5             2.3658     1.4511    -0.0301 C.ar    
   6 C6             1.1390     2.1104    -0.0114 C.ar    
   7 C7             3.8171    -0.3344    -0.0553 C.2     
   8 N8             4.5225     0.7734    -0.0613 N.2     
   9 N9             3.6699     1.8816    -0.0463 N.pl3   
  10 C10            4.3524    -1.7099    -0.0668 C.2     
  11 N11            3.6264    -2.8024    -0.0610 N.2     
  12 C12            4.4374    -3.8882    -0.0752 C.ar    
  13 C13            5.7624    -3.4174    -0.0909 C.ar    
  14 N14            5.6821    -2.0379    -0.0912 N.pl3   
  15 C15            4.1977    -5.2663    -0.0766 C.ar    
  16 C16            5.2478    -6.1398    -0.0932 C.ar    
  17 C17            6.5552    -5.6750    -0.1087 C.ar    
  18 C18            6.8158    -4.3207    -0.1083 C.ar    
  19 N19           -1.2025    -0.7176     0.0097 N.am    
  20 C20           -2.2631    -0.2420     0.6920 C.2     
  21 C21           -3.5658    -0.9359     0.6107 C.ar    
  22 O22           -2.1484     0.7577     1.3742 O.2     
  23 C23           -4.6657    -0.4459     1.3159 C.ar    
  24 C24           -5.8808    -1.0995     1.2350 C.ar    
  25 C25           -6.0064    -2.2385     0.4561 C.ar    
  26 C26           -4.9185    -2.7277    -0.2447 C.ar    
  27 C27           -3.7021    -2.0808    -0.1764 C.ar    
  28 F28           -6.9474    -0.6274     1.9166 F       
  29 H29           -0.9703     1.9126     0.0113 H       
  30 H30            1.2219    -1.7575    -0.0250 H       
  31 H31            1.1070     3.1900    -0.0075 H       
  32 H32            3.9547     2.8089    -0.0475 H       
  33 H33            6.4279    -1.4178    -0.1003 H       
  34 H34            3.1842    -5.6390    -0.0643 H       
  35 H35            5.0585    -7.2031    -0.0939 H       
  36 H36            7.3744    -6.3787    -0.1214 H       
  37 H37            7.8354    -3.9647    -0.1206 H       
  38 H38           -1.2723    -1.5566    -0.4720 H       
  39 H39           -4.5676     0.4415     1.9236 H       
  40 H40           -6.9575    -2.7467     0.3961 H       
  41 H41           -5.0230    -3.6159    -0.8500 H       
  42 H42           -2.8542    -2.4643    -0.7246 H       
@<TRIPOS>BOND
   1    1    2 ar
   2    1    6 ar
   3    1   29 1
   4    2    3 ar
   5    2   19 1
   6    3    4 ar
   7    3   30 1
   8    4    5 ar
   9    4    7 1
  10    5    6 ar
  11    5    9 1
  12    6   31 1
  13    7    8 2
  14    7   10 1
  15    8    9 1
  16    9   32 1
  17   10   11 2
  18   10   14 1
  19   11   12 1
  20   12   13 ar
  21   12   15 ar
  22   13   14 1
  23   13   18 ar
  24   14   33 1
  25   15   16 ar
  26   15   34 1
  27   16   17 ar
  28   16   35 1
  29   17   18 ar
  30   17   36 1
  31   18   37 1
  32   19   20 am
  33   19   38 1
  34   20   21 1
  35   20   22 2
  36   21   23 ar
  37   21   27 ar
  38   23   24 ar
  39   23   39 1
  40   24   25 ar
  41   24   28 1
  42   25   26 ar
  43   25   40 1
  44   26   27 ar
  45   26   41 1
  46   27   42 1

#	End of record

