#	Name: ASD01881334
#	Creating user name:	WinNT
#	Creation time:	15. 06. 2019 19:42

#	Modifying user name:	WinNT
#	Modification time:	15. 06. 2019 19:42

#	Program:	/corina/corina34_cracker 3.40 0067  02.08.2006

@<TRIPOS>MOLECULE
ASD01881334
  39   42    0    0    0
SMALL
NO_CHARGES


@<TRIPOS>ATOM
   1 C1            -0.0169     1.3984     0.0097 C.2     
   2 C2             0.0021    -0.0041     0.0020 C.2     
   3 C3            -1.2223    -0.7047     0.0099 C.2     
   4 C4            -2.3969    -0.0475     0.0242 C.2     
   5 N5            -2.4615     1.3157     0.0321 N.pl3   
   6 C6            -1.3172     2.0717     0.0319 C.2     
   7 C7            -3.5157     2.1918     0.0464 C.2     
   8 C8            -2.9979     3.4382     0.0483 C.2     
   9 N9            -1.6639     3.3462     0.0404 N.2     
  10 C10            1.2855    -0.7368    -0.0146 C.ar    
  11 C11            1.6500    -1.5327     1.0729 C.ar    
  12 C12            2.8479    -2.2164     1.0577 C.ar    
  13 C13            3.6880    -2.1130    -0.0452 C.ar    
  14 C14            3.3294    -1.3196    -1.1302 C.ar    
  15 C15            2.1328    -0.6382    -1.1212 C.ar    
  16 C16           -4.9788     1.8308     0.0574 C.3     
  17 C17            3.2324    -3.0639     2.2426 C.3     
  18 C18            4.2943    -4.0867     1.8363 C.3     
  19 O19            5.3500    -3.4122     1.1392 O.3     
  20 N20            4.8970    -2.8129    -0.0683 N.pl3   
  21 C21            1.2014     2.1509     0.0021 C.1     
  22 N22            2.1678     2.7479    -0.0039 N.1     
  23 C23           -5.5169     1.8388    -1.3749 C.3     
  24 F24           -4.8121     0.9058    -2.1430 F       
  25 F25           -6.8751     1.5038    -1.3647 F       
  26 F26           -5.3553     3.1143    -1.9266 F       
  27 H27           -1.2171    -1.7847     0.0041 H       
  28 H28           -3.3154    -0.6157     0.0291 H       
  29 H29           -3.5661     4.3566     0.0585 H       
  30 H30            0.9937    -1.6128     1.9269 H       
  31 H31            3.9883    -1.2413    -1.9824 H       
  32 H32            1.8541    -0.0221    -1.9633 H       
  33 H33           -5.1047     0.8371     0.4872 H       
  34 H34           -5.5279     2.5578     0.6558 H       
  35 H35            3.6297    -2.4241     3.0306 H       
  36 H36            2.3510    -3.5864     2.6143 H       
  37 H37            4.6958    -4.5693     2.7274 H       
  38 H38            3.8474    -4.8367     1.1837 H       
  39 H39            5.4133    -2.8883    -0.8860 H       
@<TRIPOS>BOND
   1    1    2 2
   2    1   21 1
   3    1    6 1
   4    2    3 1
   5    2   10 1
   6    3    4 2
   7    3   27 1
   8    4    5 1
   9    4   28 1
  10    5    6 1
  11    5    7 1
  12    6    9 2
  13    7    8 2
  14    7   16 1
  15    8    9 1
  16    8   29 1
  17   10   11 ar
  18   10   15 ar
  19   11   12 ar
  20   11   30 1
  21   12   13 ar
  22   12   17 1
  23   13   14 ar
  24   13   20 1
  25   14   15 ar
  26   14   31 1
  27   15   32 1
  28   16   23 1
  29   16   33 1
  30   16   34 1
  31   17   18 1
  32   17   35 1
  33   17   36 1
  34   18   19 1
  35   18   37 1
  36   18   38 1
  37   19   20 1
  38   20   39 1
  39   21   22 3
  40   23   24 1
  41   23   25 1
  42   23   26 1

#	End of record

