#	Name: ASD03430615
#	Creating user name:	WinNT
#	Creation time:	15. 06. 2019 20:41

#	Modifying user name:	WinNT
#	Modification time:	15. 06. 2019 20:41

#	Program:	/corina/corina34_cracker 3.40 0067  02.08.2006

@<TRIPOS>MOLECULE
ASD03430615
  37   39    0    0    0
SMALL
NO_CHARGES


@<TRIPOS>ATOM
   1 N1            -0.0162     1.3400     0.0094 N.am    
   2 C2             0.0021    -0.0041     0.0020 C.2     
   3 C3             1.4375    -0.4368    -0.0140 C.2     
   4 C4             2.2103     0.8146    -0.0147 C.ar    
   5 C5             3.5833     1.0900    -0.0267 C.ar    
   6 C6             4.0174     2.4140    -0.0241 C.ar    
   7 C7             3.0921     3.4432    -0.0098 C.ar    
   8 C8             1.7332     3.1739     0.0026 C.ar    
   9 C9             1.2766     1.8652    -0.0001 C.ar    
  10 O10           -0.9669    -0.7342     0.0077 O.2     
  11 O11            1.8678    -1.5720    -0.0239 O.2     
  12 C12           -1.2370     2.1498     0.0198 C.3     
  13 O13           -2.4644     1.6531     2.1851 O.3     
  14 C14           -1.6483     2.4203     1.4442 C.2     
  15 C15           -1.2598     3.4707     2.1892 C.2     
  16 C16           -1.8781     3.3279     3.4526 C.2     
  17 C17           -2.6075     2.1986     3.4040 C.2     
  18 C18           -3.4433     1.6404     4.5269 C.3     
  19 F19           -4.7408     2.1566     4.4436 F       
  20 F20           -3.4888     0.2458     4.4255 F       
  21 F21           -2.8760     2.0004     5.7540 F       
  22 O22            5.3488     2.6947    -0.0353 O.3     
  23 C23            5.7210     4.0743    -0.0319 C.3     
  24 O24            4.4837     0.0757    -0.0403 O.3     
  25 C25            4.9020    -0.4033    -1.3200 C.3     
  26 H26            3.4334     4.4678    -0.0078 H       
  27 H27            1.0249     3.9891     0.0141 H       
  28 H28           -1.0504     3.0949    -0.4902 H       
  29 H29           -2.0343     1.6116    -0.4927 H       
  30 H30           -0.6014     4.2696     1.8815 H       
  31 H31           -1.7829     3.9968     4.2951 H       
  32 H32            5.3111     4.5634    -0.9156 H       
  33 H33            5.3279     4.5545     0.8643 H       
  34 H34            6.8078     4.1575    -0.0417 H       
  35 H35            5.3677     0.4092    -1.8777 H       
  36 H36            5.6207    -1.2121    -1.1880 H       
  37 H37            4.0366    -0.7725    -1.8704 H       
@<TRIPOS>BOND
   1    1    2 am
   2    1    9 1
   3    1   12 1
   4    2    3 1
   5    2   10 2
   6    3    4 1
   7    3   11 2
   8    4    5 ar
   9    4    9 ar
  10    5    6 ar
  11    5   24 1
  12    6    7 ar
  13    6   22 1
  14    7    8 ar
  15    7   26 1
  16    8    9 ar
  17    8   27 1
  18   12   14 1
  19   12   28 1
  20   12   29 1
  21   13   14 1
  22   13   17 1
  23   14   15 2
  24   15   16 1
  25   15   30 1
  26   16   17 2
  27   16   31 1
  28   17   18 1
  29   18   19 1
  30   18   20 1
  31   18   21 1
  32   22   23 1
  33   23   32 1
  34   23   33 1
  35   23   34 1
  36   24   25 1
  37   25   35 1
  38   25   36 1
  39   25   37 1

#	End of record

