#	Name: ASD06610058
#	Creating user name:	WinNT
#	Creation time:	15. 06. 2019 21:07

#	Modifying user name:	WinNT
#	Modification time:	15. 06. 2019 21:07

#	Program:	/corina/corina34_cracker 3.40 0067  02.08.2006

@<TRIPOS>MOLECULE
ASD06610058
 323  323    0    0    0
SMALL
NO_CHARGES


@<TRIPOS>ATOM
   1 C1            -3.9601     9.2470     6.1259 C.2     
   2 O2            -3.1650     8.3832     6.4303 O.2     
   3 N3            -2.6059    10.7045     7.5155 N.am    
   4 C4            -3.7936    10.6464     6.6598 C.3     
   5 C5            -5.0293    11.0314     7.4756 C.3     
   6 C6            -5.9195     7.6447     3.4884 C.2     
   7 O7            -6.2996     8.7086     3.0474 O.2     
   8 N8            -4.9894     8.9566     5.3058 N.am    
   9 C9            -5.1479     7.5977     4.7820 C.3     
  10 C10           -5.9088     6.7446     5.7990 C.3     
  11 C11           -7.2876     7.3586     6.0496 C.3     
  12 C12           -8.0952     6.4405     6.9694 C.3     
  13 C13           -5.1254     6.6968     7.1124 C.3     
  14 C14           -7.6233     5.2273     1.3399 C.2     
  15 O15           -7.1389     4.2095     1.7874 O.2     
  16 N16           -6.1871     6.5045     2.8215 N.am    
  17 C17           -6.9372     6.5502     1.5640 C.3     
  18 C18           -5.9760     6.8287     0.4066 C.3     
  19 C19           -4.9886     5.6677     0.2731 C.3     
  20 C20           -6.7707     6.9743    -0.8926 C.3     
  21 C21          -10.8803     3.9704     0.5635 C.2     
  22 O22          -11.3765     5.0129     0.9347 O.2     
  23 N23           -8.7752     5.1752     0.6421 N.am    
  24 C24           -9.3923     3.8807     0.3425 C.3     
  25 C25           -9.1147     3.5086    -1.1153 C.3     
  26 C26           -7.6170     3.2571    -1.3012 C.3     
  27 C27           -7.3347     2.9187    -2.7664 C.3     
  28 N28           -5.9006     2.6779    -2.9444 N.pl3   
  29 C29           -5.4067     2.3548    -4.1861 C.2     
  30 N30           -6.2144     2.2626    -5.2049 N.2     
  31 N31           -4.0609     2.1288    -4.3531 N.pl3   
  32 C32          -13.7822     3.8176    -0.4113 C.2     
  33 O33          -13.1084     4.4964    -1.1570 O.2     
  34 N34          -11.6596     2.8920     0.3487 N.am    
  35 C35          -13.1184     2.8404     0.5243 C.3     
  36 C36          -13.5697     1.4033     0.1888 C.3     
  37 C37          -12.2727     0.5758     0.3900 C.3     
  38 C38          -11.1914     1.5706    -0.1075 C.3     
  39 C39          -17.1091     5.2900    -0.7673 C.2     
  40 O40          -17.4873     4.8288     0.2887 O.2     
  41 N41          -15.1246     3.9373    -0.4193 N.am    
  42 C42          -15.7699     4.8874    -1.3288 C.3     
  43 C43          -15.9670     4.2305    -2.6965 C.3     
  44 C44          -14.6073     3.8217    -3.2667 C.3     
  45 C45          -16.8499     2.9903    -2.5442 C.3     
  46 C46          -20.0914     6.9964    -2.0151 C.2     
  47 O47          -19.6873     6.9857    -3.1586 O.2     
  48 N48          -17.8866     6.1626    -1.4385 N.am    
  49 C49          -19.1885     6.5540    -0.8926 C.3     
  50 C50          -19.0013     7.7068     0.0958 C.3     
  51 C51          -21.9262     9.4108    -2.9841 C.2     
  52 O52          -21.1156     9.9634    -2.2709 O.2     
  53 N53          -21.3481     7.4038    -1.7483 N.am    
  54 C54          -22.1895     7.9357    -2.8233 C.3     
  55 C55          -23.6627     7.7157    -2.4741 C.3     
  56 C56          -23.9349     6.2385    -2.3521 C.2     
  57 O57          -23.0695     5.4371    -2.6344 O.2     
  58 N58          -25.1400     5.8080    -1.9292 N.am    
  59 C59          -23.5444    12.2126    -4.6854 C.2     
  60 O60          -24.5234    11.5520    -4.9615 O.2     
  61 N61          -22.5915    10.1160    -3.9203 N.am    
  62 C62          -22.3355    11.5499    -4.0766 C.3     
  63 C63          -21.1264    11.7555    -4.9913 C.3     
  64 C64          -24.2900    15.4415    -6.2285 C.2     
  65 O65          -23.1220    15.7679    -6.2415 O.2     
  66 N66          -23.5376    13.5392    -4.9230 N.am    
  67 C67          -24.7128    14.1834    -5.5148 C.3     
  68 C68          -25.7121    14.5346    -4.4107 C.3     
  69 C69          -26.2358    13.2484    -3.7687 C.3     
  70 C70          -27.2351    13.5996    -2.6646 C.3     
  71 N71          -27.7366    12.3680    -2.0499 N.pl3   
  72 C72          -28.6525    12.4339    -1.0268 C.2     
  73 N73          -29.0748    13.5922    -0.6037 N.2     
  74 N74          -29.1232    11.2781    -0.4500 N.pl3   
  75 C75          -25.9633    18.3809    -7.6151 C.2     
  76 O76          -27.0315    18.0698    -7.1322 O.2     
  77 N77          -25.2098    16.2039    -6.8523 N.am    
  78 C78          -24.7988    17.4270    -7.5461 C.3     
  79 C79          -24.3396    17.0794    -8.9636 C.3     
  80 C80          -23.0816    16.2114    -8.8938 C.3     
  81 C81          -22.6940    15.7607   -10.3036 C.3     
  82 C82          -21.9359    17.0220    -8.2845 C.3     
  83 C83          -26.7697    21.4360    -9.4534 C.2     
  84 O84          -25.7919    21.3334   -10.1634 O.2     
  85 N85          -25.8178    19.5798    -8.2133 N.am    
  86 C86          -26.9500    20.5072    -8.2803 C.3     
  87 C87          -27.0171    21.3243    -6.9885 C.3     
  88 C88          -27.3243    20.3949    -5.8126 C.3     
  89 C89          -27.3914    21.2119    -4.5208 C.3     
  90 N90          -27.6855    20.3220    -3.3949 N.pl3   
  91 C91          -27.7944    20.8345    -2.1238 C.2     
  92 N92          -28.0561    20.0427    -1.1220 N.2     
  93 N93          -27.6273    22.1822    -1.9094 N.pl3   
  94 C94          -28.2740    24.5638   -10.6012 C.2     
  95 O95          -28.8964    24.7078    -9.5703 O.2     
  96 N96          -27.6952    22.3807    -9.7133 N.am    
  97 C97          -27.5200    23.2836   -10.8536 C.3     
  98 C98          -28.0587    22.6157   -12.1204 C.3     
  99 C99          -27.2128    21.3832   -12.4463 C.3     
 100 C100         -27.8249    20.6453   -13.6387 C.3     
 101 C101         -25.7881    21.8198   -12.7934 C.3     
 102 C102         -28.3629    27.9102   -12.0698 C.2     
 103 O103         -27.3990    27.6885   -12.7717 O.2     
 104 N104         -28.2566    25.5487   -11.5211 N.am    
 105 C105         -28.9896    26.7932   -11.2757 C.3     
 106 C106         -30.4481    26.6189   -11.7038 C.3     
 107 C107         -31.1194    25.5715   -10.8133 C.3     
 108 C108         -32.5779    25.3973   -11.2414 C.3     
 109 N109         -33.2207    24.3943   -10.3887 N.pl3   
 110 C110         -34.5414    24.0681   -10.5870 C.2     
 111 N111         -35.1133    23.1758    -9.8283 N.2     
 112 N112         -35.2590    24.6831   -11.5855 N.pl3   
 113 C113         -28.5641    31.5600   -12.1070 C.2     
 114 O114         -29.4868    31.6489   -11.3249 O.2     
 115 N115         -28.8737    29.1554   -12.0001 N.am    
 116 C116         -28.2645    30.2413   -12.7721 C.3     
 117 C117         -28.8388    30.2433   -14.1902 C.3     
 118 C118         -28.4256    28.9577   -14.9096 C.3     
 119 C119         -30.3652    30.3217   -14.1222 C.3     
 120 C120         -26.7587    34.7070   -11.6595 C.2     
 121 O121         -25.7681    34.2823   -12.2156 O.2     
 122 N122         -27.8066    32.6405   -12.3811 N.am    
 123 C123         -28.0271    33.8932   -11.6543 C.3     
 124 C124         -29.1450    34.6869   -12.3334 C.3     
 125 O125         -28.7244    35.0780   -13.6419 O.3     
 126 C126         -25.7190    37.9863   -10.3035 C.2     
 127 O127         -26.7997    38.2199    -9.8164 O.2     
 128 N128         -26.7252    35.9066   -11.0462 N.am    
 129 C129         -25.4921    36.6977   -11.0512 C.3     
 130 O130         -24.7204    38.8746   -10.1787 O.3     
 131 C131          -1.9623    11.8748     7.6965 C.2     
 132 O132          -2.3665    12.8798     7.1510 O.2     
 133 C133          11.6772    22.3939    15.0788 C.3     
 134 C134          10.4368    22.3332    14.1851 C.3     
 135 C135           9.9032    20.8997    14.1499 C.3     
 136 C136           8.6629    20.8390    13.2562 C.3     
 137 C137           8.1293    19.4055    13.2211 C.3     
 138 C138           6.8889    19.3448    12.3274 C.3     
 139 C139           6.3553    17.9113    12.2922 C.3     
 140 C140           5.1149    17.8506    11.3985 C.3     
 141 C141           4.5813    16.4171    11.3634 C.3     
 142 C142           3.3409    16.3564    10.4697 C.3     
 143 C143           2.8073    14.9229    10.4345 C.3     
 144 C144           1.5670    14.8622     9.5408 C.3     
 145 C145           1.0334    13.4287     9.5056 C.3     
 146 C146          -0.2070    13.3680     8.6119 C.3     
 147 C147          -0.7406    11.9345     8.5768 C.3     
 148 H148          -2.2826     9.9007     7.9518 H       
 149 H149          -3.6764    11.3410     5.8280 H       
 150 H150          -4.9088    12.0436     7.8617 H       
 151 H151          -5.9130    10.9882     6.8389 H       
 152 H152          -5.1464    10.3368     8.3074 H       
 153 H153          -5.6254     9.6474     5.0624 H       
 154 H154          -4.1656     7.1603     4.6035 H       
 155 H155          -6.0267     5.7335     5.4093 H       
 156 H156          -7.1706     8.3341     6.5216 H       
 157 H157          -7.8116     7.4745     5.1009 H       
 158 H158          -9.0774     6.8779     7.1479 H       
 159 H159          -8.2122     5.4650     6.4974 H       
 160 H160          -7.5712     6.3246     7.9181 H       
 161 H161          -4.1431     6.2594     6.9338 H       
 162 H162          -5.0075     7.7079     7.5021 H       
 163 H163          -5.6675     6.0891     7.8369 H       
 164 H164          -5.8831     5.6535     3.1742 H       
 165 H165          -7.6839     7.3427     1.6149 H       
 166 H166          -5.4285     7.7506     0.6029 H       
 167 H167          -5.5282     4.7617    -0.0027 H       
 168 H168          -4.2542     5.9020    -0.4975 H       
 169 H169          -4.4798     5.5121     1.2245 H       
 170 H170          -7.4415     7.8299    -0.8143 H       
 171 H171          -6.0828     7.1269    -1.7242 H       
 172 H172          -7.3541     6.0698    -1.0650 H       
 173 H173          -9.1957     5.9948     0.3383 H       
 174 H174          -8.9728     3.1178     0.9984 H       
 175 H175          -9.6692     2.6060    -1.3718 H       
 176 H176          -9.4294     4.3253    -1.7650 H       
 177 H177          -7.0608     4.1518    -1.0213 H       
 178 H178          -7.3072     2.4244    -0.6698 H       
 179 H179          -7.8908     2.0240    -3.0463 H       
 180 H180          -7.6444     3.7514    -3.3978 H       
 181 H181          -5.2995     2.7465    -2.1861 H       
 182 H182          -5.8660     2.0346    -6.0810 H       
 183 H183          -3.4598     2.1974    -3.5949 H       
 184 H184          -3.7125     1.9008    -5.2292 H       
 185 H185         -13.3763     3.0811     1.5557 H       
 186 H186         -14.3483     1.0731     0.8765 H       
 187 H187         -13.9126     1.3379    -0.8438 H       
 188 H188         -12.1264     0.3281     1.4413 H       
 189 H189         -12.2847    -0.3248    -0.2240 H       
 190 H190         -11.1227     1.5472    -1.1951 H       
 191 H191         -10.2256     1.3353     0.3396 H       
 192 H192         -15.6635     3.3944     0.1772 H       
 193 H193         -15.1409     5.7709    -1.4374 H       
 194 H194         -16.4471     4.9374    -3.3733 H       
 195 H195         -14.1272     3.1149    -2.5900 H       
 196 H196         -14.7477     3.3538    -4.2411 H       
 197 H197         -13.9783     4.7053    -3.3752 H       
 198 H198         -17.8185     3.2815    -2.1380 H       
 199 H199         -16.9903     2.5223    -3.5186 H       
 200 H200         -16.3698     2.2834    -1.8675 H       
 201 H201         -17.5841     6.5315    -2.2831 H       
 202 H202         -19.6374     5.7040    -0.3787 H       
 203 H203         -19.9700     7.9980     0.5020 H       
 204 H204         -18.3482     7.3869     0.9077 H       
 205 H205         -18.5524     8.5568    -0.4181 H       
 206 H206         -21.6956     7.3448    -0.8446 H       
 207 H207         -21.9563     7.4213    -3.7555 H       
 208 H208         -23.8890     8.2063    -1.5274 H       
 209 H209         -24.2893     8.1368    -3.2604 H       
 210 H210         -25.8322     6.4489    -1.7035 H       
 211 H211         -25.3152     4.8572    -1.8507 H       
 212 H212         -23.2398     9.6740    -4.4906 H       
 213 H213         -22.1321    11.9912    -3.1009 H       
 214 H214         -21.3299    11.3142    -5.9671 H       
 215 H215         -20.9360    12.8224    -5.1076 H       
 216 H216         -20.2521    11.2762    -4.5510 H       
 217 H217         -22.7547    14.0675    -4.7021 H       
 218 H218         -25.1811    13.5024    -6.2254 H       
 219 H219         -25.2178    15.1434    -3.6536 H       
 220 H220         -26.5451    15.0925    -4.8385 H       
 221 H221         -26.7301    12.6396    -4.5258 H       
 222 H222         -25.4028    12.6905    -3.3408 H       
 223 H223         -26.7408    14.2084    -1.9075 H       
 224 H224         -28.0680    14.1575    -3.0925 H       
 225 H225         -27.4223    11.5060    -2.3648 H       
 226 H226         -29.7210    13.6387     0.1181 H       
 227 H227         -28.8089    10.4161    -0.7648 H       
 228 H228         -29.7694    11.3246     0.2719 H       
 229 H229         -26.1440    15.9428    -6.8419 H       
 230 H230         -23.9777    17.8946    -7.0026 H       
 231 H231         -25.1301    16.5328    -9.4778 H       
 232 H232         -24.1182    17.9968    -9.5090 H       
 233 H233         -23.2777    15.3367    -8.2737 H       
 234 H234         -22.4980    16.6354   -10.9236 H       
 235 H235         -21.7978    15.1423   -10.2538 H       
 236 H236         -23.5103    15.1832   -10.7376 H       
 237 H237         -21.7398    17.8967    -8.9046 H       
 238 H238         -22.2120    17.3431    -7.2801 H       
 239 H239         -21.0396    16.4036    -8.2347 H       
 240 H240         -24.9635    19.8287    -8.5995 H       
 241 H241         -27.8748    19.9434    -8.4021 H       
 242 H242         -26.0600    21.8182    -6.8209 H       
 243 H243         -27.8032    22.0746    -7.0736 H       
 244 H244         -28.2814    19.9010    -5.9803 H       
 245 H245         -26.5382    19.6446    -5.7275 H       
 246 H246         -26.4343    21.7058    -4.3531 H       
 247 H247         -28.1775    21.9622    -4.6059 H       
 248 H248         -27.8034    19.3711    -3.5461 H       
 249 H249         -28.1330    20.4043    -0.2252 H       
 250 H250         -27.4326    22.7714    -2.6549 H       
 251 H251         -27.7042    22.5438    -1.0126 H       
 252 H252         -28.4773    22.4628    -9.1454 H       
 253 H253         -26.4605    23.5052   -10.9822 H       
 254 H254         -29.0937    22.3140   -11.9600 H       
 255 H255         -28.0101    23.3198   -12.9511 H       
 256 H256         -27.1890    20.7199   -11.5817 H       
 257 H257         -27.8486    21.3087   -14.5032 H       
 258 H258         -27.2222    19.7673   -13.8709 H       
 259 H259         -28.8399    20.3343   -13.3914 H       
 260 H260         -25.8118    22.4831   -13.6580 H       
 261 H261         -25.3520    22.3455   -11.9440 H       
 262 H262         -25.1854    20.9417   -13.0256 H       
 263 H263         -27.7588    25.4335   -12.3456 H       
 264 H264         -28.9491    27.0353   -10.2137 H       
 265 H265         -30.9719    27.5697   -11.6047 H       
 266 H266         -30.4851    26.2903   -12.7424 H       
 267 H267         -30.5956    24.6208   -10.9124 H       
 268 H268         -31.0824    25.9001    -9.7746 H       
 269 H269         -33.1017    26.3480   -11.1422 H       
 270 H270         -32.6149    25.0687   -12.2800 H       
 271 H271         -32.7144    23.9604    -9.6842 H       
 272 H272         -36.0452    22.9456    -9.9682 H       
 273 H273         -34.8334    25.3472   -12.1501 H       
 274 H274         -36.1908    24.4529   -11.7254 H       
 275 H275         -29.6446    29.3327   -11.4387 H       
 276 H276         -27.1854    30.0940   -12.8173 H       
 277 H277         -28.4547    31.1048   -14.7365 H       
 278 H278         -28.9192    28.1054   -14.4426 H       
 279 H279         -28.7185    29.0177   -15.9578 H       
 280 H280         -27.3449    28.8341   -14.8408 H       
 281 H281         -30.6595    31.2376   -13.6097 H       
 282 H282         -30.7743    30.3231   -15.1325 H       
 283 H283         -30.7493    29.4602   -13.5759 H       
 284 H284         -27.1154    32.5887   -13.0597 H       
 285 H285         -28.3121    33.6712   -10.6259 H       
 286 H286         -30.0374    34.0655   -12.4092 H       
 287 H287         -29.3700    35.5753   -11.7433 H       
 288 H288         -29.3852    35.5863   -14.1319 H       
 289 H289         -27.5175    36.2462   -10.6014 H       
 290 H290         -25.2071    36.9197   -12.0796 H       
 291 H291         -24.6957    36.1323   -10.5674 H       
 292 H292         -24.9136    39.6866    -9.6906 H       
 293 H293          11.4132    22.0796    16.0886 H       
 294 H294          12.4447    21.7302    14.6806 H       
 295 H295          12.0574    23.4152    15.1039 H       
 296 H296           9.6693    22.9969    14.5833 H       
 297 H297          10.7008    22.6475    13.1753 H       
 298 H298          10.6708    20.2360    13.7518 H       
 299 H299           9.6393    20.5854    15.1597 H       
 300 H300           7.8954    21.5027    13.6544 H       
 301 H301           8.9268    21.1533    12.2465 H       
 302 H302           8.8968    18.7418    12.8229 H       
 303 H303           7.8653    19.0912    14.2308 H       
 304 H304           6.1214    20.0085    12.7255 H       
 305 H305           7.1529    19.6591    11.3176 H       
 306 H306           7.1228    17.2476    11.8941 H       
 307 H307           6.0913    17.5970    13.3020 H       
 308 H308           4.3474    18.5144    11.7967 H       
 309 H309           5.3789    18.1649    10.3888 H       
 310 H310           5.3488    15.7534    10.9652 H       
 311 H311           4.3173    16.1028    12.3731 H       
 312 H312           2.5734    17.0202    10.8678 H       
 313 H313           3.6049    16.6707     9.4599 H       
 314 H314           3.5748    14.2592    10.0363 H       
 315 H315           2.5434    14.6086    11.4443 H       
 316 H316           0.7995    15.5260     9.9390 H       
 317 H317           1.8309    15.1765     8.5310 H       
 318 H318           1.8009    12.7650     9.1075 H       
 319 H319           0.7694    13.1144    10.5154 H       
 320 H320          -0.9745    14.0318     9.0101 H       
 321 H321           0.0570    13.6824     7.6022 H       
 322 H322          -1.0046    11.6202     9.5865 H       
 323 H323           0.0269    11.2708     8.1786 H       
@<TRIPOS>BOND
   1    1    2 2
   2    1    4 1
   3    1    8 am
   4    3  131 am
   5    3    4 1
   6    3  148 1
   7    4    5 1
   8    4  149 1
   9    5  150 1
  10    5  151 1
  11    5  152 1
  12    6    7 2
  13    6    9 1
  14    6   16 am
  15    8    9 1
  16    8  153 1
  17    9   10 1
  18    9  154 1
  19   10   11 1
  20   10   13 1
  21   10  155 1
  22   11   12 1
  23   11  156 1
  24   11  157 1
  25   12  158 1
  26   12  159 1
  27   12  160 1
  28   13  161 1
  29   13  162 1
  30   13  163 1
  31   14   15 2
  32   14   17 1
  33   14   23 am
  34   16   17 1
  35   16  164 1
  36   17   18 1
  37   17  165 1
  38   18   19 1
  39   18   20 1
  40   18  166 1
  41   19  167 1
  42   19  168 1
  43   19  169 1
  44   20  170 1
  45   20  171 1
  46   20  172 1
  47   21   22 2
  48   21   24 1
  49   21   34 am
  50   23   24 1
  51   23  173 1
  52   24   25 1
  53   24  174 1
  54   25   26 1
  55   25  175 1
  56   25  176 1
  57   26   27 1
  58   26  177 1
  59   26  178 1
  60   27   28 1
  61   27  179 1
  62   27  180 1
  63   28   29 1
  64   28  181 1
  65   29   30 2
  66   29   31 1
  67   30  182 1
  68   31  183 1
  69   31  184 1
  70   32   33 2
  71   32   41 am
  72   32   35 1
  73   34   35 1
  74   34   38 1
  75   35   36 1
  76   35  185 1
  77   36   37 1
  78   36  186 1
  79   36  187 1
  80   37   38 1
  81   37  188 1
  82   37  189 1
  83   38  190 1
  84   38  191 1
  85   39   40 2
  86   39   42 1
  87   39   48 am
  88   41   42 1
  89   41  192 1
  90   42   43 1
  91   42  193 1
  92   43   44 1
  93   43   45 1
  94   43  194 1
  95   44  195 1
  96   44  196 1
  97   44  197 1
  98   45  198 1
  99   45  199 1
 100   45  200 1
 101   46   47 2
 102   46   49 1
 103   46   53 am
 104   48   49 1
 105   48  201 1
 106   49   50 1
 107   49  202 1
 108   50  203 1
 109   50  204 1
 110   50  205 1
 111   51   52 2
 112   51   54 1
 113   51   61 am
 114   53   54 1
 115   53  206 1
 116   54   55 1
 117   54  207 1
 118   55   56 1
 119   55  208 1
 120   55  209 1
 121   56   57 2
 122   56   58 am
 123   58  210 1
 124   58  211 1
 125   59   60 2
 126   59   62 1
 127   59   66 am
 128   61   62 1
 129   61  212 1
 130   62   63 1
 131   62  213 1
 132   63  214 1
 133   63  215 1
 134   63  216 1
 135   64   65 2
 136   64   67 1
 137   64   77 am
 138   66   67 1
 139   66  217 1
 140   67   68 1
 141   67  218 1
 142   68   69 1
 143   68  219 1
 144   68  220 1
 145   69   70 1
 146   69  221 1
 147   69  222 1
 148   70   71 1
 149   70  223 1
 150   70  224 1
 151   71   72 1
 152   71  225 1
 153   72   73 2
 154   72   74 1
 155   73  226 1
 156   74  227 1
 157   74  228 1
 158   75   76 2
 159   75   78 1
 160   75   85 am
 161   77   78 1
 162   77  229 1
 163   78   79 1
 164   78  230 1
 165   79   80 1
 166   79  231 1
 167   79  232 1
 168   80   81 1
 169   80   82 1
 170   80  233 1
 171   81  234 1
 172   81  235 1
 173   81  236 1
 174   82  237 1
 175   82  238 1
 176   82  239 1
 177   83   84 2
 178   83   86 1
 179   83   96 am
 180   85   86 1
 181   85  240 1
 182   86   87 1
 183   86  241 1
 184   87   88 1
 185   87  242 1
 186   87  243 1
 187   88   89 1
 188   88  244 1
 189   88  245 1
 190   89   90 1
 191   89  246 1
 192   89  247 1
 193   90   91 1
 194   90  248 1
 195   91   92 2
 196   91   93 1
 197   92  249 1
 198   93  250 1
 199   93  251 1
 200   94   95 2
 201   94   97 1
 202   94  104 am
 203   96   97 1
 204   96  252 1
 205   97   98 1
 206   97  253 1
 207   98   99 1
 208   98  254 1
 209   98  255 1
 210   99  100 1
 211   99  101 1
 212   99  256 1
 213  100  257 1
 214  100  258 1
 215  100  259 1
 216  101  260 1
 217  101  261 1
 218  101  262 1
 219  102  103 2
 220  102  105 1
 221  102  115 am
 222  104  105 1
 223  104  263 1
 224  105  106 1
 225  105  264 1
 226  106  107 1
 227  106  265 1
 228  106  266 1
 229  107  108 1
 230  107  267 1
 231  107  268 1
 232  108  109 1
 233  108  269 1
 234  108  270 1
 235  109  110 1
 236  109  271 1
 237  110  111 2
 238  110  112 1
 239  111  272 1
 240  112  273 1
 241  112  274 1
 242  113  114 2
 243  113  116 1
 244  113  122 am
 245  115  116 1
 246  115  275 1
 247  116  117 1
 248  116  276 1
 249  117  118 1
 250  117  119 1
 251  117  277 1
 252  118  278 1
 253  118  279 1
 254  118  280 1
 255  119  281 1
 256  119  282 1
 257  119  283 1
 258  120  121 2
 259  120  123 1
 260  120  128 am
 261  122  123 1
 262  122  284 1
 263  123  124 1
 264  123  285 1
 265  124  125 1
 266  124  286 1
 267  124  287 1
 268  125  288 1
 269  126  127 2
 270  126  129 1
 271  126  130 1
 272  128  129 1
 273  128  289 1
 274  129  290 1
 275  129  291 1
 276  130  292 1
 277  131  132 2
 278  131  147 1
 279  133  134 1
 280  133  293 1
 281  133  294 1
 282  133  295 1
 283  134  135 1
 284  134  296 1
 285  134  297 1
 286  135  136 1
 287  135  298 1
 288  135  299 1
 289  136  137 1
 290  136  300 1
 291  136  301 1
 292  137  138 1
 293  137  302 1
 294  137  303 1
 295  138  139 1
 296  138  304 1
 297  138  305 1
 298  139  140 1
 299  139  306 1
 300  139  307 1
 301  140  141 1
 302  140  308 1
 303  140  309 1
 304  141  142 1
 305  141  310 1
 306  141  311 1
 307  142  143 1
 308  142  312 1
 309  142  313 1
 310  143  144 1
 311  143  314 1
 312  143  315 1
 313  144  145 1
 314  144  316 1
 315  144  317 1
 316  145  146 1
 317  145  318 1
 318  145  319 1
 319  146  147 1
 320  146  320 1
 321  146  321 1
 322  147  322 1
 323  147  323 1

#	End of record

