#	Name: ASD09116037
#	Creating user name:	WinNT
#	Creation time:	15. 06. 2019 21:20

#	Modifying user name:	WinNT
#	Modification time:	15. 06. 2019 21:20

#	Program:	/corina/corina34_cracker 3.40 0067  02.08.2006

@<TRIPOS>MOLECULE
ASD09116037
  30   32    0    0    0
SMALL
NO_CHARGES


@<TRIPOS>ATOM
   1 C1            -0.0168     1.3881     0.0097 C.ar    
   2 C2             0.0021    -0.0041     0.0020 C.ar    
   3 C3            -1.3057    -0.7736    -0.0458 C.3     
   4 C4            -2.0416    -0.6140     1.2800 C.3     
   5 C5            -2.9170     0.6333     1.2859 C.3     
   6 C6            -2.1356     1.9200     1.3310 C.3     
   7 C7            -1.3163     2.0859     0.0720 C.2     
   8 C8             1.1804     2.1025     0.0021 C.ar    
   9 C9             2.3793     1.4162     0.0080 C.ar    
  10 C10            2.3908     0.0328     0.0220 C.ar    
  11 C11            1.2025    -0.6794     0.0195 C.ar    
  12 C12           -3.0379     3.1291     1.5449 C.3     
  13 C13           -3.6769     3.5330     0.2412 C.2     
  14 N14           -2.9876     3.4121    -0.9088 N.am    
  15 N15           -1.7425     2.7789    -0.9269 N.2     
  16 O16           -4.8101     3.9659     0.2280 O.2     
  17 H17           -1.9257    -0.3858    -0.8541 H       
  18 H18           -1.0994    -1.8294    -0.2217 H       
  19 H19           -2.6684    -1.4899     1.4472 H       
  20 H20           -1.3115    -0.5407     2.0861 H       
  21 H21           -3.5330     0.6310     0.3867 H       
  22 H22           -3.5738     0.5939     2.1549 H       
  23 H23           -1.4494     1.8697     2.1763 H       
  24 H24            1.1707     3.1824    -0.0087 H       
  25 H25            3.3114     1.9618     0.0012 H       
  26 H26            3.3327    -0.4956     0.0346 H       
  27 H27            1.2172    -1.7592     0.0317 H       
  28 H28           -3.8154     2.8771     2.2660 H       
  29 H29           -2.4453     3.9590     1.9297 H       
  30 H30           -3.3585     3.7675    -1.7316 H       
@<TRIPOS>BOND
   1    1    2 ar
   2    1    8 ar
   3    1    7 1
   4    2    3 1
   5    2   11 ar
   6    3    4 1
   7    3   17 1
   8    3   18 1
   9    4    5 1
  10    4   19 1
  11    4   20 1
  12    5    6 1
  13    5   21 1
  14    5   22 1
  15    6    7 1
  16    6   12 1
  17    6   23 1
  18    7   15 2
  19    8    9 ar
  20    8   24 1
  21    9   10 ar
  22    9   25 1
  23   10   11 ar
  24   10   26 1
  25   11   27 1
  26   12   13 1
  27   12   28 1
  28   12   29 1
  29   13   14 am
  30   13   16 2
  31   14   15 1
  32   14   30 1

#	End of record

