#	Name: ASD01350043
#	Creating user name:	WinNT
#	Creation time:	15. 06. 2019 19:16

#	Modifying user name:	WinNT
#	Modification time:	15. 06. 2019 19:16

#	Program:	/corina/corina34_cracker 3.40 0067  02.08.2006

@<TRIPOS>MOLECULE
ASD01350043
  59   63    0    0    0
SMALL
NO_CHARGES


@<TRIPOS>ATOM
   1 C1             0.0302     1.3329    -0.3068 C.ar    
   2 C2             0.0712    -0.0596    -0.3106 C.ar    
   3 C3             1.2536    -0.7277    -0.2208 C.ar    
   4 C4             2.4562    -0.0069    -0.1226 C.ar    
   5 C5             2.4122     1.4095    -0.1194 C.ar    
   6 C6             1.1744     2.0653    -0.2132 C.ar    
   7 N7             3.6324    -0.6361    -0.0326 N.ar    
   8 C8             4.7568     0.0313     0.0595 C.ar    
   9 C9             4.7840     1.4244     0.0682 C.ar    
  10 C10            3.6178     2.1296    -0.0211 C.ar    
  11 C11            3.6215     3.6365    -0.0136 C.3     
  12 C12            3.6184     4.1537    -1.4535 C.3     
  13 N13            3.4045     5.6071    -1.4518 N.3     
  14 C14            3.3489     6.1343    -2.8223 C.3     
  15 C15            4.6872     5.8758    -3.5201 C.3     
  16 C16            5.6245     5.1554    -2.5426 C.3     
  17 C17            4.9648     3.8393    -2.1122 C.3     
  18 H18            2.8179     3.6690    -2.0123 H       
  19 C19            4.4647     5.0127    -4.7352 C.2     
  20 C20            5.8101     6.0383    -1.3020 C.3     
  21 C21            4.4403     6.2923    -0.6664 C.3     
  22 C22            4.7938     5.4564    -5.9230 C.2     
  23 O23            4.8102     4.1143     0.6697 O.3     
  24 C24            4.7138     4.3117     1.9988 C.2     
  25 C25            5.8832     4.7969     2.7602 C.ar    
  26 O26            3.6655     4.0909     2.5712 O.2     
  27 C27            5.7867     5.0026     4.1378 C.ar    
  28 C28            6.8825     5.4558     4.8427 C.ar    
  29 C29            8.0752     5.7064     4.1875 C.ar    
  30 C30            8.1775     5.5051     2.8223 C.ar    
  31 C31            7.0914     5.0463     2.1063 C.ar    
  32 C32            9.2680     6.2014     4.9641 C.3     
  33 H33           -0.9212     1.8383    -0.3834 H       
  34 H34           -0.8502    -0.6180    -0.3858 H       
  35 H35            1.2676    -1.8076    -0.2245 H       
  36 H36            1.1300     3.1444    -0.2112 H       
  37 H37            5.6868    -0.5130     0.1309 H       
  38 H38            5.7265     1.9461     0.1452 H       
  39 H39            2.7339     3.9994     0.5047 H       
  40 H40            2.5502     5.6358    -3.3716 H       
  41 H41            3.1557     7.2066    -2.7920 H       
  42 H42            5.1318     6.8246    -3.8202 H       
  43 H43            6.5832     4.9552    -3.0212 H       
  44 H44            5.6086     3.3240    -1.3994 H       
  45 H45            4.8052     3.2078    -2.9861 H       
  46 H46            4.0340     4.0282    -4.6267 H       
  47 H47            6.4565     5.5309    -0.5860 H       
  48 H48            6.2592     6.9878    -1.5934 H       
  49 H49            4.2382     7.3634    -0.6538 H       
  50 H50            4.4361     5.9090     0.3539 H       
  51 H51            5.2245     6.4409    -6.0314 H       
  52 H52            4.6344     4.8379    -6.7938 H       
  53 H53            4.8563     4.8077     4.6504 H       
  54 H54            6.8092     5.6157     5.9082 H       
  55 H55            9.1113     5.7030     2.3171 H       
  56 H56            7.1726     4.8896     1.0408 H       
  57 H57            9.8505     5.3503     5.3170 H       
  58 H58            9.8884     6.8240     4.3195 H       
  59 H59            8.9280     6.7878     5.8177 H       
@<TRIPOS>BOND
   1    1    2 ar
   2    1    6 ar
   3    1   33 1
   4    2    3 ar
   5    2   34 1
   6    3    4 ar
   7    3   35 1
   8    4    5 ar
   9    4    7 ar
  10    5    6 ar
  11    5   10 ar
  12    6   36 1
  13    7    8 ar
  14    8    9 ar
  15    8   37 1
  16    9   10 ar
  17    9   38 1
  18   10   11 1
  19   11   12 1
  20   11   23 1
  21   11   39 1
  22   12   13 1
  23   12   18 1
  24   12   17 1
  25   13   14 1
  26   13   21 1
  27   14   15 1
  28   14   40 1
  29   14   41 1
  30   15   16 1
  31   15   19 1
  32   15   42 1
  33   16   17 1
  34   16   20 1
  35   16   43 1
  36   17   44 1
  37   17   45 1
  38   19   22 2
  39   19   46 1
  40   20   21 1
  41   20   47 1
  42   20   48 1
  43   21   49 1
  44   21   50 1
  45   22   51 1
  46   22   52 1
  47   23   24 1
  48   24   25 1
  49   24   26 2
  50   25   27 ar
  51   25   31 ar
  52   27   28 ar
  53   27   53 1
  54   28   29 ar
  55   28   54 1
  56   29   30 ar
  57   29   32 1
  58   30   31 ar
  59   30   55 1
  60   31   56 1
  61   32   57 1
  62   32   58 1
  63   32   59 1

#	End of record

