#	Name: ASD01816346
#	Creating user name:	WinNT
#	Creation time:	15. 06. 2019 19:35

#	Modifying user name:	WinNT
#	Modification time:	15. 06. 2019 19:35

#	Program:	/corina/corina34_cracker 3.40 0067  02.08.2006

@<TRIPOS>MOLECULE
ASD01816346
  58   64    0    0    0
SMALL
NO_CHARGES


@<TRIPOS>ATOM
   1 C1             0.5662     0.8791     0.2786 C.ar    
   2 C2             0.6431    -0.5028     0.2166 C.ar    
   3 C3             1.8637    -1.1343     0.0968 C.ar    
   4 C4             3.0330    -0.3844     0.0370 C.ar    
   5 C5             2.9516     1.0167     0.1001 C.ar    
   6 C6             1.7148     1.6417     0.2209 C.ar    
   7 N7             4.2609    -1.0118    -0.0828 N.pl3   
   8 C8             5.4222    -0.3405    -0.1447 C.2     
   9 C9             5.4672     1.0305    -0.0925 C.2     
  10 C10            4.2044     1.7932     0.0349 C.2     
  11 C11            6.5197     2.0410    -0.1328 C.2     
  12 N12            5.8978     3.2360    -0.0372 N.am    
  13 N13            4.5157     3.0571     0.0616 N.2     
  14 O14            7.7197     1.8455    -0.2326 O.2     
  15 C15            4.2952    -2.4752    -0.1443 C.3     
  16 C16            4.1981    -2.9200    -1.5808 C.ar    
  17 C17            5.3481    -3.0918    -2.3292 C.ar    
  18 C18            5.2622    -3.4990    -3.6462 C.ar    
  19 C19            4.0197    -3.7362    -4.2184 C.ar    
  20 C20            2.8668    -3.5632    -3.4643 C.ar    
  21 C21            2.9594    -3.1609    -2.1463 C.ar    
  22 N22            3.9292    -4.1491    -5.5550 N.pl3   
  23 C23            2.7882    -4.4129    -6.2310 C.2     
  24 C24            3.1297    -4.7797    -7.4880 C.2     
  25 C25            4.5250    -4.7392    -7.5844 C.2     
  26 N26            5.0046    -4.3556    -6.4287 N.2     
  27 C27            6.5409     4.4680    -0.0371 C.ar    
  28 N28            6.9570     5.0093     1.0973 N.ar    
  29 C29            7.5700     6.1791     1.1130 C.ar    
  30 N30            7.7983     6.8638     0.0163 N.ar    
  31 C31            7.4153     6.3996    -1.1790 C.ar    
  32 C32            6.7670     5.1624    -1.2522 C.ar    
  33 S33            7.5784     7.0761    -2.7928 S.3     
  34 C34            6.7740     5.7002    -3.5239 C.2     
  35 C35            6.4216     4.8103    -2.6162 C.2     
  36 C36            5.7125     3.5282    -2.9688 C.3     
  37 C37            6.5219     5.5508    -5.0022 C.3     
  38 H38           -0.3961     1.3613     0.3679 H       
  39 H39           -0.2612    -1.0914     0.2628 H       
  40 H40            1.9111    -2.2123     0.0497 H       
  41 H41            1.6538     2.7188     0.2697 H       
  42 H42            6.3451    -0.8937    -0.2376 H       
  43 H43            5.2303    -2.8350     0.2851 H       
  44 H44            3.4560    -2.8823     0.4197 H       
  45 H45            6.3144    -2.9071    -1.8836 H       
  46 H46            6.1607    -3.6323    -4.2305 H       
  47 H47            1.8989    -3.7466    -3.9068 H       
  48 H48            2.0630    -3.0262    -1.5592 H       
  49 H49            1.7845    -4.3438    -5.8382 H       
  50 H50            2.4461    -5.0552    -8.2773 H       
  51 H51            5.1060    -4.9787    -8.4628 H       
  52 H52            7.8939     6.5861     2.0595 H       
  53 H53            6.4421     2.7242    -3.0656 H       
  54 H54            4.9996     3.2792    -2.1827 H       
  55 H55            5.1828     3.6538    -3.9132 H       
  56 H56            6.9150     6.4213    -5.5275 H       
  57 H57            7.0188     4.6516    -5.3665 H       
  58 H58            5.4498     5.4716    -5.1818 H       
@<TRIPOS>BOND
   1    1    2 ar
   2    1    6 ar
   3    1   38 1
   4    2    3 ar
   5    2   39 1
   6    3    4 ar
   7    3   40 1
   8    4    5 ar
   9    4    7 1
  10    5    6 ar
  11    5   10 1
  12    6   41 1
  13    7    8 1
  14    7   15 1
  15    8    9 2
  16    8   42 1
  17    9   10 1
  18    9   11 1
  19   10   13 2
  20   11   12 am
  21   11   14 2
  22   12   13 1
  23   12   27 1
  24   15   16 1
  25   15   43 1
  26   15   44 1
  27   16   17 ar
  28   16   21 ar
  29   17   18 ar
  30   17   45 1
  31   18   19 ar
  32   18   46 1
  33   19   20 ar
  34   19   22 1
  35   20   21 ar
  36   20   47 1
  37   21   48 1
  38   22   23 1
  39   22   26 1
  40   23   24 2
  41   23   49 1
  42   24   25 1
  43   24   50 1
  44   25   26 2
  45   25   51 1
  46   27   28 ar
  47   27   32 ar
  48   28   29 ar
  49   29   30 ar
  50   29   52 1
  51   30   31 ar
  52   31   32 ar
  53   31   33 1
  54   32   35 1
  55   33   34 1
  56   34   35 2
  57   34   37 1
  58   35   36 1
  59   36   53 1
  60   36   54 1
  61   36   55 1
  62   37   56 1
  63   37   57 1
  64   37   58 1

#	End of record

