#	Name: ASD04880294
#	Creating user name:	WinNT
#	Creation time:	15. 06. 2019 20:53

#	Modifying user name:	WinNT
#	Modification time:	15. 06. 2019 20:53

#	Program:	/corina/corina34_cracker 3.40 0067  02.08.2006

@<TRIPOS>MOLECULE
ASD04880294
  42   46    0    0    0
SMALL
NO_CHARGES


@<TRIPOS>ATOM
   1 C1            -0.0122     1.4644     0.0381 C.3     
   2 N2             0.0038    -0.0070     0.0400 N.am    
   3 N3             1.3265    -0.4432     0.0802 N.2     
   4 C4             2.1943     0.5091     0.1054 C.2     
   5 C5             1.4816     1.8424     0.0827 C.3     
   6 C6            -1.0835    -0.8028     0.0085 C.2     
   7 C7            -0.9244    -2.2649    -0.1123 C.ar    
   8 O8            -2.1958    -0.3159     0.0796 O.2     
   9 C9             0.3407    -2.8160    -0.3324 C.ar    
  10 C10            3.6564     0.3266     0.1505 C.ar    
  11 C11            4.5010     1.4390     0.1752 C.ar    
  12 C12            5.8679     1.2646     0.2165 C.ar    
  13 C13            6.4106    -0.0136     0.2334 C.ar    
  14 C14            5.5746    -1.1266     0.2117 C.ar    
  15 C15            4.2019    -0.9593     0.1745 C.ar    
  16 O16            6.0911    -2.3860     0.2353 O.3     
  17 O17            7.7633    -0.1611     0.2665 O.3     
  18 C18            7.4761    -2.5198    -0.1020 C.3     
  19 C19            8.2618    -1.4440     0.6600 C.3     
  20 C20           -2.0375    -3.1021    -0.0012 C.ar    
  21 C21           -1.8870    -4.4668    -0.1137 C.ar    
  22 C22           -0.6311    -5.0154    -0.3372 C.ar    
  23 C23            0.4854    -4.1851    -0.4444 C.ar    
  24 O24           -0.2260    -6.3094    -0.4825 O.3     
  25 C25            1.0767    -6.2395    -1.0913 C.3     
  26 O26            1.5868    -4.9624    -0.6613 O.3     
  27 H27           -0.4763     1.8418    -0.8731 H       
  28 H28           -0.5302     1.8435     0.9190 H       
  29 H29            1.7593     2.4092    -0.8060 H       
  30 H30            1.7054     2.4110     0.9853 H       
  31 H31            1.2040    -2.1725    -0.4151 H       
  32 H32            4.0835     2.4349     0.1617 H       
  33 H33            6.5195     2.1257     0.2355 H       
  34 H34            3.5526    -1.8222     0.1556 H       
  35 H35            7.8312    -3.5088     0.1876 H       
  36 H36            7.6082    -2.3807    -1.1750 H       
  37 H37            9.3209    -1.5183     0.4130 H       
  38 H38            8.1238    -1.5787     1.7328 H       
  39 H39           -3.0159    -2.6793     0.1733 H       
  40 H40           -2.7486    -5.1122    -0.0276 H       
  41 H41            1.7131    -7.0463    -0.7277 H       
  42 H42            0.9942    -6.2757    -2.1776 H       
@<TRIPOS>BOND
   1    1    2 1
   2    1    5 1
   3    1   27 1
   4    1   28 1
   5    2    3 1
   6    2    6 am
   7    3    4 2
   8    4    5 1
   9    4   10 1
  10    5   29 1
  11    5   30 1
  12    6    7 1
  13    6    8 2
  14    7   20 ar
  15    7    9 ar
  16    9   23 ar
  17    9   31 1
  18   10   11 ar
  19   10   15 ar
  20   11   12 ar
  21   11   32 1
  22   12   13 ar
  23   12   33 1
  24   13   14 ar
  25   13   17 1
  26   14   15 ar
  27   14   16 1
  28   15   34 1
  29   16   18 1
  30   17   19 1
  31   18   19 1
  32   18   35 1
  33   18   36 1
  34   19   37 1
  35   19   38 1
  36   20   21 ar
  37   20   39 1
  38   21   22 ar
  39   21   40 1
  40   22   23 ar
  41   22   24 1
  42   23   26 1
  43   24   25 1
  44   25   26 1
  45   25   41 1
  46   25   42 1

#	End of record

