#	Name: ASD06020068
#	Creating user name:	WinNT
#	Creation time:	15. 06. 2019 21:04

#	Modifying user name:	WinNT
#	Modification time:	15. 06. 2019 21:04

#	Program:	/corina/corina34_cracker 3.40 0067  02.08.2006

@<TRIPOS>MOLECULE
ASD06020068
  36   39    0    0    0
SMALL
NO_CHARGES


@<TRIPOS>ATOM
   1 C1            -0.0166     1.3952     0.0025 C.ar    
   2 C2             0.0031    -0.0035     0.0023 C.ar    
   3 C3             1.2299    -0.6764    -0.0204 C.ar    
   4 C4             2.4026     0.1209    -0.0423 C.ar    
   5 C5             2.2924     1.4756    -0.0404 C.ar    
   6 N6             1.1144     2.0790    -0.0186 N.ar    
   7 S7            -1.2859    -1.2018     0.0264 S.3     
   8 C8            -0.0955    -2.4967     0.0044 C.2     
   9 N9             1.1001    -2.0038    -0.0179 N.2     
  10 N10           -1.2335     2.0703     0.0191 N.pl3   
  11 C11           -1.2583     3.4567     0.1318 C.ar    
  12 C12           -2.4666     4.1437     0.0370 C.ar    
  13 N13           -0.1322     4.1278     0.3352 N.ar    
  14 N14           -2.4856     5.4584     0.1444 N.ar    
  15 C15           -1.3596     6.1239     0.3417 C.ar    
  16 C16           -0.1599     5.4455     0.4417 C.ar    
  17 C17           -1.3859     7.6258     0.4633 C.3     
  18 C18           -0.4154    -3.9394     0.0105 C.ar    
  19 C19            0.6115    -4.8862    -0.0085 C.ar    
  20 C20            0.3053    -6.2324    -0.0027 C.ar    
  21 C21           -1.0151    -6.6455     0.0214 C.ar    
  22 C22           -2.0377    -5.7151     0.0398 C.ar    
  23 C23           -1.7467    -4.3634     0.0410 C.ar    
  24 F24           -2.7466    -3.4552     0.0656 F       
  25 Cl25           2.2691    -4.3712    -0.0399 Cl      
  26 H26            3.3767    -0.3453    -0.0600 H       
  27 H27            3.1901     2.0758    -0.0572 H       
  28 H28           -2.0643     1.5741    -0.0478 H       
  29 H29           -3.3862     3.6009    -0.1245 H       
  30 H30            0.7565     5.9924     0.6077 H       
  31 H31           -1.5204     7.9034     1.5087 H       
  32 H32           -0.4452     8.0365     0.0964 H       
  33 H33           -2.2110     8.0237    -0.1274 H       
  34 H34            1.0985    -6.9651    -0.0174 H       
  35 H35           -1.2481    -7.7001     0.0254 H       
  36 H36           -3.0660    -6.0449     0.0582 H       
@<TRIPOS>BOND
   1    1    2 ar
   2    1    6 ar
   3    1   10 1
   4    2    3 ar
   5    2    7 1
   6    3    4 ar
   7    3    9 1
   8    4    5 ar
   9    4   26 1
  10    5    6 ar
  11    5   27 1
  12    7    8 1
  13    8    9 2
  14    8   18 1
  15   10   11 1
  16   10   28 1
  17   11   12 ar
  18   11   13 ar
  19   12   14 ar
  20   12   29 1
  21   13   16 ar
  22   14   15 ar
  23   15   16 ar
  24   15   17 1
  25   16   30 1
  26   17   31 1
  27   17   32 1
  28   17   33 1
  29   18   19 ar
  30   18   23 ar
  31   19   20 ar
  32   19   25 1
  33   20   21 ar
  34   20   34 1
  35   21   22 ar
  36   21   35 1
  37   22   23 ar
  38   22   36 1
  39   23   24 1

#	End of record

