#	Name: ASD03320231
#	Creating user name:	WinNT
#	Creation time:	15. 06. 2019 20:36

#	Modifying user name:	WinNT
#	Modification time:	15. 06. 2019 20:36

#	Program:	/corina/corina34_cracker 3.40 0067  02.08.2006

@<TRIPOS>MOLECULE
ASD03320231
  35   36    0    0    0
SMALL
NO_CHARGES


@<TRIPOS>ATOM
   1 C1            -0.0169     1.3945     0.0097 C.ar    
   2 C2             0.0021    -0.0041     0.0020 C.ar    
   3 C3             1.2264    -0.6794    -0.0133 C.ar    
   4 C4             2.4048     0.0370    -0.0207 C.ar    
   5 C5             2.3777     1.4206    -0.0126 C.ar    
   6 C6             1.1697     2.0964     0.0021 C.ar    
   7 C7             1.1516     3.6032     0.0104 C.3     
   8 S8             1.1607     4.1987     1.7239 S.3     
   9 C9             1.1378     5.9504     1.5349 C.ar    
  10 C10            1.1385     6.7721     2.6560 C.ar    
  11 C11            1.1205     8.1442     2.5040 C.ar    
  12 C12            1.1013     8.7013     1.2381 C.ar    
  13 C13            1.1000     7.8870     0.1206 C.ar    
  14 C14            1.1247     6.5137     0.2648 C.ar    
  15 C15            1.1213     9.0359     3.7189 C.3     
  16 F16            2.4403     9.3278     4.0823 F       
  17 F17            0.4445    10.2246     3.4252 F       
  18 F18            0.4796     8.3832     4.7769 F       
  19 C19           -1.2600    -0.7609     0.0105 C.2     
  20 C20           -1.2351    -2.2677     0.0022 C.3     
  21 O21           -2.3199    -0.1722     0.0242 O.2     
  22 C22           -2.6145    -2.7813     0.0131 C.1     
  23 N23           -3.6791    -3.1777     0.0215 N.1     
  24 H24           -0.9586     1.9232     0.0170 H       
  25 H25            1.2492    -1.7591    -0.0190 H       
  26 H26            3.3513    -0.4831    -0.0325 H       
  27 H27            3.3039     1.9760    -0.0177 H       
  28 H28            2.0322     3.9800    -0.5098 H       
  29 H29            0.2525     3.9586    -0.4930 H       
  30 H30            1.1528     6.3377     3.6447 H       
  31 H31            1.0868     9.7750     1.1223 H       
  32 H32            1.0846     8.3255    -0.8663 H       
  33 H33            1.1286     5.8783    -0.6086 H       
  34 H34           -0.7242    -2.6177    -0.8948 H       
  35 H35           -0.7065    -2.6272     0.8850 H       
@<TRIPOS>BOND
   1    1    2 ar
   2    1    6 ar
   3    1   24 1
   4    2    3 ar
   5    2   19 1
   6    3    4 ar
   7    3   25 1
   8    4    5 ar
   9    4   26 1
  10    5    6 ar
  11    5   27 1
  12    6    7 1
  13    7    8 1
  14    7   28 1
  15    7   29 1
  16    8    9 1
  17    9   10 ar
  18    9   14 ar
  19   10   11 ar
  20   10   30 1
  21   11   12 ar
  22   11   15 1
  23   12   13 ar
  24   12   31 1
  25   13   14 ar
  26   13   32 1
  27   14   33 1
  28   15   16 1
  29   15   17 1
  30   15   18 1
  31   19   20 1
  32   19   21 2
  33   20   22 1
  34   20   34 1
  35   20   35 1
  36   22   23 3

#	End of record

