#	Name: ASD08070400
#	Creating user name:	WinNT
#	Creation time:	15. 06. 2019 21:14

#	Modifying user name:	WinNT
#	Modification time:	15. 06. 2019 21:14

#	Program:	/corina/corina34_cracker 3.40 0067  02.08.2006

@<TRIPOS>MOLECULE
ASD08070400
  43   44    0    0    0
SMALL
NO_CHARGES


@<TRIPOS>ATOM
   1 O1            -0.0173     1.4273     0.0099 O.3     
   2 C2             0.0021    -0.0041     0.0020 C.3     
   3 C3             1.0251    -0.4767     1.0438 C.3     
   4 O4             2.3065     0.0512     0.6845 O.3     
   5 C5             2.3513     1.3680     0.3416 C.ar    
   6 C6             1.1884     2.0556     0.0018 C.ar    
   7 C7             3.5686     2.0233     0.3321 C.ar    
   8 C8             3.6311     3.3738    -0.0203 C.ar    
   9 C9             2.4618     4.0568    -0.3622 C.ar    
  10 C10            1.2518     3.3986    -0.3499 C.ar    
  11 C11            4.9290     4.0767    -0.0308 C.2     
  12 O12            5.9458     3.4805     0.2675 O.2     
  13 N13            4.9871     5.3795    -0.3711 N.am    
  14 C14            6.2752     6.0772    -0.3816 C.3     
  15 C15            6.9694     5.8464    -1.7254 C.3     
  16 C16            7.3114     4.3626    -1.8745 C.3     
  17 C17            8.0056     4.1319    -3.2183 C.3     
  18 C18            6.0452     7.5759    -0.1771 C.3     
  19 C19            5.4654     7.8173     1.2181 C.3     
  20 C20            5.2354     9.3160     1.4226 C.3     
  21 H21           -0.9862    -0.3865     0.2575 H       
  22 H22            0.2913    -0.3623    -0.9860 H       
  23 H23            0.7405    -0.1114     2.0306 H       
  24 H24            1.0653    -1.5659     1.0518 H       
  25 H25            4.4705     1.4917     0.5973 H       
  26 H26            2.5064     5.1005    -0.6365 H       
  27 H27            0.3487     3.9283    -0.6149 H       
  28 H28            4.1759     5.8552    -0.6091 H       
  29 H29            6.9030     5.6930     0.4224 H       
  30 H30            6.3046     6.1491    -2.5344 H       
  31 H31            7.8849     6.4364    -1.7674 H       
  32 H32            7.9762     4.0599    -1.0655 H       
  33 H33            6.3959     3.7727    -1.8324 H       
  34 H34            8.2493     3.0748    -3.3246 H       
  35 H35            7.3408     4.4346    -4.0274 H       
  36 H36            8.9211     4.7218    -3.2604 H       
  37 H37            6.9931     8.1055    -0.2733 H       
  38 H38            5.3464     7.9422    -0.9292 H       
  39 H39            4.5176     7.2877     1.3143 H       
  40 H40            6.1642     7.4510     1.9702 H       
  41 H41            6.1833     9.8455     1.3264 H       
  42 H42            4.5367     9.6823     0.6704 H       
  43 H43            4.8224     9.4879     2.4165 H       
@<TRIPOS>BOND
   1    1    2 1
   2    1    6 1
   3    2    3 1
   4    2   21 1
   5    2   22 1
   6    3    4 1
   7    3   23 1
   8    3   24 1
   9    4    5 1
  10    5    6 ar
  11    5    7 ar
  12    6   10 ar
  13    7    8 ar
  14    7   25 1
  15    8    9 ar
  16    8   11 1
  17    9   10 ar
  18    9   26 1
  19   10   27 1
  20   11   12 2
  21   11   13 am
  22   13   14 1
  23   13   28 1
  24   14   15 1
  25   14   18 1
  26   14   29 1
  27   15   16 1
  28   15   30 1
  29   15   31 1
  30   16   17 1
  31   16   32 1
  32   16   33 1
  33   17   34 1
  34   17   35 1
  35   17   36 1
  36   18   19 1
  37   18   37 1
  38   18   38 1
  39   19   20 1
  40   19   39 1
  41   19   40 1
  42   20   41 1
  43   20   42 1
  44   20   43 1

#	End of record

