#	Name: ASD01813872
#	Creating user name:	WinNT
#	Creation time:	15. 06. 2019 19:31

#	Modifying user name:	WinNT
#	Modification time:	15. 06. 2019 19:31

#	Program:	/corina/corina34_cracker 3.40 0067  02.08.2006

@<TRIPOS>MOLECULE
ASD01813872
  49   52    0    0    0
SMALL
NO_CHARGES


@<TRIPOS>ATOM
   1 C1             1.7261     2.4033     0.2050 C.2     
   2 C2             1.5222     1.0182     0.2677 C.2     
   3 C3             2.5911     0.1769     0.1643 C.2     
   4 C4             3.8786     0.7135    -0.0032 C.2     
   5 N5             4.0486     2.0701    -0.0607 N.am    
   6 C6             2.9728     2.9012     0.0433 C.2     
   7 C7             4.9787    -0.1490    -0.1096 C.2     
   8 C8             6.2337     0.3619    -0.2721 C.2     
   9 C9             6.4048     1.7574    -0.3314 C.2     
  10 C10            5.2787     2.5985    -0.2210 C.2     
  11 O11            5.4177     3.8090    -0.2716 O.2     
  12 C12            7.7411     2.3311    -0.5049 C.2     
  13 O13            7.8984     3.6697    -0.5609 O.3     
  14 O14            8.7092     1.6005    -0.5984 O.2     
  15 C15            4.7755    -1.6408    -0.0438 C.3     
  16 N16            4.6658    -2.1805    -1.4057 N.3     
  17 C17            4.7048    -3.6495    -1.3947 C.3     
  18 C18            4.5084    -4.1731    -2.8194 C.3     
  19 N19            5.5606    -3.6277    -3.6884 N.3     
  20 C20            5.5216    -2.1587    -3.6993 C.3     
  21 C21            5.7180    -1.6351    -2.2746 C.3     
  22 C22            5.4561    -4.1419    -4.9859 C.ar    
  23 C23            5.6745    -5.4979    -5.2195 C.ar    
  24 C24            5.5698    -6.0012    -6.5056 C.ar    
  25 C25            5.2496    -5.1587    -7.5543 C.ar    
  26 C26            5.0327    -3.8129    -7.3234 C.ar    
  27 C27            5.1292    -3.3038    -6.0420 C.ar    
  28 O28            5.9902    -6.3253    -4.1872 O.3     
  29 H29            0.8840     3.0752     0.2816 H       
  30 H30            0.5267     0.6200     0.3971 H       
  31 H31            2.4488    -0.8927     0.2113 H       
  32 H32            3.1183     3.9703    -0.0034 H       
  33 H33            7.0855    -0.2970    -0.3540 H       
  34 H34            8.7993     4.0014    -0.6763 H       
  35 H35            5.6241    -2.1012     0.4622 H       
  36 H36            3.8612    -1.8590     0.5081 H       
  37 H37            5.6695    -3.9849    -1.0138 H       
  38 H38            3.9087    -4.0297    -0.7546 H       
  39 H39            4.5659    -5.2616    -2.8180 H       
  40 H40            3.5322    -3.8606    -3.1903 H       
  41 H41            6.3177    -1.7785    -4.3395 H       
  42 H42            4.5569    -1.8233    -4.0802 H       
  43 H43            5.6605    -0.5466    -2.2760 H       
  44 H44            6.6942    -1.9476    -1.9038 H       
  45 H45            5.7386    -7.0520    -6.6895 H       
  46 H46            5.1692    -5.5529    -8.5566 H       
  47 H47            4.7829    -3.1587    -8.1456 H       
  48 H48            4.9589    -2.2522    -5.8643 H       
  49 H49            5.2316    -6.7928    -3.8118 H       
@<TRIPOS>BOND
   1    1    2 1
   2    1    6 2
   3    1   29 1
   4    2    3 2
   5    2   30 1
   6    3    4 1
   7    3   31 1
   8    4    5 1
   9    4    7 2
  10    5    6 1
  11    5   10 am
  12    6   32 1
  13    7    8 1
  14    7   15 1
  15    8    9 2
  16    8   33 1
  17    9   10 1
  18    9   12 1
  19   10   11 2
  20   12   13 1
  21   12   14 2
  22   13   34 1
  23   15   16 1
  24   15   35 1
  25   15   36 1
  26   16   17 1
  27   16   21 1
  28   17   18 1
  29   17   37 1
  30   17   38 1
  31   18   19 1
  32   18   39 1
  33   18   40 1
  34   19   20 1
  35   19   22 1
  36   20   21 1
  37   20   41 1
  38   20   42 1
  39   21   43 1
  40   21   44 1
  41   22   23 ar
  42   22   27 ar
  43   23   24 ar
  44   23   28 1
  45   24   25 ar
  46   24   45 1
  47   25   26 ar
  48   25   46 1
  49   26   27 ar
  50   26   47 1
  51   27   48 1
  52   28   49 1

#	End of record

