#	Name: ASD05143339
#	Creating user name:	WinNT
#	Creation time:	15. 06. 2019 20:57

#	Modifying user name:	WinNT
#	Modification time:	15. 06. 2019 20:57

#	Program:	/corina/corina34_cracker 3.40 0067  02.08.2006

@<TRIPOS>MOLECULE
ASD05143339
  47   50    0    0    0
SMALL
NO_CHARGES


@<TRIPOS>ATOM
   1 C1            -0.0163     1.3510     0.0095 C.2     
   2 N2            -0.0076     0.0140     0.2305 N.pl3   
   3 S3            -1.6347    -0.4750     0.1567 S.3     
   4 C4            -2.2492     1.1567    -0.1703 C.2     
   5 N5            -1.1570     1.9329    -0.1895 N.2     
   6 N6            -3.5109     1.5272    -0.3510 N.2     
   7 C7            -3.8098     2.8385    -0.5954 C.ar    
   8 C8             1.1071    -0.7951     0.4691 C.ar    
   9 C9             1.7136    -1.4784    -0.5843 C.ar    
  10 C10            1.6170    -0.9163     1.7543 C.ar    
  11 C11            2.7191    -1.7169     1.9872 C.ar    
  12 C12            3.3165    -2.3981     0.9428 C.ar    
  13 C13            2.8177    -2.2784    -0.3415 C.ar    
  14 C14            1.2405     2.1255     0.0016 C.ar    
  15 C15            1.2059     3.5237    -0.0844 C.ar    
  16 C16            2.4698     1.4693     0.0856 C.ar    
  17 C17            3.6402     2.1984     0.0778 C.ar    
  18 C18            3.6020     3.5794    -0.0127 C.ar    
  19 C19            2.3917     4.2412    -0.0910 C.ar    
  20 C20           -4.4152     5.4983    -1.0908 C.ar    
  21 C21           -4.3714     5.0336     0.2121 C.ar    
  22 C22           -4.0706     3.7100     0.4673 C.ar    
  23 O23            1.2221    -1.3598    -1.8464 O.3     
  24 C24            1.8943    -2.0886    -2.8755 C.3     
  25 O25            0.0163     4.1726    -0.1614 O.3     
  26 C26            0.0594     5.5984    -0.2466 C.3     
  27 C27           -4.1533     4.6437    -2.1475 C.ar    
  28 F28           -4.0288     3.2581     1.7398 F       
  29 C29           -3.8509     3.3173    -1.9091 C.ar    
  30 F30           -3.5950     2.4848    -2.9418 F       
  31 H31            1.1529    -0.3848     2.5719 H       
  32 H32            3.1151    -1.8105     2.9877 H       
  33 H33            4.1778    -3.0222     1.1299 H       
  34 H34            3.2870    -2.8120    -1.1548 H       
  35 H35            2.5041     0.3922     0.1571 H       
  36 H36            4.5908     1.6899     0.1428 H       
  37 H37            4.5233     4.1429    -0.0178 H       
  38 H38            2.3698     5.3187    -0.1613 H       
  39 H39           -4.6511     6.5344    -1.2838 H       
  40 H40           -4.5771     5.7068     1.0312 H       
  41 H41            1.8612    -3.1539    -2.6472 H       
  42 H42            1.4020    -1.9062    -3.8308 H       
  43 H43            2.9325    -1.7615    -2.9336 H       
  44 H44            0.5556     6.0004     0.6367 H       
  45 H45            0.6117     5.8925    -1.1391 H       
  46 H46           -0.9564     5.9899    -0.3025 H       
  47 H47           -4.1894     5.0141    -3.1614 H       
@<TRIPOS>BOND
   1    1    2 1
   2    1   14 1
   3    1    5 2
   4    2    3 1
   5    2    8 1
   6    3    4 1
   7    4    5 1
   8    4    6 2
   9    6    7 1
  10    7   29 ar
  11    7   22 ar
  12    8    9 ar
  13    8   10 ar
  14    9   23 1
  15    9   13 ar
  16   10   11 ar
  17   10   31 1
  18   11   12 ar
  19   11   32 1
  20   12   13 ar
  21   12   33 1
  22   13   34 1
  23   14   15 ar
  24   14   16 ar
  25   15   25 1
  26   15   19 ar
  27   16   17 ar
  28   16   35 1
  29   17   18 ar
  30   17   36 1
  31   18   19 ar
  32   18   37 1
  33   19   38 1
  34   20   21 ar
  35   20   27 ar
  36   20   39 1
  37   21   22 ar
  38   21   40 1
  39   22   28 1
  40   23   24 1
  41   24   41 1
  42   24   42 1
  43   24   43 1
  44   25   26 1
  45   26   44 1
  46   26   45 1
  47   26   46 1
  48   27   29 ar
  49   27   47 1
  50   29   30 1

#	End of record

