#	Name: ASD05740207
#	Creating user name:	WinNT
#	Creation time:	15. 06. 2019 21:03

#	Modifying user name:	WinNT
#	Modification time:	15. 06. 2019 21:03

#	Program:	/corina/corina34_cracker 3.40 0067  02.08.2006

@<TRIPOS>MOLECULE
ASD05740207
  65   69    0    0    0
SMALL
NO_CHARGES


@<TRIPOS>ATOM
   1 C1             0.9531    -0.8271    -0.0440 C.3     
   2 N2             0.0371    -0.1445     0.8805 N.3     
   3 C3            -1.2685    -0.6286     0.7416 C.ar    
   4 C4            -2.2886    -0.1107     1.5289 C.ar    
   5 C5            -3.5768    -0.5884     1.3918 C.ar    
   6 C6            -3.8523    -1.5871     0.4670 C.ar    
   7 C7            -2.8322    -2.1053    -0.3199 C.ar    
   8 C8            -1.5452    -1.6230    -0.1876 C.ar    
   9 N9            -5.1590    -2.0720     0.3283 N.pl3   
  10 C10           -6.2334    -1.2225     0.5064 C.ar    
  11 N11           -6.0003     0.0714     0.6975 N.ar    
  12 N12           -7.4577    -1.7281     0.4747 N.ar    
  13 C13           -8.5129    -0.9414     0.6420 C.ar    
  14 C14           -8.3033     0.4392     0.8533 C.ar    
  15 C15           -6.9916     0.9266     0.8729 C.ar    
  16 N16           -9.7918    -1.4348     0.6140 N.am    
  17 C17          -10.8502    -0.6228     0.7850 C.2     
  18 C18          -10.6974     0.7620     0.9988 C.2     
  19 C19           -9.4567     1.3145     1.0386 C.2     
  20 C20          -10.0085    -2.8669     0.3943 C.3     
  21 O21          -11.9723    -1.0974     0.7538 O.2     
  22 C22          -10.0273    -3.5816     1.7209 C.ar    
  23 C23          -11.1750    -3.5685     2.5005 C.ar    
  24 C24           -8.9037    -4.2548     2.1593 C.ar    
  25 C25          -11.1891    -4.2272     3.7212 C.ar    
  26 C26          -10.0607    -4.8944     4.1578 C.ar    
  27 C27           -8.9204    -4.9111     3.3764 C.ar    
  28 C28          -13.4285    -2.9398     2.9234 C.3     
  29 O29          -12.2834    -2.9111     2.0690 O.3     
  30 C30            0.5017    -0.2735     2.2687 C.3     
  31 C31            1.8991     0.3378     2.3951 C.3     
  32 N32            2.8151    -0.3448     1.4706 N.3     
  33 C33            2.3504    -0.2158     0.0824 C.3     
  34 C34            4.1856     0.1634     1.6164 C.3     
  35 C35          -14.5686    -2.1522     2.2749 C.3     
  36 H36            0.9963    -1.8877     0.2039 H       
  37 H37            0.5945    -0.7067    -1.0663 H       
  38 H38           -2.0742     0.6655     2.2486 H       
  39 H39           -4.3701    -0.1857     2.0041 H       
  40 H40           -3.0464    -2.8825    -1.0386 H       
  41 H41           -0.7519    -2.0260    -0.7996 H       
  42 H42           -5.3094    -3.0044     0.1073 H       
  43 H43           -6.7944     1.9765     1.0322 H       
  44 H44          -11.5691     1.3857     1.1317 H       
  45 H45           -9.3272     2.3741     1.2021 H       
  46 H46          -10.9619    -3.0166    -0.1125 H       
  47 H47           -9.2029    -3.2660    -0.2220 H       
  48 H48           -8.0115    -4.2690     1.5509 H       
  49 H49          -12.0811    -4.2182     4.3299 H       
  50 H50          -10.0711    -5.4071     5.1083 H       
  51 H51           -8.0396    -5.4335     3.7193 H       
  52 H52          -13.7416    -3.9726     3.0768 H       
  53 H53          -13.1766    -2.4901     3.8838 H       
  54 H54           -0.1859     0.2505     2.9325 H       
  55 H55            0.5399    -1.3278     2.5429 H       
  56 H56            1.8558     1.3984     2.1471 H       
  57 H57            2.2577     0.2174     3.4173 H       
  58 H58            3.0381    -0.7398    -0.5814 H       
  59 H59            2.3123     0.8385    -0.1918 H       
  60 H60            4.5291    -0.0055     2.6370 H       
  61 H61            4.8426    -0.3587     0.9208 H       
  62 H62            4.2021     1.2315     1.3996 H       
  63 H63          -14.2555    -1.1194     2.1216 H       
  64 H64          -14.8206    -2.6019     1.3145 H       
  65 H65          -15.4421    -2.1741     2.9266 H       
@<TRIPOS>BOND
   1    1    2 1
   2    1   33 1
   3    1   36 1
   4    1   37 1
   5    2    3 1
   6    2   30 1
   7    3    4 ar
   8    3    8 ar
   9    4    5 ar
  10    4   38 1
  11    5    6 ar
  12    5   39 1
  13    6    7 ar
  14    6    9 1
  15    7    8 ar
  16    7   40 1
  17    8   41 1
  18    9   10 1
  19    9   42 1
  20   10   11 ar
  21   10   12 ar
  22   11   15 ar
  23   12   13 ar
  24   13   14 ar
  25   13   16 1
  26   14   15 ar
  27   14   19 1
  28   15   43 1
  29   16   17 am
  30   16   20 1
  31   17   18 1
  32   17   21 2
  33   18   19 2
  34   18   44 1
  35   19   45 1
  36   20   22 1
  37   20   46 1
  38   20   47 1
  39   22   24 ar
  40   22   23 ar
  41   23   25 ar
  42   23   29 1
  43   24   27 ar
  44   24   48 1
  45   25   26 ar
  46   25   49 1
  47   26   27 ar
  48   26   50 1
  49   27   51 1
  50   28   35 1
  51   28   29 1
  52   28   52 1
  53   28   53 1
  54   30   31 1
  55   30   54 1
  56   30   55 1
  57   31   32 1
  58   31   56 1
  59   31   57 1
  60   32   33 1
  61   32   34 1
  62   33   58 1
  63   33   59 1
  64   34   60 1
  65   34   61 1
  66   34   62 1
  67   35   63 1
  68   35   64 1
  69   35   65 1

#	End of record

