#	Name: ASD03430091
#	Creating user name:	WinNT
#	Creation time:	15. 06. 2019 20:40

#	Modifying user name:	WinNT
#	Modification time:	15. 06. 2019 20:40

#	Program:	/corina/corina34_cracker 3.40 0067  02.08.2006

@<TRIPOS>MOLECULE
ASD03430091
  55   60    0    0    0
SMALL
NO_CHARGES


@<TRIPOS>ATOM
   1 C1            -0.1046     1.4247     0.1434 C.ar    
   2 C2            -0.0779     0.0391     0.1051 C.ar    
   3 C3             1.1259    -0.6306     0.0431 C.ar    
   4 C4             2.3273     0.0715     0.0282 C.ar    
   5 C5             2.2966     1.4620     0.0623 C.ar    
   6 C6             1.0889     2.1368     0.1206 C.ar    
   7 O7             3.3949    -0.7765    -0.0067 O.3     
   8 C8             1.4816    -2.0912    -0.0313 C.3     
   9 C9             2.9569    -2.0737    -0.4545 C.3     
  10 C10            0.3961    -3.8338     1.0176 C.ar    
  11 C11            1.2823    -2.7947     1.2779 C.ar    
  12 C12            0.6280    -2.8363    -1.0170 C.2     
  13 N13            0.0323    -3.8325    -0.3318 N.am    
  14 O14            0.4993    -2.5896    -2.1976 O.2     
  15 C15            1.7818    -2.5980     2.5601 C.ar    
  16 C16            1.3906    -3.4509     3.5952 C.ar    
  17 C17            0.5114    -4.4820     3.3352 C.ar    
  18 C18            0.0163    -4.6762     2.0609 C.ar    
  19 C19            2.7242    -1.4904     2.8274 C.2     
  20 O20           -1.3024     2.0701     0.1972 O.3     
  21 C21           -1.2760     3.4429     0.6030 C.3     
  22 C22           -0.1477     4.1479    -0.1621 C.3     
  23 O23            1.0866     3.4979     0.1588 O.3     
  24 N24            3.9035    -1.7396     3.4304 N.am    
  25 O25            2.4353    -0.3550     2.5033 O.2     
  26 C26            4.8372    -0.6422     3.6953 C.3     
  27 C27            6.0700    -1.1838     4.3718 C.ar    
  28 C28            7.1448    -1.6076     3.6125 C.ar    
  29 C29           -0.8882    -4.8015    -0.9318 C.3     
  30 C30            8.2761    -2.1041     4.2319 C.ar    
  31 C31            8.3328    -2.1769     5.6134 C.ar    
  32 C32            7.2558    -1.7521     6.3728 C.ar    
  33 C33            6.1276    -1.2512     5.7514 C.ar    
  34 F34            9.4381    -2.6624     6.2199 F       
  35 H35           -1.0031    -0.5177     0.1243 H       
  36 H36            3.2216     2.0192     0.0438 H       
  37 H37            3.0501    -2.1612    -1.5370 H       
  38 H38            3.5132    -2.8648     0.0482 H       
  39 H39            1.7747    -3.3040     4.5938 H       
  40 H40            0.2084    -5.1424     4.1343 H       
  41 H41           -0.6712    -5.4873     1.8713 H       
  42 H42           -2.2303     3.9142     0.3676 H       
  43 H43           -1.0887     3.5059     1.6749 H       
  44 H44           -0.3312     4.0782    -1.2343 H       
  45 H45           -0.1002     5.1953     0.1359 H       
  46 H46            4.1340    -2.6456     3.6890 H       
  47 H47            5.1174    -0.1685     2.7544 H       
  48 H48            4.3598     0.0924     4.3438 H       
  49 H49            7.1001    -1.5510     2.5349 H       
  50 H50           -1.9081    -4.4224    -0.8666 H       
  51 H51           -0.6236    -4.9544    -1.9780 H       
  52 H52           -0.8178    -5.7488    -0.3970 H       
  53 H53            9.1154    -2.4354     3.6385 H       
  54 H54            7.2990    -1.8085     7.4505 H       
  55 H55            5.2874    -0.9198     6.3435 H       
@<TRIPOS>BOND
   1    1    2 ar
   2    1    6 ar
   3    1   20 1
   4    2    3 ar
   5    2   35 1
   6    3    4 ar
   7    3    8 1
   8    4    5 ar
   9    4    7 1
  10    5    6 ar
  11    5   36 1
  12    6   23 1
  13    7    9 1
  14    8    9 1
  15    8   11 1
  16    8   12 1
  17    9   37 1
  18    9   38 1
  19   10   11 ar
  20   10   13 1
  21   10   18 ar
  22   11   15 ar
  23   12   13 am
  24   12   14 2
  25   13   29 1
  26   15   16 ar
  27   15   19 1
  28   16   17 ar
  29   16   39 1
  30   17   18 ar
  31   17   40 1
  32   18   41 1
  33   19   24 am
  34   19   25 2
  35   20   21 1
  36   21   22 1
  37   21   42 1
  38   21   43 1
  39   22   23 1
  40   22   44 1
  41   22   45 1
  42   24   26 1
  43   24   46 1
  44   26   27 1
  45   26   47 1
  46   26   48 1
  47   27   28 ar
  48   27   33 ar
  49   28   30 ar
  50   28   49 1
  51   29   50 1
  52   29   51 1
  53   29   52 1
  54   30   31 ar
  55   30   53 1
  56   31   32 ar
  57   31   34 1
  58   32   33 ar
  59   32   54 1
  60   33   55 1

#	End of record

