#	Name: ASD04881088
#	Creating user name:	WinNT
#	Creation time:	15. 06. 2019 20:53

#	Modifying user name:	WinNT
#	Modification time:	15. 06. 2019 20:53

#	Program:	/corina/corina34_cracker 3.40 0067  02.08.2006

@<TRIPOS>MOLECULE
ASD04881088
  76   81    0    0    0
SMALL
NO_CHARGES


@<TRIPOS>ATOM
   1 C1            -0.4545     2.3445     3.1221 C.ar    
   2 C2            -0.7165     1.3660     2.1804 C.ar    
   3 C3             0.2303     1.0526     1.2228 C.ar    
   4 C4             1.4415     1.7163     1.2037 C.ar    
   5 C5             1.7078     2.6995     2.1479 C.ar    
   6 C6             0.7542     3.0119     3.1088 C.ar    
   7 N7             2.9318     3.3723     2.1318 N.3     
   8 C8             3.0841     4.1591     0.9000 C.3     
   9 C9             4.3983     4.9414     0.9567 C.3     
  10 N10            5.5173     4.0030     1.1206 N.3     
  11 C11            5.3650     3.2162     2.3524 C.3     
  12 C12            4.0508     2.4339     2.2956 C.3     
  13 C13            6.7375     4.6737     1.1045 C.ar    
  14 C14            7.1748     5.2992    -0.0667 C.ar    
  15 C15            8.3856     5.9647    -0.0824 C.ar    
  16 C16            9.1698     6.0102     1.0742 C.ar    
  17 C17            8.7267     5.3828     2.2415 C.ar    
  18 C18            7.5162     4.7252     2.2545 C.ar    
  19 C19            1.0385     4.0783     4.1349 C.3     
  20 N20            6.3862     5.2510    -1.2239 N.am    
  21 C21            6.4796     6.2310    -2.1444 C.2     
  22 C22            5.5844     6.2299    -3.3154 C.2     
  23 O23            7.3027     7.1162    -2.0089 O.2     
  24 N24            4.6221     5.3100    -3.5965 N.2     
  25 C25            4.0441     5.6459    -4.7107 C.2     
  26 O26            4.6032     6.7716    -5.1767 O.3     
  27 C27            5.5609     7.1522    -4.3161 C.2     
  28 C28           10.4635     6.7191     1.0620 C.2     
  29 O29           10.8485     7.2644     0.0456 O.2     
  30 N30           11.2187     6.7624     2.1775 N.am    
  31 C31           12.5034     7.4664     2.1654 C.3     
  32 C32           12.8492     7.9047     3.5652 C.ar    
  33 C33           13.5933     6.5297     1.6404 C.3     
  34 C34           13.4201     9.1452     3.7799 C.ar    
  35 C35           13.7373     9.5472     5.0639 C.ar    
  36 C36           13.4832     8.7089     6.1333 C.ar    
  37 C37           12.9115     7.4687     5.9187 C.ar    
  38 C38           12.5903     7.0685     4.6351 C.ar    
  39 C39            2.9228     4.8889    -5.3747 C.3     
  40 C40            1.6005     5.6284    -5.5881 C.3     
  41 C41            2.5100     5.3278    -6.7811 C.3     
  42 H42           -1.1980     2.5900     3.8660 H       
  43 H43           -1.6626     0.8453     2.1933 H       
  44 H44            0.0228     0.2878     0.4891 H       
  45 H45            2.1808     1.4708     0.4556 H       
  46 H46            3.0963     3.4895     0.0400 H       
  47 H47            2.2503     4.8550     0.8076 H       
  48 H48            4.5273     5.5032     0.0316 H       
  49 H49            4.3751     5.6306     1.8009 H       
  50 H50            6.1988     2.5202     2.4448 H       
  51 H51            5.3528     3.8858     3.2124 H       
  52 H52            3.9218     1.8720     3.2207 H       
  53 H53            4.0740     1.7447     1.4515 H       
  54 H54            8.7257     6.4484    -0.9862 H       
  55 H55            9.3316     5.4173     3.1355 H       
  56 H56            7.1738     4.2448     3.1591 H       
  57 H57            1.4252     3.6151     5.0427 H       
  58 H58            1.7775     4.7752     3.7395 H       
  59 H59            0.1186     4.6158     4.3648 H       
  60 H60            5.7730     4.5123    -1.3625 H       
  61 H61            6.1940     8.0229    -4.4028 H       
  62 H62           10.9116     6.3274     2.9883 H       
  63 H63           12.4327     8.3405     1.5181 H       
  64 H64           13.6641     5.6557     2.2878 H       
  65 H65           13.3432     6.2127     0.6279 H       
  66 H66           14.5492     7.0535     1.6314 H       
  67 H67           13.6186     9.8001     2.9444 H       
  68 H68           14.1840    10.5161     5.2315 H       
  69 H69           13.7317     9.0227     7.1363 H       
  70 H70           12.7133     6.8136     6.7541 H       
  71 H71           12.1402     6.1011     4.4678 H       
  72 H72            2.8729     3.8248    -5.1442 H       
  73 H73            0.6806     5.0506    -5.4983 H       
  74 H74            1.5415     6.6623    -5.2481 H       
  75 H75            3.0493     6.1639    -7.2261 H       
  76 H76            2.1884     4.5522    -7.4762 H       
@<TRIPOS>BOND
   1    1    2 ar
   2    1    6 ar
   3    1   42 1
   4    2    3 ar
   5    2   43 1
   6    3    4 ar
   7    3   44 1
   8    4    5 ar
   9    4   45 1
  10    5    6 ar
  11    5    7 1
  12    6   19 1
  13    7    8 1
  14    7   12 1
  15    8    9 1
  16    8   46 1
  17    8   47 1
  18    9   10 1
  19    9   48 1
  20    9   49 1
  21   10   11 1
  22   10   13 1
  23   11   12 1
  24   11   50 1
  25   11   51 1
  26   12   52 1
  27   12   53 1
  28   13   14 ar
  29   13   18 ar
  30   14   15 ar
  31   14   20 1
  32   15   16 ar
  33   15   54 1
  34   16   17 ar
  35   16   28 1
  36   17   18 ar
  37   17   55 1
  38   18   56 1
  39   19   57 1
  40   19   58 1
  41   19   59 1
  42   20   21 am
  43   20   60 1
  44   21   22 1
  45   21   23 2
  46   22   24 1
  47   22   27 2
  48   24   25 2
  49   25   26 1
  50   25   39 1
  51   26   27 1
  52   27   61 1
  53   28   29 2
  54   28   30 am
  55   30   31 1
  56   30   62 1
  57   31   32 1
  58   31   33 1
  59   31   63 1
  60   32   34 ar
  61   32   38 ar
  62   33   64 1
  63   33   65 1
  64   33   66 1
  65   34   35 ar
  66   34   67 1
  67   35   36 ar
  68   35   68 1
  69   36   37 ar
  70   36   69 1
  71   37   38 ar
  72   37   70 1
  73   38   71 1
  74   39   40 1
  75   39   41 1
  76   39   72 1
  77   40   41 1
  78   40   73 1
  79   40   74 1
  80   41   75 1
  81   41   76 1

#	End of record

