#	Name: ASD01140379
#	Creating user name:	WinNT
#	Creation time:	15. 06. 2019 19:00

#	Modifying user name:	WinNT
#	Modification time:	15. 06. 2019 19:00

#	Program:	/corina/corina34_cracker 3.40 0067  02.08.2006

@<TRIPOS>MOLECULE
ASD01140379
  58   61    0    0    0
SMALL
NO_CHARGES


@<TRIPOS>ATOM
   1 N1            -0.1099     1.3069     0.0785 N.pl3   
   2 C2            -0.0625    -0.0317     0.0603 C.2     
   3 C3             1.1277    -0.7265     0.0037 C.2     
   4 C4             2.3890     0.0311    -0.0385 C.2     
   5 C5             2.2904     1.5013    -0.0170 C.ar    
   6 C6             3.4309     2.3051    -0.0542 C.ar    
   7 C7             3.2567     3.6833    -0.0312 C.ar    
   8 C8             1.9663     4.2029     0.0273 C.ar    
   9 N9             0.9099     3.4190     0.0618 N.ar    
  10 C10            1.0179     2.0962     0.0422 C.ar    
  11 C11            1.1364    -2.1978    -0.0137 C.2     
  12 O12            1.4196    -2.8162     0.9947 O.2     
  13 N13            0.8305    -2.8601    -1.1469 N.am    
  14 O14            3.4680    -0.5330    -0.0886 O.2     
  15 C15           -1.4200     1.9601     0.1336 C.3     
  16 N16            4.3637     4.5380    -0.0660 N.pl3   
  17 C17            5.4158     6.7008     0.5268 C.3     
  18 C18            4.1692     5.9898    -0.0413 C.3     
  19 C19            4.0889     6.5570    -1.4746 C.3     
  20 C20            4.7621     7.9108    -1.4031 C.ar    
  21 C21            4.7116     8.9855    -2.2753 C.ar    
  22 C22            5.4202    10.1383    -1.9996 C.ar    
  23 C23            6.1828    10.2209    -0.8494 C.ar    
  24 C24            6.2345     9.1504     0.0216 C.ar    
  25 C25            5.5245     7.9934    -0.2532 C.ar    
  26 C26            0.9323    -4.3209    -1.1917 C.3     
  27 C27           -0.4036    -4.9383    -0.7735 C.3     
  28 C28            1.6223    -1.6646    -3.1281 C.3     
  29 C29            0.3962    -2.1193    -2.3338 C.3     
  30 C30           -1.8244     2.1697     1.5943 C.3     
  31 H31           -0.9886    -0.5864     0.0912 H       
  32 H32            4.4181     1.8694    -0.0991 H       
  33 H33            1.8291     5.2740     0.0453 H       
  34 H34           -1.3664     2.9250    -0.3706 H       
  35 H35           -2.1604     1.3320    -0.3618 H       
  36 H36            5.2600     4.1693    -0.1064 H       
  37 H37            5.2813     6.9096     1.5881 H       
  38 H38            6.3043     6.0889     0.3706 H       
  39 H39            3.2796     6.2502     0.5321 H       
  40 H40            4.6204     5.9065    -2.1691 H       
  41 H41            3.0483     6.6677    -1.7797 H       
  42 H42            4.1163     8.9216    -3.1742 H       
  43 H43            5.3789    10.9744    -2.6820 H       
  44 H44            6.7379    11.1216    -0.6324 H       
  45 H45            6.8304     9.2157     0.9199 H       
  46 H46            1.1771    -4.6371    -2.2057 H       
  47 H47            1.7150    -4.6517    -0.5090 H       
  48 H48           -0.3279    -6.0252    -0.8069 H       
  49 H49           -0.6485    -4.6221     0.2405 H       
  50 H50           -1.1863    -4.6075    -1.4562 H       
  51 H51            1.2992    -1.1134    -4.0112 H       
  52 H52            2.2411    -1.0200    -2.5038 H       
  53 H53            2.2001    -2.5363    -3.4351 H       
  54 H54           -0.2225    -2.7639    -2.9582 H       
  55 H55           -0.1816    -1.2476    -2.0268 H       
  56 H56           -2.7992     2.6558     1.6352 H       
  57 H57           -1.8781     1.2048     2.0984 H       
  58 H58           -1.0841     2.7978     2.0897 H       
@<TRIPOS>BOND
   1    1    2 1
   2    1   10 1
   3    1   15 1
   4    2    3 2
   5    2   31 1
   6    3    4 1
   7    3   11 1
   8    4    5 1
   9    4   14 2
  10    5    6 ar
  11    5   10 ar
  12    6    7 ar
  13    6   32 1
  14    7    8 ar
  15    7   16 1
  16    8    9 ar
  17    8   33 1
  18    9   10 ar
  19   11   12 2
  20   11   13 am
  21   13   26 1
  22   13   29 1
  23   15   30 1
  24   15   34 1
  25   15   35 1
  26   16   18 1
  27   16   36 1
  28   17   18 1
  29   17   25 1
  30   17   37 1
  31   17   38 1
  32   18   19 1
  33   18   39 1
  34   19   20 1
  35   19   40 1
  36   19   41 1
  37   20   21 ar
  38   20   25 ar
  39   21   22 ar
  40   21   42 1
  41   22   23 ar
  42   22   43 1
  43   23   24 ar
  44   23   44 1
  45   24   25 ar
  46   24   45 1
  47   26   27 1
  48   26   46 1
  49   26   47 1
  50   27   48 1
  51   27   49 1
  52   27   50 1
  53   28   29 1
  54   28   51 1
  55   28   52 1
  56   28   53 1
  57   29   54 1
  58   29   55 1
  59   30   56 1
  60   30   57 1
  61   30   58 1

#	End of record

