#	Name: ASD01914070
#	Creating user name:	WinNT
#	Creation time:	15. 06. 2019 20:02

#	Modifying user name:	WinNT
#	Modification time:	15. 06. 2019 20:02

#	Program:	/corina/corina34_cracker 3.40 0067  02.08.2006

@<TRIPOS>MOLECULE
ASD01914070
  52   54    0    0    0
SMALL
NO_CHARGES


@<TRIPOS>ATOM
   1 C1            -0.0169     1.3921     0.0097 C.ar    
   2 C2             0.0021    -0.0041     0.0020 C.ar    
   3 C3             2.4075     0.0362    -0.0207 C.ar    
   4 C4             2.3810     1.4237    -0.0130 C.ar    
   5 O5             3.5976    -0.6199    -0.0347 O.3     
   6 C6             4.7805     0.1819    -0.0408 C.3     
   7 C7             5.9934    -0.7123    -0.0563 C.ar    
   8 N8             7.1973    -0.1727    -0.0639 N.ar    
   9 C9             8.2893    -0.9087    -0.0775 C.ar    
  10 C10            8.2062    -2.3014    -0.0847 C.ar    
  11 C11            6.9421    -2.9036    -0.0768 C.ar    
  12 C12            5.8263    -2.0857    -0.0565 C.ar    
  13 C13            9.4322    -3.1274    -0.1009 C.2     
  14 N14           10.6432    -2.5359    -0.1088 N.am    
  15 O15            9.3480    -4.3400    -0.1071 O.2     
  16 C16            1.2225    -0.6805    -0.0133 C.ar    
  17 C17           11.8581    -3.3545    -0.1248 C.3     
  18 C18           -1.2268    -0.7393     0.0103 C.1     
  19 N19           -2.2016    -1.3225     0.0168 N.1     
  20 C20           13.0059    -2.5517    -0.7406 C.3     
  21 C21            1.1712     2.0979     0.0021 C.ar    
  22 F22            1.1526     3.4487     0.0096 F       
  23 C23           12.2242    -3.7520     1.3066 C.3     
  24 C24           14.2747    -3.4066    -0.7573 C.3     
  25 C25           15.4224    -2.6038    -1.3731 C.3     
  26 C26           15.0563    -2.2063    -2.8045 C.3     
  27 C27           13.7875    -1.3515    -2.7877 C.3     
  28 C28           12.6398    -2.1542    -2.1720 C.3     
  29 H29           -0.9591     1.9199     0.0170 H       
  30 H30            3.3068     1.9797    -0.0185 H       
  31 H31            4.7851     0.8159    -0.9274 H       
  32 H32            4.8008     0.8063     0.8524 H       
  33 H33            9.2574    -0.4300    -0.0834 H       
  34 H34            6.8407    -3.9788    -0.0821 H       
  35 H35            4.8353    -2.5148    -0.0499 H       
  36 H36           10.7104    -1.5683    -0.1039 H       
  37 H37            1.2429    -1.7603    -0.0189 H       
  38 H38           11.6836    -4.2522    -0.7178 H       
  39 H39           13.1804    -1.6540    -0.1476 H       
  40 H40           11.4066    -4.3239     1.7452 H       
  41 H41           13.1281    -4.3610     1.2946 H       
  42 H42           12.3988    -2.8542     1.8996 H       
  43 H43           14.5355    -3.6897     0.2624 H       
  44 H44           14.1001    -4.3043    -1.3504 H       
  45 H45           15.5970    -1.7060    -0.7801 H       
  46 H46           16.3263    -3.2128    -1.3850 H       
  47 H47           15.8740    -1.6344    -3.2432 H       
  48 H48           14.8817    -3.1041    -3.3975 H       
  49 H49           13.9621    -0.4537    -2.1947 H       
  50 H50           13.5267    -1.0683    -3.8075 H       
  51 H51           12.4652    -3.0520    -2.7650 H       
  52 H52           11.7359    -1.5452    -2.1600 H       
@<TRIPOS>BOND
   1    1    2 ar
   2    1   21 ar
   3    1   29 1
   4    2   16 ar
   5    2   18 1
   6    3    4 ar
   7    3    5 1
   8    3   16 ar
   9    4   21 ar
  10    4   30 1
  11    5    6 1
  12    6    7 1
  13    6   31 1
  14    6   32 1
  15    7    8 ar
  16    7   12 ar
  17    8    9 ar
  18    9   10 ar
  19    9   33 1
  20   10   11 ar
  21   10   13 1
  22   11   12 ar
  23   11   34 1
  24   12   35 1
  25   13   14 am
  26   13   15 2
  27   14   17 1
  28   14   36 1
  29   16   37 1
  30   17   20 1
  31   17   23 1
  32   17   38 1
  33   18   19 3
  34   20   24 1
  35   20   28 1
  36   20   39 1
  37   21   22 1
  38   23   40 1
  39   23   41 1
  40   23   42 1
  41   24   25 1
  42   24   43 1
  43   24   44 1
  44   25   26 1
  45   25   45 1
  46   25   46 1
  47   26   27 1
  48   26   47 1
  49   26   48 1
  50   27   28 1
  51   27   49 1
  52   27   50 1
  53   28   51 1
  54   28   52 1

#	End of record

