#	Name: ASD03331609
#	Creating user name:	WinNT
#	Creation time:	15. 06. 2019 20:39

#	Modifying user name:	WinNT
#	Modification time:	15. 06. 2019 20:39

#	Program:	/corina/corina34_cracker 3.40 0067  02.08.2006

@<TRIPOS>MOLECULE
ASD03331609
  64   67    0    0    0
SMALL
NO_CHARGES


@<TRIPOS>ATOM
   1 C1            -0.1388     1.7226     0.4840 C.ar    
   2 C2            -0.0070     0.2557     0.3462 C.2     
   3 N3            -0.9849    -0.6579     0.5884 N.pl3   
   4 C4            -0.4702    -1.8869     0.3463 C.2     
   5 C5             0.8198    -1.7170    -0.0409 C.2     
   6 N6             1.0741    -0.3876    -0.0369 N.2     
   7 C7             1.7684    -2.7846    -0.4042 C.2     
   8 N8             3.0266    -2.4716    -0.7721 N.am    
   9 C9            -2.3698    -0.4098     1.0356 C.3     
  10 C10           -2.5114    -1.0492     2.4265 C.3     
  11 C11           -2.7181    -2.5400     2.3154 C.3     
  12 N12           -1.5696    -3.3300     1.9253 N.3     
  13 C13           -1.2387    -3.1870     0.4946 C.3     
  14 C14           -0.9861     2.2611     1.4527 C.ar    
  15 O15            1.4158    -3.9482    -0.3720 O.2     
  16 C16            3.9696    -3.5330    -1.1333 C.3     
  17 C17           -1.7558    -4.7424     2.2839 C.3     
  18 C18           -3.2051    -3.0521     3.6724 C.3     
  19 C19            3.7859    -3.8984    -2.6076 C.3     
  20 C20            5.3793    -3.0508    -0.9071 C.2     
  21 C21            4.0486    -2.6658    -3.4751 C.3     
  22 C22            4.7708    -5.0069    -2.9848 C.3     
  23 C23            2.3547    -4.3880    -2.8372 C.3     
  24 C24           -1.1054     3.6316     1.5770 C.ar    
  25 C25           -0.3842     4.4710     0.7397 C.ar    
  26 C26            0.4577     3.9393    -0.2235 C.ar    
  27 C27            0.5885     2.5721    -0.3506 C.ar    
  28 F28           -0.5038     5.8110     0.8640 F       
  29 F29           -1.9253     4.1554     2.5143 F       
  30 N30            6.3485    -3.7160    -0.3261 N.2     
  31 O31            5.8823    -1.8656    -1.2657 O.3     
  32 N32            7.0476    -1.7969    -0.9362 N.2     
  33 C33            7.4149    -2.8967    -0.3497 C.2     
  34 C34            8.7842    -3.1989     0.2023 C.3     
  35 H35            3.3078    -1.5436    -0.7977 H       
  36 H36           -2.5543     0.6626     1.0983 H       
  37 H37           -3.0732    -0.8695     0.3412 H       
  38 H38           -1.6076    -0.8548     3.0039 H       
  39 H39           -3.3653    -0.6063     2.9392 H       
  40 H40           -3.5109    -2.7168     1.5885 H       
  41 H41           -2.1535    -3.1477    -0.0968 H       
  42 H42           -0.6203    -4.0239     0.1702 H       
  43 H43           -1.5479     1.6077     2.1038 H       
  44 H44            3.7825    -4.4111    -0.5152 H       
  45 H45           -2.7011    -5.0994     1.8752 H       
  46 H46           -0.9365    -5.3325     1.8735 H       
  47 H47           -1.7681    -4.8431     3.3692 H       
  48 H48           -4.0690    -2.4693     3.9919 H       
  49 H49           -3.4868    -4.1014     3.5850 H       
  50 H50           -2.4063    -2.9503     4.4071 H       
  51 H51            5.0683    -2.3170    -3.3115 H       
  52 H52            3.9178    -2.9262    -4.5254 H       
  53 H53            3.3470    -1.8762    -3.2064 H       
  54 H54            4.5836    -5.8850    -2.3668 H       
  55 H55            4.6399    -5.2672    -4.0351 H       
  56 H56            5.7904    -4.6581    -2.8212 H       
  57 H57            1.6530    -3.5984    -2.5684 H       
  58 H58            2.2238    -4.6484    -3.8875 H       
  59 H59            2.1675    -5.2662    -2.2191 H       
  60 H60            1.0164     4.5968    -0.8732 H       
  61 H61            1.2453     2.1594    -1.1021 H       
  62 H62            8.8346    -2.8805     1.2435 H       
  63 H63            8.9723    -4.2708     0.1407 H       
  64 H64            9.5360    -2.6641    -0.3781 H       
@<TRIPOS>BOND
   1    1    2 1
   2    1   14 ar
   3    1   27 ar
   4    2    3 1
   5    2    6 2
   6    3    4 1
   7    3    9 1
   8    4    5 2
   9    4   13 1
  10    5    6 1
  11    5    7 1
  12    7    8 am
  13    7   15 2
  14    8   16 1
  15    8   35 1
  16    9   10 1
  17    9   36 1
  18    9   37 1
  19   10   11 1
  20   10   38 1
  21   10   39 1
  22   11   12 1
  23   11   18 1
  24   11   40 1
  25   12   13 1
  26   12   17 1
  27   13   41 1
  28   13   42 1
  29   14   24 ar
  30   14   43 1
  31   16   19 1
  32   16   20 1
  33   16   44 1
  34   17   45 1
  35   17   46 1
  36   17   47 1
  37   18   48 1
  38   18   49 1
  39   18   50 1
  40   19   21 1
  41   19   22 1
  42   19   23 1
  43   20   30 2
  44   20   31 1
  45   21   51 1
  46   21   52 1
  47   21   53 1
  48   22   54 1
  49   22   55 1
  50   22   56 1
  51   23   57 1
  52   23   58 1
  53   23   59 1
  54   24   25 ar
  55   24   29 1
  56   25   26 ar
  57   25   28 1
  58   26   27 ar
  59   26   60 1
  60   27   61 1
  61   30   33 1
  62   31   32 1
  63   32   33 2
  64   33   34 1
  65   34   62 1
  66   34   63 1
  67   34   64 1

#	End of record

