#	Name: ASD01910295
#	Creating user name:	WinNT
#	Creation time:	15. 06. 2019 19:55

#	Modifying user name:	WinNT
#	Modification time:	15. 06. 2019 19:55

#	Program:	/corina/corina34_cracker 3.40 0067  02.08.2006

@<TRIPOS>MOLECULE
ASD01910295
  48   51    0    0    0
SMALL
NO_CHARGES


@<TRIPOS>ATOM
   1 C1             0.2736     0.1945    -0.3048 C.ar    
   2 C2             0.4431    -1.1757    -0.2495 C.ar    
   3 C3             1.7140    -1.7200    -0.1885 C.ar    
   4 C4             2.8225    -0.8979    -0.1830 C.ar    
   5 C5             2.6630     0.4845    -0.2389 C.ar    
   6 C6             1.3783     1.0315    -0.2999 C.ar    
   7 C7             3.8517     1.3727    -0.2327 C.2     
   8 N8             5.1145     0.9980    -0.1778 N.2     
   9 N9             5.8423     2.0614    -0.1938 N.pl3   
  10 N10            5.0812     3.0976    -0.2572 N.2     
  11 N11            3.8507     2.7123    -0.2878 N.2     
  12 C12            7.3064     2.0869    -0.1469 C.3     
  13 C13            7.8460     2.7697    -1.4057 C.3     
  14 C14            9.3760     2.7676    -1.3732 C.3     
  15 C15            9.8579     3.5560    -0.1513 C.3     
  16 N16            9.2280     2.9951     1.0518 N.am    
  17 C17            7.7648     2.8675     1.0890 C.3     
  18 C18            9.9782     2.6051     2.1014 C.2     
  19 C19            9.3266     2.1649     3.3520 C.ar    
  20 O20           11.1910     2.6156     2.0190 O.2     
  21 C21            9.8153     1.0543     4.0434 C.ar    
  22 C22            9.2038     0.6482     5.2100 C.ar    
  23 C23            8.1055     1.3401     5.6974 C.ar    
  24 C24            7.6160     2.4432     5.0146 C.ar    
  25 C25            8.2234     2.8614     3.8501 C.ar    
  26 F26            7.5100     0.9378     6.8413 F       
  27 O27            1.2130     2.3787    -0.3551 O.3     
  28 C28           -0.1291     2.8657    -0.4157 C.3     
  29 H29           -0.7205     0.6135    -0.3564 H       
  30 H30           -0.4200    -1.8247    -0.2535 H       
  31 H31            1.8387    -2.7919    -0.1448 H       
  32 H32            3.8128    -1.3262    -0.1350 H       
  33 H33            7.6865     1.0667    -0.0950 H       
  34 H34            7.5008     2.2303    -2.2877 H       
  35 H35            7.4850     3.7975    -1.4445 H       
  36 H36            9.7372     1.7412    -1.3095 H       
  37 H37            9.7599     3.2332    -2.2810 H       
  38 H38           10.9417     3.4746    -0.0680 H       
  39 H39            9.5751     4.6033    -0.2573 H       
  40 H40            7.3113     3.8587     1.0840 H       
  41 H41            7.4675     2.3319     1.9905 H       
  42 H42           10.6704     0.5145     3.6645 H       
  43 H43            9.5807    -0.2108     5.7454 H       
  44 H44            6.7600     2.9784     5.3984 H       
  45 H45            7.8415     3.7209     3.3192 H       
  46 H46           -0.6179     2.4738    -1.3077 H       
  47 H47           -0.6742     2.5398     0.4702 H       
  48 H48           -0.1189     3.9549    -0.4558 H       
@<TRIPOS>BOND
   1    1    2 ar
   2    1    6 ar
   3    1   29 1
   4    2    3 ar
   5    2   30 1
   6    3    4 ar
   7    3   31 1
   8    4    5 ar
   9    4   32 1
  10    5    6 ar
  11    5    7 1
  12    6   27 1
  13    7    8 2
  14    7   11 1
  15    8    9 1
  16    9   10 1
  17    9   12 1
  18   10   11 2
  19   12   13 1
  20   12   17 1
  21   12   33 1
  22   13   14 1
  23   13   34 1
  24   13   35 1
  25   14   15 1
  26   14   36 1
  27   14   37 1
  28   15   16 1
  29   15   38 1
  30   15   39 1
  31   16   17 1
  32   16   18 am
  33   17   40 1
  34   17   41 1
  35   18   19 1
  36   18   20 2
  37   19   21 ar
  38   19   25 ar
  39   21   22 ar
  40   21   42 1
  41   22   23 ar
  42   22   43 1
  43   23   24 ar
  44   23   26 1
  45   24   25 ar
  46   24   44 1
  47   25   45 1
  48   27   28 1
  49   28   46 1
  50   28   47 1
  51   28   48 1

#	End of record

