#	Name: ASD03731830
#	Creating user name:	WinNT
#	Creation time:	15. 06. 2019 20:46

#	Modifying user name:	WinNT
#	Modification time:	15. 06. 2019 20:46

#	Program:	/corina/corina34_cracker 3.40 0067  02.08.2006

@<TRIPOS>MOLECULE
ASD03731830
  34   35    0    0    0
SMALL
NO_CHARGES


@<TRIPOS>ATOM
   1 C1            -0.1569     1.4665     0.0376 C.2     
   2 C2            -0.1004    -0.0069     0.0222 C.ar    
   3 C3             1.1264    -0.6609    -0.1435 C.ar    
   4 C4             1.1737    -2.0403    -0.1567 C.ar    
   5 C5             0.0068    -2.7780    -0.0062 C.ar    
   6 C6            -1.2144    -2.1311     0.1583 C.ar    
   7 C7            -1.2707    -0.7551     0.1790 C.ar    
   8 O8             0.8630     2.1155    -0.0939 O.2     
   9 N9            -1.3397     2.0939     0.1918 N.am    
  10 S10           -1.4032     3.7486     0.2090 S.o2    
  11 O11           -2.7782     4.0445     0.4118 O.2     
  12 O12           -0.4235     4.1270     1.1663 O.2     
  13 C13           -0.8859     4.2389    -1.4591 C.3     
  14 F14            2.2616     0.0567    -0.2908 F       
  15 O15            0.0575    -4.1342    -0.0202 O.3     
  16 C16           -0.1539    -4.7675    -1.2015 C.ar    
  17 C17           -0.0482    -6.1635    -1.2811 C.ar    
  18 C18           -0.2680    -6.8038    -2.5027 C.ar    
  19 C19           -0.5866    -6.0617    -3.6201 C.ar    
  20 C20           -0.6896    -4.6833    -3.5374 C.ar    
  21 C21           -0.4808    -4.0378    -2.3339 C.ar    
  22 C22            0.2837    -6.9281    -0.1167 C.1     
  23 N23            0.5469    -7.5347     0.8071 N.1     
  24 Cl24          -2.6687    -3.0606     0.3446 Cl      
  25 H25            2.1191    -2.5464    -0.2844 H       
  26 H26           -2.2186    -0.2548     0.3112 H       
  27 H27           -2.1538     1.5763     0.2926 H       
  28 H28           -1.5712     3.8130    -2.1919 H       
  29 H29           -0.8985     5.3259    -1.5387 H       
  30 H30            0.1229     3.8723    -1.6491 H       
  31 H31           -0.1880    -7.8786    -2.5720 H       
  32 H32           -0.7564    -6.5577    -4.5644 H       
  33 H33           -0.9390    -4.1098    -4.4179 H       
  34 H34           -0.5677    -2.9629    -2.2764 H       
@<TRIPOS>BOND
   1    1    2 1
   2    1    8 2
   3    1    9 am
   4    2    3 ar
   5    2    7 ar
   6    3    4 ar
   7    3   14 1
   8    4    5 ar
   9    4   25 1
  10    5    6 ar
  11    5   15 1
  12    6    7 ar
  13    6   24 1
  14    7   26 1
  15    9   10 am
  16    9   27 1
  17   10   11 2
  18   10   12 2
  19   10   13 1
  20   13   28 1
  21   13   29 1
  22   13   30 1
  23   15   16 1
  24   16   17 ar
  25   16   21 ar
  26   17   18 ar
  27   17   22 1
  28   18   19 ar
  29   18   31 1
  30   19   20 ar
  31   19   32 1
  32   20   21 ar
  33   20   33 1
  34   21   34 1
  35   22   23 3

#	End of record

