#	Name: ASD01881995
#	Creating user name:	WinNT
#	Creation time:	15. 06. 2019 19:43

#	Modifying user name:	WinNT
#	Modification time:	15. 06. 2019 19:43

#	Program:	/corina/corina34_cracker 3.40 0067  02.08.2006

@<TRIPOS>MOLECULE
ASD01881995
  48   51    0    0    0
SMALL
NO_CHARGES


@<TRIPOS>ATOM
   1 C1            -0.0161     1.3337     0.0094 C.2     
   2 N2             0.0021    -0.0041     0.0020 N.am    
   3 C3             1.2613    -0.4841    -0.0126 C.2     
   4 C4             2.1640     0.7337    -0.0147 C.3     
   5 N5             1.2200     1.8645     0.0004 N.am    
   6 O6            -1.0354     1.9955     0.0180 O.2     
   7 O7             1.6013    -1.6477    -0.0215 O.2     
   8 C8            -1.1986    -0.8435     0.0097 C.3     
   9 C9            -1.6247    -1.1237    -1.4083 C.ar    
  10 C10           -1.1323    -2.2349    -2.0689 C.ar    
  11 C11           -1.5190    -2.4965    -3.3676 C.ar    
  12 C12           -2.4077    -1.6384    -4.0136 C.ar    
  13 C13           -2.9006    -0.5202    -3.3429 C.ar    
  14 C14           -2.5112    -0.2718    -2.0425 C.ar    
  15 C15           -4.1926    -2.4478    -9.3767 C.2     
  16 N16           -5.0100    -1.3943    -9.5452 N.am    
  17 C17           -5.0237    -0.6045    -8.3088 C.3     
  18 C18           -4.1017    -1.3115    -7.3465 C.ar    
  19 C19           -3.7166    -1.0533    -6.0543 C.ar    
  20 C20           -2.8266    -1.9139    -5.4091 C.ar    
  21 C21           -2.3314    -3.0332    -6.0789 C.ar    
  22 C22           -2.7176    -3.2918    -7.3743 C.ar    
  23 C23           -3.6087    -2.4317    -8.0227 C.ar    
  24 C24           -5.7629    -1.0851   -10.7633 C.3     
  25 C25           -7.1346    -1.7598   -10.7002 C.3     
  26 F26           -7.8360    -1.2871    -9.5859 F       
  27 F27           -7.8536    -1.4645   -11.8634 F       
  28 F28           -6.9686    -3.1448   -10.5936 F       
  29 O29           -3.9704    -3.2960   -10.2188 O.2     
  30 C30            1.5609     3.2893     0.0041 C.3     
  31 H31            2.7924     0.7467     0.8759 H       
  32 H32            2.7753     0.7564    -0.9169 H       
  33 H33           -0.9813    -1.7838     0.5163 H       
  34 H34           -2.0010    -0.3250     0.5345 H       
  35 H35           -0.4437    -2.8988    -1.5675 H       
  36 H36           -1.1337    -3.3642    -3.8825 H       
  37 H37           -3.5892     0.1480    -3.8385 H       
  38 H38           -2.8961     0.5917    -1.5202 H       
  39 H39           -4.6592     0.4040    -8.5044 H       
  40 H40           -6.0334    -0.5657    -7.9001 H       
  41 H41           -4.1016    -0.1864    -5.5378 H       
  42 H42           -1.6426    -3.6984    -5.5795 H       
  43 H43           -2.3320    -4.1589    -7.8900 H       
  44 H44           -5.8923    -0.0060   -10.8464 H       
  45 H45           -5.2164    -1.4534   -11.6316 H       
  46 H46            0.6460     3.8817     0.0159 H       
  47 H47            2.1538     3.5187     0.8895 H       
  48 H48            2.1365     3.5274    -0.8904 H       
@<TRIPOS>BOND
   1    1    2 am
   2    1    5 am
   3    1    6 2
   4    2    3 am
   5    2    8 1
   6    3    4 1
   7    3    7 2
   8    4    5 1
   9    4   31 1
  10    4   32 1
  11    5   30 1
  12    8    9 1
  13    8   33 1
  14    8   34 1
  15    9   10 ar
  16    9   14 ar
  17   10   11 ar
  18   10   35 1
  19   11   12 ar
  20   11   36 1
  21   12   13 ar
  22   12   20 1
  23   13   14 ar
  24   13   37 1
  25   14   38 1
  26   15   16 am
  27   15   23 1
  28   15   29 2
  29   16   17 1
  30   16   24 1
  31   17   18 1
  32   17   39 1
  33   17   40 1
  34   18   19 ar
  35   18   23 ar
  36   19   20 ar
  37   19   41 1
  38   20   21 ar
  39   21   22 ar
  40   21   42 1
  41   22   23 ar
  42   22   43 1
  43   24   25 1
  44   24   44 1
  45   24   45 1
  46   25   26 1
  47   25   27 1
  48   25   28 1
  49   30   46 1
  50   30   47 1
  51   30   48 1

#	End of record

