#	Name: ASD01811086
#	Creating user name:	WinNT
#	Creation time:	15. 06. 2019 19:26

#	Modifying user name:	WinNT
#	Modification time:	15. 06. 2019 19:26

#	Program:	/corina/corina34_cracker 3.40 0067  02.08.2006

@<TRIPOS>MOLECULE
ASD01811086
  37   40    0    0    0
SMALL
NO_CHARGES


@<TRIPOS>ATOM
   1 C1            -0.0167     1.3786     0.0096 C.2     
   2 C2             0.0021    -0.0041     0.0020 C.2     
   3 N3            -1.2005    -0.7055     0.0097 N.pl3   
   4 C4            -2.3926    -0.1023     0.0243 C.2     
   5 C5            -2.4965     1.2739     0.0323 C.2     
   6 C6            -1.2596     2.0677     0.0305 C.2     
   7 C7            -1.1569    -2.1698     0.0010 C.3     
   8 C8            -1.1281    -2.6800     1.4187 C.ar    
   9 O9            -1.2988     3.2879     0.0377 O.2     
  10 C10           -3.8117     1.9296     0.0473 C.2     
  11 O11           -4.8253     1.2585     0.0530 O.2     
  12 O12           -3.8940     3.2751     0.0549 O.3     
  13 S13            1.6315     1.9957    -0.0028 S.3     
  14 C14            2.2835     0.3656    -0.0178 C.2     
  15 C15            1.2977    -0.5254    -0.0131 C.2     
  16 N16            0.0250    -2.7716     2.0523 N.ar    
  17 C17            0.1042    -3.2111     3.2917 C.ar    
  18 C18           -1.0427    -3.5987     3.9813 C.ar    
  19 C19           -2.2801    -3.5134     3.3370 C.ar    
  20 C20           -2.3120    -3.0396     2.0369 C.ar    
  21 C21           -0.9519    -4.0945     5.3768 C.2     
  22 C22            0.2566    -4.1991     6.0631 C.2     
  23 C23            0.1568    -4.6619     7.3066 C.2     
  24 S24           -1.5259    -5.0008     7.6867 S.3     
  25 C25           -2.0303    -4.4750     6.0862 C.2     
  26 H26           -3.2907    -0.7021     0.0297 H       
  27 H27           -2.0406    -2.5566    -0.5065 H       
  28 H28           -0.2615    -2.5035    -0.5235 H       
  29 H29           -4.7808     3.6606     0.0648 H       
  30 H30            3.3355     0.1218    -0.0295 H       
  31 H31            1.4869    -1.5886    -0.0210 H       
  32 H32            1.0669    -3.2719     3.7775 H       
  33 H33           -3.1887    -3.8060     3.8422 H       
  34 H34           -3.2502    -2.9597     1.5080 H       
  35 H35            1.2024    -3.9254     5.6192 H       
  36 H36            0.9867    -4.8082     7.9822 H       
  37 H37           -3.0485    -4.4635     5.7263 H       
@<TRIPOS>BOND
   1    1    2 2
   2    1   13 1
   3    1    6 1
   4    2    3 1
   5    2   15 1
   6    3    4 1
   7    3    7 1
   8    4    5 2
   9    4   26 1
  10    5    6 1
  11    5   10 1
  12    6    9 2
  13    7    8 1
  14    7   27 1
  15    7   28 1
  16    8   16 ar
  17    8   20 ar
  18   10   11 2
  19   10   12 1
  20   12   29 1
  21   13   14 1
  22   14   15 2
  23   14   30 1
  24   15   31 1
  25   16   17 ar
  26   17   18 ar
  27   17   32 1
  28   18   19 ar
  29   18   21 1
  30   19   20 ar
  31   19   33 1
  32   20   34 1
  33   21   22 1
  34   21   25 2
  35   22   23 2
  36   22   35 1
  37   23   24 1
  38   23   36 1
  39   24   25 1
  40   25   37 1

#	End of record

