#	Name: ASD01150776
#	Creating user name:	WinNT
#	Creation time:	15. 06. 2019 19:05

#	Modifying user name:	WinNT
#	Modification time:	15. 06. 2019 19:05

#	Program:	/corina/corina34_cracker 3.40 0067  02.08.2006

@<TRIPOS>MOLECULE
ASD01150776
  60   63    0    0    0
SMALL
NO_CHARGES


@<TRIPOS>ATOM
   1 C1            -0.0034     1.4275     0.0439 C.2     
   2 C2            -0.5036     1.0184    -1.3175 C.3     
   3 N3             3.5644     2.3089     0.4770 N.ar    
   4 C4             2.4628     1.6142     0.3658 C.ar    
   5 C5             1.2157     2.2341     0.1654 C.ar    
   6 C6             1.1525     3.6368     0.0827 C.ar    
   7 C7             2.3650     4.3592     0.2073 C.ar    
   8 C8             2.3842     5.7579     0.1363 C.ar    
   9 C9             3.5836     6.4279     0.2624 C.ar    
  10 C10            4.7740     5.7200     0.4595 C.ar    
  11 C11            4.7769     4.3613     0.5313 C.ar    
  12 C12            3.5734     3.6472     0.4074 C.ar    
  13 C13            2.5302     0.1112     0.4538 C.3     
  14 C14           -0.1339     4.3329    -0.1274 C.ar    
  15 C15           -1.1322     4.2713     0.8473 C.ar    
  16 C16           -2.3304     4.9238     0.6449 C.ar    
  17 C17           -2.5447     5.6380    -0.5209 C.ar    
  18 C18           -1.5600     5.7029    -1.4911 C.ar    
  19 C19           -0.3547     5.0603    -1.2990 C.ar    
  20 S20           -4.0786     6.4680    -0.7715 S.o2    
  21 O21           -4.2123     6.5384    -2.1844 O.2     
  22 O22           -5.0064     5.7351     0.0167 O.2     
  23 C23           -3.8175     8.1220    -0.0737 C.3     
  24 N24            3.6096     7.8222     0.1925 N.3     
  25 C25            4.9779     8.3317     0.3498 C.3     
  26 C26            4.9502     9.8604     0.4139 C.3     
  27 C27            4.3261    10.4091    -0.8722 C.3     
  28 C28            2.9202     9.8255    -1.0372 C.3     
  29 C29            3.0067     8.2977    -1.0592 C.3     
  30 C30            4.2400    11.9344    -0.7884 C.3     
  31 O31            5.1325    10.0358    -1.9913 O.3     
  32 F32           -1.6221     0.1905    -1.1739 F       
  33 F33           -0.8580     2.1589    -2.0462 F       
  34 F34            0.5050     0.3261    -1.9963 F       
  35 O35           -0.6117     1.0940     1.0391 O.2     
  36 H36            1.4672     6.3076    -0.0165 H       
  37 H37            5.7044     6.2599     0.5556 H       
  38 H38            5.7055     3.8311     0.6835 H       
  39 H39            2.4888    -0.1937     1.4994 H       
  40 H40            1.6877    -0.3224    -0.0848 H       
  41 H41            3.4630    -0.2372     0.0104 H       
  42 H42           -0.9666     3.7137     1.7573 H       
  43 H43           -3.1033     4.8770     1.3977 H       
  44 H44           -1.7341     6.2614    -2.3989 H       
  45 H45            0.4146     5.1154    -2.0550 H       
  46 H46           -2.9985     8.6130    -0.5993 H       
  47 H47           -4.7271     8.7117    -0.1866 H       
  48 H48           -3.5699     8.0350     0.9843 H       
  49 H49            5.4086     7.9373     1.2702 H       
  50 H50            5.5833     8.0146    -0.4993 H       
  51 H51            4.3563    10.1781     1.2709 H       
  52 H52            5.9674    10.2389     0.5150 H       
  53 H53            2.2943    10.1426    -0.2031 H       
  54 H54            2.4870    10.1789    -1.9729 H       
  55 H55            3.6213     7.9808    -1.9017 H       
  56 H56            2.0057     7.8787    -1.1623 H       
  57 H57            5.2407    12.3486    -0.6653 H       
  58 H58            3.7956    12.3240    -1.7043 H       
  59 H59            3.6223    12.2171     0.0640 H       
  60 H60            4.7957    10.3508    -2.8413 H       
@<TRIPOS>BOND
   1    1    2 1
   2    1    5 1
   3    1   35 2
   4    2   32 1
   5    2   33 1
   6    2   34 1
   7    3    4 ar
   8    3   12 ar
   9    4    5 ar
  10    4   13 1
  11    5    6 ar
  12    6    7 ar
  13    6   14 1
  14    7    8 ar
  15    7   12 ar
  16    8    9 ar
  17    8   36 1
  18    9   10 ar
  19    9   24 1
  20   10   11 ar
  21   10   37 1
  22   11   12 ar
  23   11   38 1
  24   13   39 1
  25   13   40 1
  26   13   41 1
  27   14   15 ar
  28   14   19 ar
  29   15   16 ar
  30   15   42 1
  31   16   17 ar
  32   16   43 1
  33   17   18 ar
  34   17   20 1
  35   18   19 ar
  36   18   44 1
  37   19   45 1
  38   20   21 2
  39   20   22 2
  40   20   23 1
  41   23   46 1
  42   23   47 1
  43   23   48 1
  44   24   25 1
  45   24   29 1
  46   25   26 1
  47   25   49 1
  48   25   50 1
  49   26   27 1
  50   26   51 1
  51   26   52 1
  52   27   28 1
  53   27   30 1
  54   27   31 1
  55   28   29 1
  56   28   53 1
  57   28   54 1
  58   29   55 1
  59   29   56 1
  60   30   57 1
  61   30   58 1
  62   30   59 1
  63   31   60 1

#	End of record

