#	Name: ASD08070259
#	Creating user name:	WinNT
#	Creation time:	15. 06. 2019 21:14

#	Modifying user name:	WinNT
#	Modification time:	15. 06. 2019 21:14

#	Program:	/corina/corina34_cracker 3.40 0067  02.08.2006

@<TRIPOS>MOLECULE
ASD08070259
  30   31    0    0    0
SMALL
NO_CHARGES


@<TRIPOS>ATOM
   1 C1            -0.0165     1.3623     0.0095 C.2     
   2 C2             0.0021    -0.0041     0.0020 C.2     
   3 C3             1.2719    -0.5305    -0.0129 C.2     
   4 C4             2.2604     0.3715    -0.0175 C.2     
   5 S5             1.6372     1.9597    -0.0030 S.3     
   6 C6            -1.2218     2.1963     0.0200 C.2     
   7 O7            -2.3219     1.6758     0.0226 O.2     
   8 N8            -1.1118     3.5395     0.0268 N.am    
   9 C9            -2.3166     4.3731     0.0372 C.3     
  10 C10           -1.9212     5.8273     0.0432 C.ar    
  11 C11           -1.7460     6.4998    -1.1522 C.ar    
  12 C12           -1.3836     7.8328    -1.1494 C.ar    
  13 C13           -1.1954     8.4968     0.0541 C.ar    
  14 C14           -1.3718     7.8198     1.2521 C.ar    
  15 C15           -1.7397     6.4882     1.2440 C.ar    
  16 O16           -0.8385     9.8081     0.0595 O.3     
  17 C17           -0.6620    10.4272     1.3353 C.3     
  18 F18            0.3448     9.7606     2.0418 F       
  19 F19           -0.2986    11.7664     1.1574 F       
  20 F20           -1.8595    10.3606     2.0555 F       
  21 H21           -0.8919    -0.6100     0.0079 H       
  22 H22            1.4581    -1.5943    -0.0201 H       
  23 H23            3.3122     0.1268    -0.0289 H       
  24 H24           -0.2350     3.9544     0.0247 H       
  25 H25           -2.9121     4.1621    -0.8510 H       
  26 H26           -2.9033     4.1524     0.9289 H       
  27 H27           -1.8923     5.9824    -2.0888 H       
  28 H28           -1.2466     8.3576    -2.0833 H       
  29 H29           -1.2258     8.3344     2.1903 H       
  30 H30           -1.8818     5.9620     2.1764 H       
@<TRIPOS>BOND
   1    1    2 2
   2    1    5 1
   3    1    6 1
   4    2    3 1
   5    2   21 1
   6    3    4 2
   7    3   22 1
   8    4    5 1
   9    4   23 1
  10    6    7 2
  11    6    8 am
  12    8    9 1
  13    8   24 1
  14    9   10 1
  15    9   25 1
  16    9   26 1
  17   10   11 ar
  18   10   15 ar
  19   11   12 ar
  20   11   27 1
  21   12   13 ar
  22   12   28 1
  23   13   14 ar
  24   13   16 1
  25   14   15 ar
  26   14   29 1
  27   15   30 1
  28   16   17 1
  29   17   18 1
  30   17   19 1
  31   17   20 1

#	End of record

