#	Name: ASD03730045
#	Creating user name:	WinNT
#	Creation time:	15. 06. 2019 20:43

#	Modifying user name:	WinNT
#	Modification time:	15. 06. 2019 20:43

#	Program:	/corina/corina34_cracker 3.40 0067  02.08.2006

@<TRIPOS>MOLECULE
ASD03730045
  57   63    0    0    0
SMALL
NO_CHARGES


@<TRIPOS>ATOM
   1 O1             0.1689    -1.2634    -0.6010 O.3     
   2 C2             0.7782    -2.4828    -0.5760 C.ar    
   3 C3             2.1387    -2.3713    -0.8535 C.ar    
   4 C4             2.4168    -0.9069    -1.0585 C.3     
   5 C5             1.1645    -0.2289    -0.4855 C.3     
   6 O6             0.7167    -6.1773    -0.1332 O.3     
   7 C7             1.0427    -4.8733    -0.3534 C.ar    
   8 C8             2.3941    -4.7367    -0.6456 C.ar    
   9 C9             2.9978    -6.1272    -0.6228 C.3     
  10 C10            1.7380    -7.0228    -0.6886 C.3     
  11 C11            2.9373    -3.4942    -0.8904 C.ar    
  12 C12            0.2398    -3.7386    -0.3246 C.ar    
  13 N13            4.4703     0.0675    -1.2999 N.am    
  14 C14            3.6659    -0.4596    -0.3553 C.2     
  15 C15            2.6280    -0.5614    -2.5028 C.ar    
  16 C16            1.8640    -0.7117    -3.6385 C.ar    
  17 C17            2.3478    -0.2812    -4.8611 C.ar    
  18 C18            3.6001     0.3004    -4.9397 C.ar    
  19 C19            4.3692     0.4532    -3.8050 C.ar    
  20 C20            3.8901     0.0232    -2.5699 C.ar    
  21 O21            3.9042    -0.5538     0.8302 O.2     
  22 C22            5.7983     0.6223    -1.0264 C.3     
  23 C23            5.8081     2.0912    -1.3630 C.ar    
  24 C24            6.9333     2.6638    -1.9259 C.ar    
  25 C25            6.9423     4.0113    -2.2346 C.ar    
  26 C26            5.8260     4.7860    -1.9808 C.ar    
  27 C27            4.7004     4.2132    -1.4187 C.ar    
  28 C28            4.6899     2.8648    -1.1140 C.ar    
  29 C29            6.1286     0.4390     0.4325 C.ar    
  30 C30            7.0813    -0.4869     0.8144 C.ar    
  31 C31            7.3842    -0.6551     2.1526 C.ar    
  32 C32            6.7348     0.1030     3.1089 C.ar    
  33 C33            5.7827     1.0296     2.7269 C.ar    
  34 C34            5.4829     1.2008     1.3883 C.ar    
  35 H35            0.8889     0.6416    -1.0807 H       
  36 H36            1.3168     0.0469     0.5580 H       
  37 H37            3.6366    -6.2889    -1.4911 H       
  38 H38            3.5491    -6.2975     0.3019 H       
  39 H39            1.8693    -7.9189    -0.0822 H       
  40 H40            1.5037    -7.2844    -1.7205 H       
  41 H41            3.9901    -3.4001    -1.1119 H       
  42 H42           -0.8132    -3.8344    -0.1042 H       
  43 H43            0.8864    -1.1663    -3.5749 H       
  44 H44            1.7490    -0.3993    -5.7521 H       
  45 H45            3.9777     0.6363    -5.8941 H       
  46 H46            5.3465     0.9075    -3.8745 H       
  47 H47            6.5404     0.1052    -1.6347 H       
  48 H48            7.8055     2.0586    -2.1242 H       
  49 H49            7.8217     4.4588    -2.6737 H       
  50 H50            5.8333     5.8388    -2.2213 H       
  51 H51            3.8283     4.8185    -1.2201 H       
  52 H52            3.8092     2.4165    -0.6783 H       
  53 H53            7.5887    -1.0792     0.0673 H       
  54 H54            8.1280    -1.3790     2.4511 H       
  55 H55            6.9710    -0.0289     4.1545 H       
  56 H56            5.2751     1.6217     3.4740 H       
  57 H57            4.7418     1.9274     1.0896 H       
@<TRIPOS>BOND
   1    1    2 1
   2    1    5 1
   3    2    3 ar
   4    2   12 ar
   5    3    4 1
   6    3   11 ar
   7    4    5 1
   8    4   14 1
   9    4   15 1
  10    5   35 1
  11    5   36 1
  12    6    7 1
  13    6   10 1
  14    7    8 ar
  15    7   12 ar
  16    8    9 1
  17    8   11 ar
  18    9   10 1
  19    9   37 1
  20    9   38 1
  21   10   39 1
  22   10   40 1
  23   11   41 1
  24   12   42 1
  25   13   14 am
  26   13   20 1
  27   13   22 1
  28   14   21 2
  29   15   16 ar
  30   15   20 ar
  31   16   17 ar
  32   16   43 1
  33   17   18 ar
  34   17   44 1
  35   18   19 ar
  36   18   45 1
  37   19   20 ar
  38   19   46 1
  39   22   23 1
  40   22   29 1
  41   22   47 1
  42   23   24 ar
  43   23   28 ar
  44   24   25 ar
  45   24   48 1
  46   25   26 ar
  47   25   49 1
  48   26   27 ar
  49   26   50 1
  50   27   28 ar
  51   27   51 1
  52   28   52 1
  53   29   30 ar
  54   29   34 ar
  55   30   31 ar
  56   30   53 1
  57   31   32 ar
  58   31   54 1
  59   32   33 ar
  60   32   55 1
  61   33   34 ar
  62   33   56 1
  63   34   57 1

#	End of record

