#	Name: ASD01912652
#	Creating user name:	WinNT
#	Creation time:	15. 06. 2019 20:00

#	Modifying user name:	WinNT
#	Modification time:	15. 06. 2019 20:00

#	Program:	/corina/corina34_cracker 3.40 0067  02.08.2006

@<TRIPOS>MOLECULE
ASD01912652
  39   42    0    0    0
SMALL
NO_CHARGES


@<TRIPOS>ATOM
   1 C1            -0.0165     1.3668     0.0096 C.2     
   2 N2             0.0021    -0.0041     0.0020 N.pl3   
   3 C3            -1.2026    -0.6917     0.0094 C.2     
   4 C4            -2.3632    -0.0490     0.0236 C.2     
   5 N5            -2.4362     1.3300     0.0317 N.am    
   6 C6            -1.3026     2.0665     0.0309 C.2     
   7 C7             1.3011     1.7836    -0.0008 C.2     
   8 C8             2.0549     0.6112    -0.0143 C.2     
   9 N9             1.2243    -0.4045    -0.0118 N.2     
  10 O10           -1.3500     3.2834     0.0380 O.2     
  11 C11           -3.7417     1.9945     0.0473 C.3     
  12 C12            3.5593     0.5254    -0.0291 C.3     
  13 O13            4.1117     1.8433    -0.0273 O.3     
  14 C14            5.4669     1.9443    -0.0397 C.ar    
  15 C15            6.0706     3.1934    -0.0388 C.ar    
  16 C16            7.4483     3.2934    -0.0514 C.ar    
  17 C17            8.2255     2.1499    -0.0650 C.ar    
  18 C18            7.6263     0.9039    -0.0664 C.ar    
  19 C19            6.2490     0.7985    -0.0476 C.ar    
  20 C20           -4.1829     2.2181     1.4951 C.3     
  21 C21           -5.4730     3.0073     1.7266 C.3     
  22 C22           -5.4466     1.4967     1.9679 C.3     
  23 F23           -5.5282     3.8400     2.8495 F       
  24 F24           -6.1590     3.4693     0.5983 F       
  25 H25           -1.1956    -1.7717     0.0032 H       
  26 H26           -3.2788    -0.6218     0.0285 H       
  27 H27            1.6679     2.7994     0.0006 H       
  28 H28           -3.6665     2.9552    -0.4621 H       
  29 H29           -4.4740     1.3689    -0.4632 H       
  30 H30            3.9013    -0.0131     0.8548 H       
  31 H31            3.8843    -0.0036    -0.9251 H       
  32 H32            5.4639     4.0868    -0.0285 H       
  33 H33            7.9188     4.2656    -0.0511 H       
  34 H34            9.3025     2.2302    -0.0749 H       
  35 H35            8.2356     0.0122    -0.0778 H       
  36 H36            5.7814    -0.1750    -0.0487 H       
  37 H37           -3.3770     2.3479     2.2174 H       
  38 H38           -5.9637     0.8628     1.2475 H       
  39 H39           -5.4722     1.1516     3.0016 H       
@<TRIPOS>BOND
   1    1    2 1
   2    1    7 2
   3    1    6 1
   4    2    3 1
   5    2    9 1
   6    3    4 2
   7    3   25 1
   8    4    5 1
   9    4   26 1
  10    5    6 am
  11    5   11 1
  12    6   10 2
  13    7    8 1
  14    7   27 1
  15    8    9 2
  16    8   12 1
  17   11   20 1
  18   11   28 1
  19   11   29 1
  20   12   13 1
  21   12   30 1
  22   12   31 1
  23   13   14 1
  24   14   15 ar
  25   14   19 ar
  26   15   16 ar
  27   15   32 1
  28   16   17 ar
  29   16   33 1
  30   17   18 ar
  31   17   34 1
  32   18   19 ar
  33   18   35 1
  34   19   36 1
  35   20   21 1
  36   20   22 1
  37   20   37 1
  38   21   22 1
  39   21   23 1
  40   21   24 1
  41   22   38 1
  42   22   39 1

#	End of record

