#	Name: ASD01883307
#	Creating user name:	WinNT
#	Creation time:	15. 06. 2019 19:46

#	Modifying user name:	WinNT
#	Modification time:	15. 06. 2019 19:46

#	Program:	/corina/corina34_cracker 3.40 0067  02.08.2006

@<TRIPOS>MOLECULE
ASD01883307
  42   43    0    0    0
SMALL
NO_CHARGES


@<TRIPOS>ATOM
   1 N1            -0.0162     1.3415     0.0094 N.am    
   2 C2             0.0021    -0.0041     0.0020 C.2     
   3 C3            -1.2150    -0.7278     0.0102 C.2     
   4 C4            -2.4286    -0.0091     0.0261 C.2     
   5 C5            -2.3787     1.4029     0.0332 C.2     
   6 C6            -1.1850     2.0348     0.0299 C.2     
   7 O7             1.0659    -0.5997    -0.0122 O.2     
   8 C8            -1.2138    -2.1598     0.0021 C.1     
   9 N9            -1.2129    -3.2958    -0.0044 N.1     
  10 C10            1.2519     2.0751     0.0013 C.3     
  11 C11            1.6795     2.3383    -1.4440 C.3     
  12 C12            3.0038     3.1045    -1.4525 C.3     
  13 C13            3.4945     3.2588    -2.8935 C.3     
  14 C14            2.7964     4.4882    -0.8335 C.3     
  15 C15           -3.7149    -0.7124     0.0347 C.2     
  16 C16           -4.8662    -0.0116     0.0499 C.2     
  17 C17           -6.1577    -0.7178     0.0584 C.ar    
  18 C18           -7.3543     0.0057     0.0742 C.ar    
  19 C19           -8.5601    -0.6631     0.0817 C.ar    
  20 C20           -8.5881    -2.0468     0.0740 C.ar    
  21 C21           -7.4081    -2.7700     0.0584 C.ar    
  22 C22           -6.1944    -2.1157     0.0450 C.ar    
  23 H23           -3.2939     1.9762     0.0450 H       
  24 H24           -1.1588     3.1145     0.0358 H       
  25 H25            1.1256     3.0247     0.5214 H       
  26 H26            2.0169     1.4840     0.5046 H       
  27 H27            1.8058     1.3888    -1.9642 H       
  28 H28            0.9145     2.9294    -1.9474 H       
  29 H29            3.7454     2.5547    -0.8731 H       
  30 H30            2.7528     3.8086    -3.4729 H       
  31 H31            4.4379     3.8047    -2.8996 H       
  32 H32            3.6422     2.2730    -3.3345 H       
  33 H33            2.4469     4.3783     0.1931 H       
  34 H34            3.7399     5.0341    -0.8395 H       
  35 H35            2.0548     5.0380    -1.4129 H       
  36 H36           -3.7400    -1.7921     0.0288 H       
  37 H37           -4.8411     1.0681     0.0558 H       
  38 H38           -7.3340     1.0855     0.0809 H       
  39 H39           -9.4851    -0.1057     0.0938 H       
  40 H40           -9.5356    -2.5650     0.0807 H       
  41 H41           -7.4381    -3.8496     0.0529 H       
  42 H42           -5.2745    -2.6813     0.0328 H       
@<TRIPOS>BOND
   1    1    2 am
   2    1   10 1
   3    1    6 1
   4    2    3 1
   5    2    7 2
   6    3    4 2
   7    3    8 1
   8    4    5 1
   9    4   15 1
  10    5    6 2
  11    5   23 1
  12    6   24 1
  13    8    9 3
  14   10   11 1
  15   10   25 1
  16   10   26 1
  17   11   12 1
  18   11   27 1
  19   11   28 1
  20   12   13 1
  21   12   14 1
  22   12   29 1
  23   13   30 1
  24   13   31 1
  25   13   32 1
  26   14   33 1
  27   14   34 1
  28   14   35 1
  29   15   16 2
  30   15   36 1
  31   16   17 1
  32   16   37 1
  33   17   18 ar
  34   17   22 ar
  35   18   19 ar
  36   18   38 1
  37   19   20 ar
  38   19   39 1
  39   20   21 ar
  40   20   40 1
  41   21   22 ar
  42   21   41 1
  43   22   42 1

#	End of record

