#	Name: ASD02038797
#	Creating user name:	WinNT
#	Creation time:	15. 06. 2019 20:17

#	Modifying user name:	WinNT
#	Modification time:	15. 06. 2019 20:17

#	Program:	/corina/corina34_cracker 3.40 0067  02.08.2006

@<TRIPOS>MOLECULE
ASD02038797
  42   44    0    0    0
SMALL
NO_CHARGES


@<TRIPOS>ATOM
   1 C1            -1.2821    -0.8493     0.4634 C.2     
   2 C2            -0.0596    -0.0334     0.3007 C.2     
   3 N3             1.1375    -0.6350     0.1537 N.am    
   4 C4             1.2414    -2.0931     0.2507 C.3     
   5 C5             1.2138    -2.6917    -1.1320 C.ar    
   6 C6             2.3348     0.1692    -0.1031 C.3     
   7 O7            -0.1343     1.1798     0.2996 O.2     
   8 N8            -1.3389    -2.1933     0.4932 N.2     
   9 C9            -2.5946    -2.5256     0.6522 C.2     
  10 N10           -3.3116    -1.3887     0.7205 N.pl3   
  11 N11           -2.5053    -0.3896     0.6104 N.2     
  12 C12            2.3979    -3.0141    -1.7688 C.ar    
  13 C13            2.1244     1.0134    -1.3638 C.3     
  14 C14            3.3480     1.9077    -1.5797 C.3     
  15 O15            3.5476     2.7265    -0.4256 O.3     
  16 C16            3.7963     1.9921     0.7748 C.3     
  17 C17            2.5907     1.1011     1.0853 C.3     
  18 C18            0.0045    -2.9234    -1.7602 C.ar    
  19 C19           -0.0225    -3.4733    -3.0281 C.ar    
  20 C20            1.1620    -3.7918    -3.6694 C.ar    
  21 C21            2.3737    -3.5633    -3.0373 C.ar    
  22 C22           -4.7634    -1.3015     0.8963 C.3     
  23 Br23           3.9934    -3.9970    -3.9116 Br      
  24 F24            1.1366    -4.3293    -4.9086 F       
  25 H25            2.1768    -2.3588     0.7431 H       
  26 H26            0.4031    -2.4793     0.8306 H       
  27 H27            3.1926    -0.4885    -0.2437 H       
  28 H28           -2.9851    -3.5305     0.7166 H       
  29 H29            3.3420    -2.8364    -1.2753 H       
  30 H30            1.9964     0.3570    -2.2245 H       
  31 H31            1.2365     1.6339    -1.2426 H       
  32 H32            4.2287     1.2861    -1.7411 H       
  33 H33            3.1856     2.5417    -2.4514 H       
  34 H34            4.6829     1.3715     0.6442 H       
  35 H35            3.9569     2.6868     1.5992 H       
  36 H36            1.7123     1.7234     1.2560 H       
  37 H37            2.7963     0.5075     1.9761 H       
  38 H38           -0.9198    -2.6749    -1.2599 H       
  39 H39           -0.9677    -3.6547    -3.5181 H       
  40 H40           -4.9988    -1.2626     1.9599 H       
  41 H41           -5.1350    -0.4003     0.4087 H       
  42 H42           -5.2364    -2.1769     0.4512 H       
@<TRIPOS>BOND
   1    1    2 1
   2    1    8 1
   3    1   11 2
   4    2    3 am
   5    2    7 2
   6    3    4 1
   7    3    6 1
   8    4    5 1
   9    4   25 1
  10    4   26 1
  11    5   12 ar
  12    5   18 ar
  13    6   13 1
  14    6   17 1
  15    6   27 1
  16    8    9 2
  17    9   10 1
  18    9   28 1
  19   10   11 1
  20   10   22 1
  21   12   21 ar
  22   12   29 1
  23   13   14 1
  24   13   30 1
  25   13   31 1
  26   14   15 1
  27   14   32 1
  28   14   33 1
  29   15   16 1
  30   16   17 1
  31   16   34 1
  32   16   35 1
  33   17   36 1
  34   17   37 1
  35   18   19 ar
  36   18   38 1
  37   19   20 ar
  38   19   39 1
  39   20   21 ar
  40   20   24 1
  41   21   23 1
  42   22   40 1
  43   22   41 1
  44   22   42 1

#	End of record

