#	Name: ASD01883321
#	Creating user name:	WinNT
#	Creation time:	15. 06. 2019 19:46

#	Modifying user name:	WinNT
#	Modification time:	15. 06. 2019 19:46

#	Program:	/corina/corina34_cracker 3.40 0067  02.08.2006

@<TRIPOS>MOLECULE
ASD01883321
  42   43    0    0    0
SMALL
NO_CHARGES


@<TRIPOS>ATOM
   1 N1            -0.0162     1.3419     0.0115 N.am    
   2 C2            -0.0003    -0.0006    -0.0854 C.2     
   3 C3            -1.2183    -0.7226    -0.0812 C.2     
   4 C4            -2.4225    -0.0124     0.0251 C.2     
   5 C5            -2.3754     1.3878     0.1233 C.2     
   6 C6            -1.1834     2.0265     0.1199 C.2     
   7 O7             1.0610    -0.5939    -0.1771 O.2     
   8 C8            -1.2203    -2.1509    -0.1839 C.1     
   9 N9            -1.2218    -3.2840    -0.2654 N.1     
  10 O10           -3.6076    -0.6636     0.0325 O.3     
  11 C11           -4.3747    -0.6012     1.2366 C.3     
  12 C12            1.2506     2.0777     0.0060 C.3     
  13 C13            1.6256     2.4369    -1.4332 C.3     
  14 C14            2.9486     3.2053    -1.4390 C.3     
  15 C15            3.3866     3.4557    -2.8834 C.3     
  16 C16            2.7636     4.5445    -0.7226 C.3     
  17 C17           -5.6532    -1.3788     1.0585 C.ar    
  18 C18           -5.6941    -2.7237     1.3756 C.ar    
  19 C19           -6.8669    -3.4370     1.2123 C.ar    
  20 C20           -7.9989    -2.8053     0.7323 C.ar    
  21 C21           -7.9583    -1.4602     0.4160 C.ar    
  22 C22           -6.7866    -0.7459     0.5835 C.ar    
  23 H23           -3.2912     1.9543     0.2057 H       
  24 H24           -1.1600     3.1036     0.1963 H       
  25 H25           -3.7993    -1.0308     2.0566 H       
  26 H26           -4.6104     0.4385     1.4637 H       
  27 H27            1.1432     2.9904     0.5921 H       
  28 H28            2.0335     1.4565     0.4412 H       
  29 H29            1.7330     1.5241    -2.0192 H       
  30 H30            0.8427     3.0580    -1.8684 H       
  31 H31            3.7108     2.6203    -0.9244 H       
  32 H32            2.6244     4.0408    -3.3979 H       
  33 H33            4.3291     4.0032    -2.8875 H       
  34 H34            3.5184     2.5016    -3.3937 H       
  35 H35            2.4515     4.3661     0.3064 H       
  36 H36            3.7061     5.0920    -0.7267 H       
  37 H37            2.0013     5.1296    -1.2372 H       
  38 H38           -4.8097    -3.2172     1.7506 H       
  39 H39           -6.8986    -4.4878     1.4593 H       
  40 H40           -8.9150    -3.3627     0.6040 H       
  41 H41           -8.8426    -0.9668     0.0407 H       
  42 H42           -6.7549     0.3050     0.3364 H       
@<TRIPOS>BOND
   1    1    2 am
   2    1   12 1
   3    1    6 1
   4    2    3 1
   5    2    7 2
   6    3    4 2
   7    3    8 1
   8    4    5 1
   9    4   10 1
  10    5    6 2
  11    5   23 1
  12    6   24 1
  13    8    9 3
  14   10   11 1
  15   11   17 1
  16   11   25 1
  17   11   26 1
  18   12   13 1
  19   12   27 1
  20   12   28 1
  21   13   14 1
  22   13   29 1
  23   13   30 1
  24   14   15 1
  25   14   16 1
  26   14   31 1
  27   15   32 1
  28   15   33 1
  29   15   34 1
  30   16   35 1
  31   16   36 1
  32   16   37 1
  33   17   18 ar
  34   17   22 ar
  35   18   19 ar
  36   18   38 1
  37   19   20 ar
  38   19   39 1
  39   20   21 ar
  40   20   40 1
  41   21   22 ar
  42   21   41 1
  43   22   42 1

#	End of record

