#	Name: ASD01885431
#	Creating user name:	WinNT
#	Creation time:	15. 06. 2019 19:49

#	Modifying user name:	WinNT
#	Modification time:	15. 06. 2019 19:49

#	Program:	/corina/corina34_cracker 3.40 0067  02.08.2006

@<TRIPOS>MOLECULE
ASD01885431
  52   55    0    0    0
SMALL
NO_CHARGES


@<TRIPOS>ATOM
   1 C1            -0.0387     1.4162     0.0072 C.ar    
   2 C2            -0.0161     0.0212     0.0396 C.ar    
   3 N3            -1.1308    -0.7516     0.0521 N.2     
   4 C4            -2.1916    -0.5691    -0.6470 C.2     
   5 C5            -2.3337     0.6049    -1.5799 C.3     
   6 C6            -2.2858     1.8673    -0.7568 C.2     
   7 N7            -1.2071     2.1667    -0.0335 N.am    
   8 C8             1.1628     2.1208     0.0092 C.ar    
   9 C9             2.3793     1.4481     0.0376 C.ar    
  10 C10            2.4001     0.0518     0.0643 C.ar    
  11 C11            1.2210    -0.6496     0.0655 C.ar    
  12 C12           -3.2989    -1.5332    -0.5344 C.ar    
  13 O13           -3.2381     2.6185    -0.7542 O.2     
  14 C14           -3.1336    -2.7078     0.2073 C.ar    
  15 C15           -4.1711    -3.6121     0.3133 C.ar    
  16 C16           -5.3780    -3.3651    -0.3105 C.ar    
  17 C17           -5.5582    -2.1957    -1.0546 C.ar    
  18 C18           -4.5183    -1.2750    -1.1626 C.ar    
  19 C19           -6.8107    -1.9425    -1.7009 C.1     
  20 N20           -7.8043    -1.7416    -2.2137 N.1     
  21 C21            3.6497     2.2101     0.0389 C.ar    
  22 C22            4.8696     1.5323     0.0674 C.ar    
  23 C23            6.0503     2.2395     0.0687 C.ar    
  24 C24            6.0276     3.6364     0.0414 C.ar    
  25 C25            4.8060     4.3141     0.0129 C.ar    
  26 C26            3.6262     3.6053     0.0059 C.ar    
  27 C27            7.2942     4.3961     0.0432 C.2     
  28 O28            8.3569     3.8061     0.0684 O.2     
  29 N29            7.2719     5.7434     0.0169 N.am    
  30 C30            8.5282     6.4970     0.0187 C.3     
  31 C31            8.2283     7.9735    -0.0137 C.2     
  32 C32            8.7236     8.7628     0.9071 C.2     
  33 H33           -1.5154     0.6039    -2.2999 H       
  34 H34           -3.2868     0.5441    -2.1052 H       
  35 H35           -1.2404     2.9705     0.5084 H       
  36 H36            1.1493     3.2005    -0.0118 H       
  37 H37            3.3428    -0.4749     0.0841 H       
  38 H38            1.2423    -1.7292     0.0864 H       
  39 H39           -2.1923    -2.9076     0.6975 H       
  40 H40           -4.0381    -4.5175     0.8868 H       
  41 H41           -6.1848    -4.0778    -0.2235 H       
  42 H42           -4.6523    -0.3699    -1.7363 H       
  43 H43            4.8869     0.4527     0.0888 H       
  44 H44            6.9941     1.7149     0.0911 H       
  45 H45            4.7876     5.3938    -0.0082 H       
  46 H46            2.6819     4.1289    -0.0165 H       
  47 H47            6.4240     6.2142    -0.0032 H       
  48 H48            9.0924     6.2606     0.9208 H       
  49 H49            9.1156     6.2262    -0.8586 H       
  50 H50            7.6052     8.3810    -0.7961 H       
  51 H51            9.3468     8.3554     1.6894 H       
  52 H52            8.5087     9.8210     0.8838 H       
@<TRIPOS>BOND
   1    1    2 ar
   2    1    8 ar
   3    1    7 1
   4    2    3 1
   5    2   11 ar
   6    3    4 2
   7    4    5 1
   8    4   12 1
   9    5    6 1
  10    5   33 1
  11    5   34 1
  12    6    7 am
  13    6   13 2
  14    7   35 1
  15    8    9 ar
  16    8   36 1
  17    9   10 ar
  18    9   21 1
  19   10   11 ar
  20   10   37 1
  21   11   38 1
  22   12   14 ar
  23   12   18 ar
  24   14   15 ar
  25   14   39 1
  26   15   16 ar
  27   15   40 1
  28   16   17 ar
  29   16   41 1
  30   17   18 ar
  31   17   19 1
  32   18   42 1
  33   19   20 3
  34   21   22 ar
  35   21   26 ar
  36   22   23 ar
  37   22   43 1
  38   23   24 ar
  39   23   44 1
  40   24   25 ar
  41   24   27 1
  42   25   26 ar
  43   25   45 1
  44   26   46 1
  45   27   28 2
  46   27   29 am
  47   29   30 1
  48   29   47 1
  49   30   31 1
  50   30   48 1
  51   30   49 1
  52   31   32 2
  53   31   50 1
  54   32   51 1
  55   32   52 1

#	End of record

