#	Name: ASD03730749
#	Creating user name:	WinNT
#	Creation time:	15. 06. 2019 20:44

#	Modifying user name:	WinNT
#	Modification time:	15. 06. 2019 20:44

#	Program:	/corina/corina34_cracker 3.40 0067  02.08.2006

@<TRIPOS>MOLECULE
ASD03730749
  75   82    0    0    0
SMALL
NO_CHARGES


@<TRIPOS>ATOM
   1 C1            -1.0909     0.6176     0.3372 C.2     
   2 C2            -1.5467    -0.7380     0.7119 C.ar    
   3 C3            -0.6191    -1.7669     0.8843 C.ar    
   4 C4            -1.0510    -3.0292     1.2345 C.ar    
   5 C5            -2.4005    -3.2770     1.4143 C.ar    
   6 C6            -3.3249    -2.2619     1.2450 C.ar    
   7 C7            -2.9058    -0.9933     0.9005 C.ar    
   8 O8             0.0978     0.8584     0.2566 O.2     
   9 N9            -1.9935     1.5847     0.0794 N.am    
  10 C10            0.8508    -1.4990     0.6879 C.3     
  11 O11           -0.8183    -8.4653     0.0750 O.3     
  12 C12           -0.4828    -9.8655     0.0876 C.3     
  13 O13            0.8108    -9.9131    -0.5428 O.3     
  14 C14            1.3791    -8.6946    -0.3041 C.ar    
  15 C15            0.3767    -7.8045     0.0747 C.ar    
  16 C16            2.6922    -8.2661    -0.3797 C.ar    
  17 C17            3.0219    -6.9474    -0.0811 C.ar    
  18 C18            2.0107    -6.0655     0.2881 C.ar    
  19 C19            0.7014    -6.4912     0.3704 C.ar    
  20 O20            4.2395    -6.3328    -0.0765 O.3     
  21 C21            2.6679    -4.7305     0.5155 C.3     
  22 C22            4.0513    -4.9053    -0.1256 C.3     
  23 N23            1.6035    -2.7410     0.8807 N.am    
  24 C24            1.8983    -3.6041    -0.1119 C.2     
  25 C25            2.7658    -4.3830     1.9714 C.ar    
  26 C26            3.3405    -4.9998     3.0602 C.ar    
  27 C27            3.2613    -4.4132     4.3107 C.ar    
  28 C28            2.6030    -3.2066     4.4645 C.ar    
  29 C29            2.0248    -2.5854     3.3772 C.ar    
  30 C30            2.1000    -3.1684     2.1145 C.ar    
  31 O31            1.6007    -3.4925    -1.2823 O.2     
  32 C32           -1.5418     2.9280    -0.2919 C.3     
  33 C33           -2.7568     3.8273    -0.5286 C.3     
  34 C34           -3.5109     4.0034     0.7642 C.ar    
  35 C35           -2.8466     4.4290     1.8994 C.ar    
  36 C36           -3.5383     4.5906     3.0853 C.ar    
  37 C37           -4.8943     4.3269     3.1359 C.ar    
  38 C38           -5.5588     3.9022     2.0006 C.ar    
  39 C39           -4.8679     3.7448     0.8136 C.ar    
  40 C40           -2.2964     5.1722    -1.0288 C.ar    
  41 C41           -2.8226     5.6925    -2.1965 C.ar    
  42 C42           -2.4003     6.9262    -2.6554 C.ar    
  43 C43           -1.4521     7.6398    -1.9464 C.ar    
  44 C44           -0.9266     7.1199    -0.7783 C.ar    
  45 C45           -1.3521     5.8882    -0.3171 C.ar    
  46 H46           -0.3343    -3.8260     1.3682 H       
  47 H47           -2.7335    -4.2673     1.6878 H       
  48 H48           -4.3768    -2.4619     1.3869 H       
  49 H49           -3.6281    -0.2007     0.7726 H       
  50 H50           -2.9421     1.3914     0.1398 H       
  51 H51            1.0202    -1.1246    -0.3216 H       
  52 H52            1.1847    -0.7557     1.4119 H       
  53 H53           -0.4241   -10.2360     1.1110 H       
  54 H54           -1.2102   -10.4387    -0.4872 H       
  55 H55            3.4667    -8.9595    -0.6725 H       
  56 H56           -0.0727    -5.7984     0.6658 H       
  57 H57            4.8162    -4.3937     0.4585 H       
  58 H58            4.0479    -4.5506    -1.1563 H       
  59 H59            3.8539    -5.9420     2.9378 H       
  60 H60            3.7127    -4.8962     5.1647 H       
  61 H61            2.5410    -2.7488     5.4407 H       
  62 H62            1.5120    -1.6436     3.5053 H       
  63 H63           -0.9343     3.3424     0.5126 H       
  64 H64           -0.9478     2.8723    -1.2041 H       
  65 H65           -3.4099     3.3678    -1.2705 H       
  66 H66           -1.7872     4.6350     1.8598 H       
  67 H67           -3.0192     4.9224     3.9723 H       
  68 H68           -5.4346     4.4524     4.0626 H       
  69 H69           -6.6181     3.6959     2.0402 H       
  70 H70           -5.3877     3.4166    -0.0743 H       
  71 H71           -3.5634     5.1350    -2.7504 H       
  72 H72           -2.8108     7.3323    -3.5680 H       
  73 H73           -1.1216     8.6033    -2.3053 H       
  74 H74           -0.1855     7.6773    -0.2246 H       
  75 H75           -0.9442     5.4837     0.5974 H       
@<TRIPOS>BOND
   1    1    2 1
   2    1    8 2
   3    1    9 am
   4    2    3 ar
   5    2    7 ar
   6    3    4 ar
   7    3   10 1
   8    4    5 ar
   9    4   46 1
  10    5    6 ar
  11    5   47 1
  12    6    7 ar
  13    6   48 1
  14    7   49 1
  15    9   32 1
  16    9   50 1
  17   10   23 1
  18   10   51 1
  19   10   52 1
  20   11   12 1
  21   11   15 1
  22   12   13 1
  23   12   53 1
  24   12   54 1
  25   13   14 1
  26   14   15 ar
  27   14   16 ar
  28   15   19 ar
  29   16   17 ar
  30   16   55 1
  31   17   18 ar
  32   17   20 1
  33   18   19 ar
  34   18   21 1
  35   19   56 1
  36   20   22 1
  37   21   22 1
  38   21   24 1
  39   21   25 1
  40   22   57 1
  41   22   58 1
  42   23   24 am
  43   23   30 1
  44   24   31 2
  45   25   26 ar
  46   25   30 ar
  47   26   27 ar
  48   26   59 1
  49   27   28 ar
  50   27   60 1
  51   28   29 ar
  52   28   61 1
  53   29   30 ar
  54   29   62 1
  55   32   33 1
  56   32   63 1
  57   32   64 1
  58   33   34 1
  59   33   40 1
  60   33   65 1
  61   34   35 ar
  62   34   39 ar
  63   35   36 ar
  64   35   66 1
  65   36   37 ar
  66   36   67 1
  67   37   38 ar
  68   37   68 1
  69   38   39 ar
  70   38   69 1
  71   39   70 1
  72   40   41 ar
  73   40   45 ar
  74   41   42 ar
  75   41   71 1
  76   42   43 ar
  77   42   72 1
  78   43   44 ar
  79   43   73 1
  80   44   45 ar
  81   44   74 1
  82   45   75 1

#	End of record

