#	Name: ASD03090181
#	Creating user name:	WinNT
#	Creation time:	15. 06. 2019 20:28

#	Modifying user name:	WinNT
#	Modification time:	15. 06. 2019 20:28

#	Program:	/corina/corina34_cracker 3.40 0067  02.08.2006

@<TRIPOS>MOLECULE
ASD03090181
  46   48    0    0    0
SMALL
NO_CHARGES


@<TRIPOS>ATOM
   1 C1            -0.3939     1.4502    -1.4658 C.ar    
   2 C2            -1.5282     2.2078    -1.1755 C.ar    
   3 C3            -2.7086     1.5609    -0.8592 C.ar    
   4 C4            -2.7165     0.1617    -0.8433 C.ar    
   5 C5            -1.5382    -0.5282    -1.1458 C.ar    
   6 N6            -0.4381     0.1230    -1.4463 N.ar    
   7 C7            -3.9534    -0.5772    -0.5108 C.2     
   8 N8            -5.7489    -3.4245     0.5015 N.pl3   
   9 C9            -4.8281    -4.4231     0.8348 C.ar    
  10 C10           -5.1315    -5.7567     0.5943 C.ar    
  11 C11           -4.2211    -6.7425     0.9240 C.ar    
  12 C12           -3.0069    -6.4025     1.4941 C.ar    
  13 C13           -2.7008    -5.0714     1.7360 C.ar    
  14 C14           -3.6067    -4.0817     1.4014 C.ar    
  15 N15           -4.0254    -1.8370    -0.1287 N.2     
  16 C16           -5.2984    -2.1698     0.0868 C.2     
  17 N17           -6.0607    -1.1273    -0.1542 N.2     
  18 N18           -5.2099    -0.0785    -0.5392 N.pl3   
  19 C19           -5.6059     1.2832    -0.9068 C.3     
  20 C20           -5.7024     2.1443     0.3542 C.3     
  21 F21           -1.5151    -4.7414     2.2931 F       
  22 C22           -5.9935     3.5939    -0.0392 C.3     
  23 O23           -6.7570     1.6553     1.1853 O.3     
  24 C24            0.8743     2.1342    -1.8060 C.2     
  25 F25           -2.1187    -7.3683     1.8159 F       
  26 N26            1.9758     1.4104    -2.0879 N.am    
  27 O27            0.9222     3.3483    -1.8310 O.2     
  28 C28            3.2307     2.0873    -2.4246 C.3     
  29 H29           -1.4850     3.2867    -1.1971 H       
  30 H30           -3.6026     2.1218    -0.6297 H       
  31 H31           -1.5341    -1.6081    -1.1362 H       
  32 H32           -6.7005    -3.6036     0.5585 H       
  33 H33           -6.0790    -6.0234     0.1501 H       
  34 H34           -4.4576    -7.7795     0.7368 H       
  35 H35           -3.3690    -3.0451     1.5895 H       
  36 H36           -4.8623     1.7083    -1.5810 H       
  37 H37           -6.5753     1.2579    -1.4046 H       
  38 H38           -4.7594     2.0980     0.8988 H       
  39 H39           -6.9365     3.6403    -0.5838 H       
  40 H40           -6.0622     4.2074     0.8592 H       
  41 H41           -5.1890     3.9669    -0.6731 H       
  42 H42           -7.6274     1.6674     0.7642 H       
  43 H43            1.9376     0.4414    -2.0680 H       
  44 H44            3.0850     2.7020    -3.3128 H       
  45 H45            3.5373     2.7196    -1.5914 H       
  46 H46            4.0034     1.3438    -2.6200 H       
@<TRIPOS>BOND
   1    1    2 ar
   2    1   24 1
   3    1    6 ar
   4    2    3 ar
   5    2   29 1
   6    3    4 ar
   7    3   30 1
   8    4    5 ar
   9    4    7 1
  10    5    6 ar
  11    5   31 1
  12    7   15 2
  13    7   18 1
  14    8    9 1
  15    8   16 1
  16    8   32 1
  17    9   10 ar
  18    9   14 ar
  19   10   11 ar
  20   10   33 1
  21   11   12 ar
  22   11   34 1
  23   12   13 ar
  24   12   25 1
  25   13   14 ar
  26   13   21 1
  27   14   35 1
  28   15   16 1
  29   16   17 2
  30   17   18 1
  31   18   19 1
  32   19   20 1
  33   19   36 1
  34   19   37 1
  35   20   22 1
  36   20   23 1
  37   20   38 1
  38   22   39 1
  39   22   40 1
  40   22   41 1
  41   23   42 1
  42   24   26 am
  43   24   27 2
  44   26   28 1
  45   26   43 1
  46   28   44 1
  47   28   45 1
  48   28   46 1

#	End of record

