#	Name: ASD01916181
#	Creating user name:	WinNT
#	Creation time:	15. 06. 2019 20:06

#	Modifying user name:	WinNT
#	Modification time:	15. 06. 2019 20:06

#	Program:	/corina/corina34_cracker 3.40 0067  02.08.2006

@<TRIPOS>MOLECULE
ASD01916181
  27   28    0    0    0
SMALL
NO_CHARGES


@<TRIPOS>ATOM
   1 C1            -0.0167     1.3787     0.0096 C.ar    
   2 C2             0.0021    -0.0041     0.0020 C.ar    
   3 N3             1.1409    -0.6657    -0.0120 N.ar    
   4 C4             2.3118    -0.0360    -0.0198 C.ar    
   5 C5             2.3655     1.3604    -0.0128 C.ar    
   6 C6             1.1832     2.0775     0.0019 C.ar    
   7 C7            -1.2989    -0.7647     0.0104 C.3     
   8 C8             3.5266    -0.7941    -0.0349 C.1     
   9 C9             4.5226    -1.4156    -0.0474 C.1     
  10 C10            5.7373    -2.1736    -0.0626 C.ar    
  11 C11            6.9720    -1.5183    -0.0708 C.ar    
  12 C12            8.1455    -2.2495    -0.0860 C.ar    
  13 C13            8.1056    -3.6318    -0.0927 C.ar    
  14 C14            6.8776    -4.2985    -0.0845 C.ar    
  15 C15            5.6914    -3.5680    -0.0634 C.ar    
  16 F16            9.3360    -1.6108    -0.0948 F       
  17 C17            6.8385    -5.7299    -0.0923 C.1     
  18 N18            6.8075    -6.8655    -0.0985 N.1     
  19 H19           -0.9566     1.9105     0.0170 H       
  20 H20            3.3166     1.8721    -0.0184 H       
  21 H21            1.1929     3.1575     0.0073 H       
  22 H22           -1.6223    -0.9425    -1.0152 H       
  23 H23           -1.1585    -1.7191     0.5177 H       
  24 H24           -2.0568    -0.1825     0.5346 H       
  25 H25            7.0094    -0.4389    -0.0657 H       
  26 H26            9.0256    -4.1973    -0.1045 H       
  27 H27            4.7400    -4.0791    -0.0571 H       
@<TRIPOS>BOND
   1    1    2 ar
   2    1    6 ar
   3    1   19 1
   4    2    3 ar
   5    2    7 1
   6    3    4 ar
   7    4    5 ar
   8    4    8 1
   9    5    6 ar
  10    5   20 1
  11    6   21 1
  12    7   22 1
  13    7   23 1
  14    7   24 1
  15    8    9 3
  16    9   10 1
  17   10   11 ar
  18   10   15 ar
  19   11   12 ar
  20   11   25 1
  21   12   13 ar
  22   12   16 1
  23   13   14 ar
  24   13   26 1
  25   14   15 ar
  26   14   17 1
  27   15   27 1
  28   17   18 3

#	End of record

