#	Name: ASD01881683
#	Creating user name:	WinNT
#	Creation time:	15. 06. 2019 19:43

#	Modifying user name:	WinNT
#	Modification time:	15. 06. 2019 19:43

#	Program:	/corina/corina34_cracker 3.40 0067  02.08.2006

@<TRIPOS>MOLECULE
ASD01881683
  48   51    0    0    0
SMALL
NO_CHARGES


@<TRIPOS>ATOM
   1 C1            -0.0187     1.5258     0.0104 C.3     
   2 C2             0.0021    -0.0041     0.0020 C.3     
   3 C3            -1.4266    -0.5342     0.1385 C.3     
   4 O4             0.5662    -0.4660    -1.2270 O.3     
   5 N5            -1.3968    -1.9987     0.2508 N.3     
   6 C6            -2.7188    -2.5258     0.6196 C.3     
   7 C7            -2.6574    -4.0548     0.6670 C.3     
   8 O8            -1.6383    -4.4577     1.5859 O.3     
   9 C9            -0.3377    -3.9624     1.2566 C.3     
  10 C10           -0.3755    -2.4325     1.2152 C.3     
  11 O11            1.3220     2.0204     0.0003 O.3     
  12 N12            2.2400     7.4205     0.0200 N.pl3   
  13 N13            3.6403     7.3392     0.0069 N.2     
  14 N14            3.9973     6.1034    -0.0026 N.2     
  15 C15            2.9132     5.3024     0.0031 C.ar    
  16 C16            1.7738     6.1256     0.0177 C.ar    
  17 C17            2.7516     3.9101    -0.0032 C.ar    
  18 C18            1.4818     3.3708     0.0060 C.ar    
  19 C19            0.3624     4.1994     0.0207 C.ar    
  20 C20            0.5044     5.5585     0.0256 C.ar    
  21 C21            1.4328     8.6429     0.0390 C.3     
  22 C22            1.1385     9.0821    -1.3968 C.3     
  23 C23            0.2058    10.2790    -1.5923 C.3     
  24 C24            1.7059    10.4273    -1.8544 C.3     
  25 Br25           4.2656     2.7773    -0.0234 Br      
  26 H26           -0.5459     1.8868    -0.8726 H       
  27 H27           -0.5289     1.8773     0.9072 H       
  28 H28            0.6044    -0.3639     0.8362 H       
  29 H29           -1.8876    -0.1107     1.0309 H       
  30 H30           -2.0055    -0.2489    -0.7398 H       
  31 H31            0.0804    -0.1829    -2.0137 H       
  32 H32           -3.0031    -2.1423     1.5995 H       
  33 H33           -3.4547    -2.2138    -0.1216 H       
  34 H34           -3.6196    -4.4476     0.9954 H       
  35 H35           -2.4257    -4.4407    -0.3257 H       
  36 H36            0.3778    -4.2885     2.0115 H       
  37 H37           -0.0385    -4.3457     0.2811 H       
  38 H38            0.5991    -2.0524     0.9088 H       
  39 H39           -0.6224    -2.0475     2.2046 H       
  40 H40           -0.6260     3.7642     0.0274 H       
  41 H41           -0.3698     6.1924     0.0368 H       
  42 H42            0.4947     8.4508     0.5596 H       
  43 H43            1.9800     9.4316     0.5553 H       
  44 H44            1.0889     8.2798    -2.1330 H       
  45 H45           -0.4572    10.2644    -2.4574 H       
  46 H46           -0.1982    10.7536    -0.6981 H       
  47 H47            2.2888    10.9994    -1.1326 H       
  48 H48            2.0298    10.5102    -2.8919 H       
@<TRIPOS>BOND
   1    1    2 1
   2    1   11 1
   3    1   26 1
   4    1   27 1
   5    2    3 1
   6    2    4 1
   7    2   28 1
   8    3    5 1
   9    3   29 1
  10    3   30 1
  11    4   31 1
  12    5    6 1
  13    5   10 1
  14    6    7 1
  15    6   32 1
  16    6   33 1
  17    7    8 1
  18    7   34 1
  19    7   35 1
  20    8    9 1
  21    9   10 1
  22    9   36 1
  23    9   37 1
  24   10   38 1
  25   10   39 1
  26   11   18 1
  27   12   13 1
  28   12   16 1
  29   12   21 1
  30   13   14 2
  31   14   15 1
  32   15   16 ar
  33   15   17 ar
  34   16   20 ar
  35   17   18 ar
  36   17   25 1
  37   18   19 ar
  38   19   20 ar
  39   19   40 1
  40   20   41 1
  41   21   22 1
  42   21   42 1
  43   21   43 1
  44   22   23 1
  45   22   24 1
  46   22   44 1
  47   23   24 1
  48   23   45 1
  49   23   46 1
  50   24   47 1
  51   24   48 1

#	End of record

