#	Name: ASD01917312
#	Creating user name:	WinNT
#	Creation time:	15. 06. 2019 20:09

#	Modifying user name:	WinNT
#	Modification time:	15. 06. 2019 20:09

#	Program:	/corina/corina34_cracker 3.40 0067  02.08.2006

@<TRIPOS>MOLECULE
ASD01917312
  48   51    0    0    0
SMALL
NO_CHARGES


@<TRIPOS>ATOM
   1 C1            -0.0168     1.3889     0.0097 C.ar    
   2 C2             0.0021    -0.0041     0.0020 C.ar    
   3 C3             1.2225    -0.6606    -0.0132 C.ar    
   4 C4             2.3820     0.0991    -0.0202 C.ar    
   5 C5             2.2883     1.4815    -0.0119 C.ar    
   6 N6             1.1168     2.0790     0.0026 N.ar    
   7 C7            -1.3134     2.1059     0.0197 C.2     
   8 O8            -2.3544     1.4791     0.0212 O.2     
   9 N9            -1.3382     3.4534     0.0271 N.am    
  10 C10           -2.6202     4.1624     0.0371 C.3     
  11 C11           -3.4933     3.8196    -1.1827 C.3     
  12 C12           -4.8948     4.3953    -0.9703 C.3     
  13 C13           -4.8175     5.9007    -0.7086 C.3     
  14 C14           -3.8874     6.1540     0.4908 C.3     
  15 C15           -4.2675     5.1392     1.5937 C.3     
  16 C16           -3.4559     3.8638     1.3031 C.3     
  17 C17           -2.4671     5.7063     0.0554 C.3     
  18 N18           -3.9393     7.5413     0.9586 N.am    
  19 C19           -5.1069     8.0677     1.3782 C.2     
  20 O20           -6.1175     7.3911     1.3684 O.2     
  21 S21           -3.7915    10.5689     1.9238 S.3     
  22 C22           -5.1591     9.4622     1.8484 C.2     
  23 N23           -6.2269    10.0791     2.2772 N.2     
  24 C24           -6.0582    11.3204     2.6503 C.2     
  25 C25           -4.8081    11.7975     2.5432 C.2     
  26 C26           -7.1956    12.1629     3.1676 C.3     
  27 H27           -0.9212    -0.5643     0.0082 H       
  28 H28            1.2691    -1.7396    -0.0191 H       
  29 H29            3.3489    -0.3819    -0.0317 H       
  30 H30            3.1896     2.0764    -0.0174 H       
  31 H31           -0.5072     3.9538     0.0259 H       
  32 H32           -3.0528     4.2539    -2.0802 H       
  33 H33           -3.5567     2.7371    -1.2931 H       
  34 H34           -5.4976     4.2145    -1.8602 H       
  35 H35           -5.3609     3.9042    -0.1162 H       
  36 H36           -4.4210     6.4043    -1.5902 H       
  37 H37           -5.8133     6.2836    -0.4851 H       
  38 H38           -4.0041     5.5355     2.5744 H       
  39 H39           -5.3348     4.9219     1.5512 H       
  40 H40           -4.1282     3.0257     1.1192 H       
  41 H41           -2.7975     3.6394     2.1423 H       
  42 H42           -1.7188     6.0162     0.7849 H       
  43 H43           -2.2244     6.0868    -0.9368 H       
  44 H44           -3.1334     8.0810     0.9664 H       
  45 H45           -4.4943    12.7968     2.8063 H       
  46 H46           -7.2676    12.0513     4.2494 H       
  47 H47           -7.0139    13.2091     2.9216 H       
  48 H48           -8.1279    11.8377     2.7058 H       
@<TRIPOS>BOND
   1    1    2 ar
   2    1    6 ar
   3    1    7 1
   4    2    3 ar
   5    2   27 1
   6    3    4 ar
   7    3   28 1
   8    4    5 ar
   9    4   29 1
  10    5    6 ar
  11    5   30 1
  12    7    8 2
  13    7    9 am
  14    9   10 1
  15    9   31 1
  16   10   11 1
  17   10   16 1
  18   10   17 1
  19   11   12 1
  20   11   32 1
  21   11   33 1
  22   12   13 1
  23   12   34 1
  24   12   35 1
  25   13   14 1
  26   13   36 1
  27   13   37 1
  28   14   15 1
  29   14   17 1
  30   14   18 1
  31   15   16 1
  32   15   38 1
  33   15   39 1
  34   16   40 1
  35   16   41 1
  36   17   42 1
  37   17   43 1
  38   18   19 am
  39   18   44 1
  40   19   20 2
  41   19   22 1
  42   21   22 1
  43   21   25 1
  44   22   23 2
  45   23   24 1
  46   24   25 2
  47   24   26 1
  48   25   45 1
  49   26   46 1
  50   26   47 1
  51   26   48 1

#	End of record

