#	Name: ASD08070224
#	Creating user name:	WinNT
#	Creation time:	15. 06. 2019 21:14

#	Modifying user name:	WinNT
#	Modification time:	15. 06. 2019 21:14

#	Program:	/corina/corina34_cracker 3.40 0067  02.08.2006

@<TRIPOS>MOLECULE
ASD08070224
  41   42    0    0    0
SMALL
NO_CHARGES


@<TRIPOS>ATOM
   1 C1            -0.0167     1.3794     0.0096 C.ar    
   2 C2             0.0021    -0.0041     0.0020 C.ar    
   3 C3             1.2043    -0.6806    -0.0126 C.ar    
   4 C4             2.4034     0.0337    -0.0202 C.ar    
   5 C5             2.3774     1.4292    -0.0129 C.ar    
   6 C6             1.1684     2.0935     0.0021 C.ar    
   7 C7             3.6955    -0.6847    -0.0354 C.2     
   8 N8             4.8516     0.0080    -0.0427 N.am    
   9 O9             3.7151    -1.9000    -0.0413 O.2     
  10 C10            6.5034    -1.0549    -1.4999 C.3     
  11 C11            6.1319    -0.7039    -0.0578 C.3     
  12 C12            7.3395     1.4724    -0.2763 C.3     
  13 C13            7.2185     0.1880     0.5462 C.3     
  14 C14            6.6244     0.2296    -2.3224 C.3     
  15 C15            6.8471     0.5389     1.9883 C.3     
  16 C16           -1.2936    -0.7736     0.0102 C.3     
  17 C17            7.7110     1.1215    -1.7184 C.3     
  18 C18            1.1383     3.6001     0.0100 C.3     
  19 H19           -0.9606     1.9042     0.0169 H       
  20 H20            1.2176    -1.7605    -0.0178 H       
  21 H21            3.3017     1.9878    -0.0184 H       
  22 H22            4.8360     0.9778    -0.0380 H       
  23 H23            7.4560    -1.5845    -1.5111 H       
  24 H24            5.7293    -1.6903    -1.9301 H       
  25 H25            6.0458    -1.6190     0.5282 H       
  26 H26            6.3869     2.0021    -0.2651 H       
  27 H27            8.1136     2.1078     0.1539 H       
  28 H28            8.1711    -0.3417     0.5350 H       
  29 H29            6.8890    -0.0204    -3.3498 H       
  30 H30            5.6718     0.7592    -2.3112 H       
  31 H31            5.8945     1.0686     1.9995 H       
  32 H32            6.7609    -0.3762     2.5743 H       
  33 H33            7.6212     1.1743     2.4186 H       
  34 H34           -1.6158    -0.9536    -1.0154 H       
  35 H35           -1.1467    -1.7271     0.5176 H       
  36 H36           -2.0555    -0.1967     0.5345 H       
  37 H37            7.7971     2.0365    -2.3044 H       
  38 H38            8.6636     0.5918    -1.7296 H       
  39 H39            1.1211     3.9686    -1.0157 H       
  40 H40            0.2463     3.9430     0.5343 H       
  41 H41            2.0258     3.9786     0.5172 H       
@<TRIPOS>BOND
   1    1    2 ar
   2    1    6 ar
   3    1   19 1
   4    2    3 ar
   5    2   16 1
   6    3    4 ar
   7    3   20 1
   8    4    5 ar
   9    4    7 1
  10    5    6 ar
  11    5   21 1
  12    6   18 1
  13    7    8 am
  14    7    9 2
  15    8   11 1
  16    8   22 1
  17   10   11 1
  18   10   14 1
  19   10   23 1
  20   10   24 1
  21   11   13 1
  22   11   25 1
  23   12   13 1
  24   12   17 1
  25   12   26 1
  26   12   27 1
  27   13   15 1
  28   13   28 1
  29   14   17 1
  30   14   29 1
  31   14   30 1
  32   15   31 1
  33   15   32 1
  34   15   33 1
  35   16   34 1
  36   16   35 1
  37   16   36 1
  38   17   37 1
  39   17   38 1
  40   18   39 1
  41   18   40 1
  42   18   41 1

#	End of record

