#	Name: ASD01912674
#	Creating user name:	WinNT
#	Creation time:	15. 06. 2019 20:00

#	Modifying user name:	WinNT
#	Modification time:	15. 06. 2019 20:00

#	Program:	/corina/corina34_cracker 3.40 0067  02.08.2006

@<TRIPOS>MOLECULE
ASD01912674
  43   46    0    0    0
SMALL
NO_CHARGES


@<TRIPOS>ATOM
   1 C1            -0.0175     1.3662    -0.0396 C.2     
   2 N2             0.0021    -0.0040     0.0056 N.pl3   
   3 C3            -1.2011    -0.6911     0.0635 C.2     
   4 C4            -2.3620    -0.0485     0.0756 C.2     
   5 N5            -2.4358     1.3306     0.0317 N.am    
   6 C6            -1.3028     2.0662    -0.0200 C.2     
   7 C7             1.2998     1.7823    -0.0922 C.2     
   8 C8             2.0538     0.6102    -0.0751 C.2     
   9 N9             1.2242    -0.4046    -0.0168 N.2     
  10 O10           -1.3507     3.2826    -0.0592 O.2     
  11 C11           -3.6839     1.9663     0.0462 C.ar    
  12 C12            3.5578     0.5236    -0.1167 C.3     
  13 O13            4.1092     1.8406    -0.1774 O.3     
  14 C14            5.4638     1.9409    -0.2209 C.ar    
  15 C15            6.0665     3.1890    -0.2808 C.ar    
  16 C16            7.4437     3.2883    -0.3250 C.ar    
  17 C17            8.2212     2.1450    -0.3096 C.ar    
  18 C18            7.6229     0.8999    -0.2504 C.ar    
  19 C19            6.2463     0.7955    -0.1998 C.ar    
  20 C20           -4.5433     1.8347    -1.0369 C.ar    
  21 C21           -5.7735     2.4612    -1.0217 C.ar    
  22 C22           -6.1511     3.2225     0.0750 C.ar    
  23 C23           -5.2930     3.3549     1.1571 C.ar    
  24 C24           -4.0650     2.7239     1.1460 C.ar    
  25 O25           -7.3625     3.8395     0.0891 O.3     
  26 C26           -7.6861     4.6071     1.2501 C.3     
  27 H27           -1.1932    -1.7705     0.0990 H       
  28 H28           -3.2768    -0.6207     0.1209 H       
  29 H29            1.6659     2.7974    -0.1369 H       
  30 H30            3.9177     0.0200     0.7804 H       
  31 H31            3.8650    -0.0399    -0.9977 H       
  32 H32            5.4596     4.0822    -0.2932 H       
  33 H33            7.9134     4.2596    -0.3719 H       
  34 H34            9.2977     2.2248    -0.3442 H       
  35 H35            8.2324     0.0084    -0.2392 H       
  36 H36            5.7795    -0.1772    -0.1536 H       
  37 H37           -4.2492     1.2426    -1.8910 H       
  38 H38           -6.4419     2.3589    -1.8638 H       
  39 H39           -5.5873     3.9482     2.0102 H       
  40 H40           -3.3971     2.8270     1.9884 H       
  41 H41           -7.6766     3.9605     2.1275 H       
  42 H42           -6.9511     5.4020     1.3766 H       
  43 H43           -8.6775     5.0445     1.1319 H       
@<TRIPOS>BOND
   1    1    2 1
   2    1    7 2
   3    1    6 1
   4    2    3 1
   5    2    9 1
   6    3    4 2
   7    3   27 1
   8    4    5 1
   9    4   28 1
  10    5    6 am
  11    5   11 1
  12    6   10 2
  13    7    8 1
  14    7   29 1
  15    8    9 2
  16    8   12 1
  17   11   20 ar
  18   11   24 ar
  19   12   13 1
  20   12   30 1
  21   12   31 1
  22   13   14 1
  23   14   15 ar
  24   14   19 ar
  25   15   16 ar
  26   15   32 1
  27   16   17 ar
  28   16   33 1
  29   17   18 ar
  30   17   34 1
  31   18   19 ar
  32   18   35 1
  33   19   36 1
  34   20   21 ar
  35   20   37 1
  36   21   22 ar
  37   21   38 1
  38   22   23 ar
  39   22   25 1
  40   23   24 ar
  41   23   39 1
  42   24   40 1
  43   25   26 1
  44   26   41 1
  45   26   42 1
  46   26   43 1

#	End of record

