#	Name: ASD03430796
#	Creating user name:	WinNT
#	Creation time:	15. 06. 2019 20:41

#	Modifying user name:	WinNT
#	Modification time:	15. 06. 2019 20:41

#	Program:	/corina/corina34_cracker 3.40 0067  02.08.2006

@<TRIPOS>MOLECULE
ASD03430796
  35   39    0    0    0
SMALL
NO_CHARGES


@<TRIPOS>ATOM
   1 C1            -0.0167     1.3776     0.0096 C.ar    
   2 C2             0.0021    -0.0041     0.0020 C.ar    
   3 C3             1.2028    -0.6822    -0.0131 C.ar    
   4 C4             2.4082     0.0116    -0.0100 C.ar    
   5 C5             2.3866     1.4074    -0.0056 C.ar    
   6 C6             1.1778     2.0858     0.0020 C.ar    
   7 C7             1.5507    -2.1464    -0.0472 C.3     
   8 C8             3.0365    -2.1466    -0.4321 C.3     
   9 C9             0.4217    -3.8577     1.0101 C.ar    
  10 C10            1.3135    -2.8201     1.2717 C.ar    
  11 C11            0.7165    -2.9061    -1.0381 C.2     
  12 N12            0.0923    -3.8809    -0.3473 N.am    
  13 O13            0.6225    -2.6856    -2.2271 O.2     
  14 C14            1.7812    -2.6034     2.5482 C.ar    
  15 C15            1.3661    -3.4191     3.5863 C.ar    
  16 C16            0.4808    -4.4516     3.3382 C.ar    
  17 C17            0.0089    -4.6728     2.0607 C.ar    
  18 O18            3.4710    -0.8430     0.0008 O.3     
  19 O19            1.1427     3.4471    -0.0018 O.3     
  20 C20            2.3483     4.1225     0.3723 C.3     
  21 C21            3.5177     3.4672    -0.3750 C.3     
  22 O22            3.5683     2.0854    -0.0037 O.3     
  23 H23           -0.9587     1.9057     0.0169 H       
  24 H24           -0.9269    -0.5548     0.0083 H       
  25 H25            3.5743    -2.9306     0.1009 H       
  26 H26            3.1572    -2.2568    -1.5097 H       
  27 H27           -0.5146    -4.5238    -0.7463 H       
  28 H28            2.4730    -1.7964     2.7396 H       
  29 H29            1.7332    -3.2497     4.5878 H       
  30 H30            0.1567    -5.0879     4.1484 H       
  31 H31           -0.6830    -5.4810     1.8750 H       
  32 H32            2.2802     5.1752     0.0976 H       
  33 H33            2.5020     4.0318     1.4475 H       
  34 H34            3.3615     3.5535    -1.4503 H       
  35 H35            4.4514     3.9567    -0.0981 H       
@<TRIPOS>BOND
   1    1    2 ar
   2    1    6 ar
   3    1   23 1
   4    2    3 ar
   5    2   24 1
   6    3    4 ar
   7    3    7 1
   8    4    5 ar
   9    4   18 1
  10    5    6 ar
  11    5   22 1
  12    6   19 1
  13    7    8 1
  14    7   10 1
  15    7   11 1
  16    8   18 1
  17    8   25 1
  18    8   26 1
  19    9   10 ar
  20    9   12 1
  21    9   17 ar
  22   10   14 ar
  23   11   12 am
  24   11   13 2
  25   12   27 1
  26   14   15 ar
  27   14   28 1
  28   15   16 ar
  29   15   29 1
  30   16   17 ar
  31   16   30 1
  32   17   31 1
  33   19   20 1
  34   20   21 1
  35   20   32 1
  36   20   33 1
  37   21   22 1
  38   21   34 1
  39   21   35 1

#	End of record

