#	Name: ASD01900156
#	Creating user name:	WinNT
#	Creation time:	15. 06. 2019 19:51

#	Modifying user name:	WinNT
#	Modification time:	15. 06. 2019 19:51

#	Program:	/corina/corina34_cracker 3.40 0067  02.08.2006

@<TRIPOS>MOLECULE
ASD01900156
  45   47    0    0    0
SMALL
NO_CHARGES


@<TRIPOS>ATOM
   1 C1             0.0456     1.2894     0.0941 C.ar    
   2 C2            -1.0419     1.5168    -0.7337 C.ar    
   3 C3            -1.0000     2.5668    -1.6380 C.ar    
   4 C4             0.1376     3.3570    -1.6811 C.ar    
   5 C5             1.1938     3.0702    -0.8188 C.ar    
   6 N6             1.1132     2.0550     0.0325 N.ar    
   7 C7             2.4170     3.9050    -0.8527 C.2     
   8 N8             3.4420     3.6326    -0.0210 N.am    
   9 O9             2.4963     4.8356    -1.6304 O.2     
  10 C10            4.6329     4.3619    -0.1158 C.ar    
  11 C11            4.5958     5.7145    -0.4284 C.ar    
  12 C12            5.7714     6.4341    -0.5214 C.ar    
  13 C13            6.9904     5.8041    -0.3021 C.ar    
  14 C14            7.0266     4.4517     0.0104 C.ar    
  15 C15            5.8516     3.7340     0.1085 C.ar    
  16 N16            8.1831     6.5335    -0.3968 N.am    
  17 C17            9.2546     6.1713     0.3361 C.2     
  18 O18            9.2155     5.1638     1.0105 O.2     
  19 Cl19           5.7257     8.1249    -0.9126 Cl      
  20 C20           12.8240     7.2482     1.2086 C.3     
  21 C21           11.5584     6.3887     1.2273 C.3     
  22 C22           10.5012     7.0178     0.3176 C.3     
  23 C23           11.0413     7.0991    -1.1115 C.3     
  24 C24           12.3070     7.9586    -1.1303 C.3     
  25 C25           13.3641     7.3295    -0.2206 C.3     
  26 H26            0.0144     0.4750     0.8028 H       
  27 H27           -1.9137     0.8820    -0.6754 H       
  28 H28           -1.8347     2.7642    -2.2942 H       
  29 H29            0.2047     4.1831    -2.3734 H       
  30 H30            3.3544     2.9311     0.6432 H       
  31 H31            3.6481     6.2036    -0.5990 H       
  32 H32            7.9741     3.9620     0.1804 H       
  33 H33            5.8802     2.6821     0.3515 H       
  34 H34            8.2375     7.2992    -0.9898 H       
  35 H35           12.5877     8.2507     1.5654 H       
  36 H36           13.5771     6.8000     1.8567 H       
  37 H37           11.7946     5.3862     0.8706 H       
  38 H38           11.1736     6.3307     2.2455 H       
  39 H39           10.2649     8.0203     0.6744 H       
  40 H40           11.2776     6.0966    -1.4683 H       
  41 H41           10.2882     7.5473    -1.7596 H       
  42 H42           12.6918     8.0165    -2.1484 H       
  43 H43           12.0707     8.9611    -0.7735 H       
  44 H44           14.2658     7.9418    -0.2339 H       
  45 H45           13.6004     6.3270    -0.5773 H       
@<TRIPOS>BOND
   1    1    2 ar
   2    1    6 ar
   3    1   26 1
   4    2    3 ar
   5    2   27 1
   6    3    4 ar
   7    3   28 1
   8    4    5 ar
   9    4   29 1
  10    5    6 ar
  11    5    7 1
  12    7    8 am
  13    7    9 2
  14    8   10 1
  15    8   30 1
  16   10   11 ar
  17   10   15 ar
  18   11   12 ar
  19   11   31 1
  20   12   13 ar
  21   12   19 1
  22   13   14 ar
  23   13   16 1
  24   14   15 ar
  25   14   32 1
  26   15   33 1
  27   16   17 am
  28   16   34 1
  29   17   18 2
  30   17   22 1
  31   20   21 1
  32   20   25 1
  33   20   35 1
  34   20   36 1
  35   21   22 1
  36   21   37 1
  37   21   38 1
  38   22   23 1
  39   22   39 1
  40   23   24 1
  41   23   40 1
  42   23   41 1
  43   24   25 1
  44   24   42 1
  45   24   43 1
  46   25   44 1
  47   25   45 1

#	End of record

