#	Name: ASD03331228
#	Creating user name:	WinNT
#	Creation time:	15. 06. 2019 20:38

#	Modifying user name:	WinNT
#	Modification time:	15. 06. 2019 20:38

#	Program:	/corina/corina34_cracker 3.40 0067  02.08.2006

@<TRIPOS>MOLECULE
ASD03331228
  51   54    0    0    0
SMALL
NO_CHARGES


@<TRIPOS>ATOM
   1 N1            -0.0459     1.4956     0.5698 N.am    
   2 C2             0.0019     0.1506     1.1632 C.3     
   3 C3             0.5966    -0.8151     0.1327 C.3     
   4 N4             1.8894    -0.2950    -0.3322 N.3     
   5 C5             1.7288     0.9911    -1.0237 C.3     
   6 C6             1.1805     2.0309    -0.0406 C.3     
   7 C7            -1.1849     2.2161     0.5803 C.2     
   8 O8            -2.2139     1.7207     0.9974 O.2     
   9 N9            -1.1831     3.4859     0.1284 N.am    
  10 C10           -2.3851     4.1963     0.0330 C.ar    
  11 C11           -2.4015     5.5681     0.2481 C.ar    
  12 C12           -3.5892     6.2664     0.1527 C.ar    
  13 C13           -4.7613     5.6010    -0.1566 C.ar    
  14 C14           -4.7483     4.2350    -0.3714 C.ar    
  15 C15           -3.5629     3.5318    -0.2826 C.ar    
  16 C16            2.5723    -1.2724    -1.1902 C.3     
  17 C17            3.7648    -0.6215    -1.8425 C.ar    
  18 C18            5.0074    -0.6543    -1.2140 C.ar    
  19 N19            6.0670    -0.0996    -1.7510 N.ar    
  20 C20            6.0017     0.5249    -2.9309 C.ar    
  21 C21            4.7678     0.5950    -3.6243 C.ar    
  22 C22            3.6294    -0.0037    -3.0534 C.ar    
  23 C23            4.7045     1.2531    -4.8633 C.ar    
  24 C24            7.1412     1.1186    -3.5019 C.ar    
  25 C25            7.0438     1.7478    -4.7044 C.ar    
  26 C26            5.8291     1.8162    -5.3842 C.ar    
  27 C27           -6.0556     6.3660    -0.2594 C.3     
  28 H28            0.6285     0.1659     2.0549 H       
  29 H29           -1.0063    -0.1697     1.4260 H       
  30 H30            0.7419    -1.7929     0.5920 H       
  31 H31           -0.0837    -0.9080    -0.7138 H       
  32 H32            2.6951     1.3233    -1.4030 H       
  33 H33            1.0326     0.8731    -1.8541 H       
  34 H34            0.9515     2.9537    -0.5736 H       
  35 H35            1.9203     2.2269     0.7355 H       
  36 H36           -0.3488     3.9073    -0.1307 H       
  37 H37           -1.4865     6.0883     0.4900 H       
  38 H38           -3.6027     7.3332     0.3202 H       
  39 H39           -5.6653     3.7181    -0.6128 H       
  40 H40           -3.5526     2.4657    -0.4549 H       
  41 H41            2.9044    -2.1167    -0.5862 H       
  42 H42            1.8845    -1.6240    -1.9592 H       
  43 H43            5.1004    -1.1495    -0.2587 H       
  44 H44            2.6736     0.0308    -3.5550 H       
  45 H45            3.7691     1.3117    -5.3999 H       
  46 H46            8.0901     1.0755    -2.9879 H       
  47 H47            7.9219     2.2026    -5.1387 H       
  48 H48            5.7797     2.3213    -6.3375 H       
  49 H49           -6.1941     6.7097    -1.2845 H       
  50 H50           -6.8848     5.7165     0.0212 H       
  51 H51           -6.0241     7.2251     0.4107 H       
@<TRIPOS>BOND
   1    1    2 1
   2    1    6 1
   3    1    7 am
   4    2    3 1
   5    2   28 1
   6    2   29 1
   7    3    4 1
   8    3   30 1
   9    3   31 1
  10    4    5 1
  11    4   16 1
  12    5    6 1
  13    5   32 1
  14    5   33 1
  15    6   34 1
  16    6   35 1
  17    7    8 2
  18    7    9 am
  19    9   10 1
  20    9   36 1
  21   10   11 ar
  22   10   15 ar
  23   11   12 ar
  24   11   37 1
  25   12   13 ar
  26   12   38 1
  27   13   14 ar
  28   13   27 1
  29   14   15 ar
  30   14   39 1
  31   15   40 1
  32   16   17 1
  33   16   41 1
  34   16   42 1
  35   17   18 ar
  36   17   22 ar
  37   18   19 ar
  38   18   43 1
  39   19   20 ar
  40   20   21 ar
  41   20   24 ar
  42   21   22 ar
  43   21   23 ar
  44   22   44 1
  45   23   26 ar
  46   23   45 1
  47   24   25 ar
  48   24   46 1
  49   25   26 ar
  50   25   47 1
  51   26   48 1
  52   27   49 1
  53   27   50 1
  54   27   51 1

#	End of record

