#	Name: ASD01917351
#	Creating user name:	WinNT
#	Creation time:	15. 06. 2019 20:09

#	Modifying user name:	WinNT
#	Modification time:	15. 06. 2019 20:09

#	Program:	/corina/corina34_cracker 3.40 0067  02.08.2006

@<TRIPOS>MOLECULE
ASD01917351
  53   56    0    0    0
SMALL
NO_CHARGES


@<TRIPOS>ATOM
   1 C1            -0.0089     1.3952     0.0074 C.ar    
   2 C2             0.0126     0.0023     0.0030 C.ar    
   3 C3             1.2342    -0.6520    -0.0151 C.ar    
   4 C4             2.3922     0.1099    -0.0282 C.ar    
   5 C5             2.2959     1.4921    -0.0229 C.ar    
   6 N6             1.1233     2.0875    -0.0055 N.ar    
   7 C7            -1.3068     2.1099     0.0205 C.2     
   8 O8            -2.3466     1.4810     0.0273 O.2     
   9 N9            -1.3342     3.4573     0.0248 N.am    
  10 C10           -2.6174     4.1639     0.0377 C.3     
  11 C11           -3.4944     3.8165    -1.1781 C.3     
  12 C12           -4.8906     4.4065    -0.9706 C.3     
  13 C13           -4.8001     5.9137    -0.7240 C.3     
  14 C14           -3.8670     6.1708     0.4723 C.3     
  15 C15           -4.2551     5.1704     1.5855 C.3     
  16 C16           -3.4480     3.8668     1.3075 C.3     
  17 C17           -2.4509     5.7065     0.0405 C.3     
  18 C18           -3.9077     7.6031     0.9392 C.2     
  19 N19           -5.0704     8.1438     1.3542 N.am    
  20 O20           -2.8943     8.2691     0.9416 O.2     
  21 C21           -3.9695    11.3120     2.5855 C.ar    
  22 N22           -3.9559    10.0940     2.0828 N.ar    
  23 C23           -5.0892     9.4287     1.8853 C.ar    
  24 C24           -6.2983    10.0401     2.2188 C.ar    
  25 C25           -6.2643    11.3181     2.7430 C.ar    
  26 N26           -5.0941    11.9170     2.9106 N.ar    
  27 C27           -2.6624    12.0306     2.8002 C.3     
  28 C28            3.5520     2.3247    -0.0371 C.3     
  29 H29           -0.9096    -0.5597     0.0140 H       
  30 H30            1.2828    -1.7309    -0.0186 H       
  31 H31            3.3600    -0.3692    -0.0421 H       
  32 H32           -0.5042     3.9593     0.0193 H       
  33 H33           -3.0507     4.2379    -2.0801 H       
  34 H34           -3.5672     2.7335    -1.2776 H       
  35 H35           -5.4957     4.2220    -1.8583 H       
  36 H36           -5.3604     3.9279    -0.1113 H       
  37 H37           -4.3999     6.4050    -1.6108 H       
  38 H38           -5.7924     6.3074    -0.5037 H       
  39 H39           -3.9876     5.5743     2.5619 H       
  40 H40           -5.3242     4.9620     1.5458 H       
  41 H41           -4.1286     3.0354     1.1240 H       
  42 H42           -2.7864     3.6328     2.1416 H       
  43 H43           -1.6903     6.0163     0.7572 H       
  44 H44           -2.2183     6.0763    -0.9582 H       
  45 H45           -5.8941     7.6366     1.2824 H       
  46 H46           -7.2372     9.5273     2.0706 H       
  47 H47           -7.1803    11.8228     3.0127 H       
  48 H48           -2.4064    12.5947     1.9033 H       
  49 H49           -2.7577    12.7137     3.6442 H       
  50 H50           -1.8778    11.3032     3.0083 H       
  51 H51            3.8412     2.5285    -1.0681 H       
  52 H52            3.3700     3.2657     0.4820 H       
  53 H53            4.3533     1.7821     0.4646 H       
@<TRIPOS>BOND
   1    1    2 ar
   2    1    6 ar
   3    1    7 1
   4    2    3 ar
   5    2   29 1
   6    3    4 ar
   7    3   30 1
   8    4    5 ar
   9    4   31 1
  10    5    6 ar
  11    5   28 1
  12    7    8 2
  13    7    9 am
  14    9   10 1
  15    9   32 1
  16   10   11 1
  17   10   16 1
  18   10   17 1
  19   11   12 1
  20   11   33 1
  21   11   34 1
  22   12   13 1
  23   12   35 1
  24   12   36 1
  25   13   14 1
  26   13   37 1
  27   13   38 1
  28   14   15 1
  29   14   17 1
  30   14   18 1
  31   15   16 1
  32   15   39 1
  33   15   40 1
  34   16   41 1
  35   16   42 1
  36   17   43 1
  37   17   44 1
  38   18   19 am
  39   18   20 2
  40   19   23 1
  41   19   45 1
  42   21   22 ar
  43   21   26 ar
  44   21   27 1
  45   22   23 ar
  46   23   24 ar
  47   24   25 ar
  48   24   46 1
  49   25   26 ar
  50   25   47 1
  51   27   48 1
  52   27   49 1
  53   27   50 1
  54   28   51 1
  55   28   52 1
  56   28   53 1

#	End of record

