#	Name: ASD02038038
#	Creating user name:	WinNT
#	Creation time:	15. 06. 2019 20:16

#	Modifying user name:	WinNT
#	Modification time:	15. 06. 2019 20:16

#	Program:	/corina/corina34_cracker 3.40 0067  02.08.2006

@<TRIPOS>MOLECULE
ASD02038038
  42   44    0    0    0
SMALL
NO_CHARGES


@<TRIPOS>ATOM
   1 C1            -0.0162     1.3443     0.0094 C.2     
   2 N2             1.2232     3.4410     0.0089 N.am    
   3 C3             1.2414     2.0934     0.0014 C.2     
   4 C4             1.1751     6.8547    -0.1719 C.3     
   5 O5             0.2594     7.6254    -0.9527 O.3     
   6 C6             0.1257     8.9393    -0.6288 C.ar    
   7 C7            -0.7461     9.7451    -1.3460 C.ar    
   8 C8             0.8569     9.4724     0.4224 C.ar    
   9 C9             0.7210    10.8070     0.7514 C.ar    
  10 C10           -0.1462    11.6143     0.0303 C.ar    
  11 C11           -0.8820    11.0798    -1.0170 C.ar    
  12 O12            2.3035     1.4993    -0.0119 O.2     
  13 O13           -0.2806    12.9280     0.3547 O.3     
  14 C14            0.0021    -0.0041     0.0020 C.2     
  15 C15           -1.2622    -0.7571     0.0100 C.ar    
  16 C16           -1.2469    -2.1559     0.0024 C.ar    
  17 C17           -2.4843    -0.0777     0.0312 C.ar    
  18 C18           -3.6656    -0.7905     0.0391 C.ar    
  19 C19           -3.6422    -2.1766     0.0266 C.ar    
  20 C20           -2.4345    -2.8553     0.0104 C.ar    
  21 Cl21          -5.1330    -3.0660     0.0372 Cl      
  22 Cl22          -5.1843     0.0501     0.0654 Cl      
  23 C23            2.2292     4.5137     0.0050 C.3     
  24 C24            1.1901     5.4118    -0.6804 C.3     
  25 C25            0.1883     4.4860     0.0178 C.3     
  26 H26           -0.9587     1.8715     0.0258 H       
  27 H27            2.1746     7.2809    -0.2584 H       
  28 H28            0.8633     6.8687     0.8725 H       
  29 H29           -1.3186     9.3291    -2.1619 H       
  30 H30            1.5322     8.8438     0.9839 H       
  31 H31            1.2899    11.2219     1.5703 H       
  32 H32           -1.5570    11.7084    -1.5788 H       
  33 H33            0.3345    13.5125    -0.1090 H       
  34 H34            0.9446    -0.5313    -0.0098 H       
  35 H35           -0.3064    -2.6867    -0.0102 H       
  36 H36           -2.5033     1.0020     0.0417 H       
  37 H37           -2.4237    -3.9352     0.0004 H       
  38 H38            2.5055     4.8533     1.0032 H       
  39 H39            3.0944     4.2951    -0.6209 H       
  40 H40            1.1813     5.3356    -1.7677 H       
  41 H41           -0.6801     4.2449    -0.5953 H       
  42 H42           -0.0817     4.8161     1.0208 H       
@<TRIPOS>BOND
   1    1   14 2
   2    1    3 1
   3    1   26 1
   4    2    3 am
   5    2   23 1
   6    2   25 1
   7    3   12 2
   8    4    5 1
   9    4   24 1
  10    4   27 1
  11    4   28 1
  12    5    6 1
  13    6    7 ar
  14    6    8 ar
  15    7   11 ar
  16    7   29 1
  17    8    9 ar
  18    8   30 1
  19    9   10 ar
  20    9   31 1
  21   10   11 ar
  22   10   13 1
  23   11   32 1
  24   13   33 1
  25   14   15 1
  26   14   34 1
  27   15   16 ar
  28   15   17 ar
  29   16   20 ar
  30   16   35 1
  31   17   18 ar
  32   17   36 1
  33   18   19 ar
  34   18   22 1
  35   19   20 ar
  36   19   21 1
  37   20   37 1
  38   23   24 1
  39   23   38 1
  40   23   39 1
  41   24   25 1
  42   24   40 1
  43   25   41 1
  44   25   42 1

#	End of record

