#	Name: ASD04882182
#	Creating user name:	WinNT
#	Creation time:	15. 06. 2019 20:54

#	Modifying user name:	WinNT
#	Modification time:	15. 06. 2019 20:54

#	Program:	/corina/corina34_cracker 3.40 0067  02.08.2006

@<TRIPOS>MOLECULE
ASD04882182
  79   82    0    0    0
SMALL
NO_CHARGES


@<TRIPOS>ATOM
   1 C1            -0.1623     1.5160     0.4518 C.3     
   2 C2            -0.1422     0.0096     0.4875 C.2     
   3 N3            -1.1638    -0.6908    -0.0438 N.am    
   4 C4            -1.0913    -2.0887    -0.1184 C.ar    
   5 C5            -2.2493    -2.8576     0.0249 C.ar    
   6 C6            -2.1790    -4.2442    -0.0488 C.ar    
   7 C7            -0.9685    -4.8648    -0.2632 C.ar    
   8 C8             0.1935    -4.1017    -0.4079 C.ar    
   9 C9             0.1246    -2.7073    -0.3394 C.ar    
  10 N10           -3.4753    -2.2343     0.2423 N.3     
  11 C11           -3.4998    -1.5617     1.5487 C.3     
  12 C12           -4.5820    -3.1941     0.1265 C.3     
  13 C13           -5.9128    -2.4567     0.2927 C.3     
  14 N14           -5.9373    -1.7842     1.5991 N.3     
  15 C15           -4.8306    -0.8243     1.7150 C.3     
  16 C16           -7.1671    -1.1589     1.8172 C.ar    
  17 C17           -7.9516    -1.5257     2.9030 C.ar    
  18 C18           -7.6058    -0.1646     0.9517 C.ar    
  19 C19           -8.8221     0.4515     1.1701 C.ar    
  20 C20           -9.6032     0.0801     2.2494 C.ar    
  21 C21           -9.1673    -0.9054     3.1157 C.ar    
  22 C22            1.4902    -4.7667    -0.6376 C.2     
  23 N23            1.5549    -6.1111    -0.7082 N.am    
  24 O24            2.5006    -4.1019    -0.7633 O.2     
  25 O25            0.7934    -0.5726     0.9944 O.2     
  26 C26           -7.4773    -2.5998     3.8478 C.3     
  27 C27            2.8426    -6.7715    -0.9363 C.3     
  28 C28            2.6388    -8.2874    -0.9732 C.3     
  29 C29            3.9836    -8.9771    -1.2115 C.3     
  30 N30            3.7885   -10.4286    -1.2468 N.am    
  31 C31            3.4938   -11.1952    -2.4632 C.3     
  32 C32            2.9501   -12.5550    -1.9718 C.3     
  33 C33            3.5945   -12.6644    -0.5704 C.3     
  34 C34            3.8619   -11.2302    -0.1703 C.2     
  35 O35            4.1006   -10.8569     0.9587 O.2     
  36 C36            1.1046     2.0589     1.1160 C.3     
  37 C37           -0.2197     1.9909    -1.0015 C.3     
  38 C38           -1.3921     2.0276     1.2045 C.3     
  39 H39           -1.9492    -0.2276    -0.3746 H       
  40 H40           -3.0756    -4.8359     0.0626 H       
  41 H41           -0.9169    -5.9421    -0.3193 H       
  42 H42            1.0208    -2.1150    -0.4508 H       
  43 H43           -3.3931    -2.3025     2.3411 H       
  44 H44           -2.6786    -0.8473     1.6054 H       
  45 H45           -4.5498    -3.6698    -0.8538 H       
  46 H46           -4.4876    -3.9535     0.9027 H       
  47 H47           -6.0195    -1.7159    -0.4997 H       
  48 H48           -6.7340    -3.1712     0.2361 H       
  49 H49           -4.8628    -0.3487     2.6952 H       
  50 H50           -4.9250    -0.0650     0.9387 H       
  51 H51           -6.9960     0.1264     0.1091 H       
  52 H52           -9.1636     1.2245     0.4977 H       
  53 H53          -10.5538     0.5641     2.4184 H       
  54 H54           -9.7797    -1.1931     3.9575 H       
  55 H55            0.7489    -6.6413    -0.6079 H       
  56 H56           -6.8981    -2.1462     4.6521 H       
  57 H57           -8.3380    -3.1197     4.2684 H       
  58 H58           -6.8527    -3.3101     3.3062 H       
  59 H59            3.2588    -6.4376    -1.8868 H       
  60 H60            3.5296    -6.5168    -0.1293 H       
  61 H61            2.2226    -8.6213    -0.0228 H       
  62 H62            1.9518    -8.5421    -1.7802 H       
  63 H63            4.3998    -8.6432    -2.1619 H       
  64 H64            4.6706    -8.7224    -0.4045 H       
  65 H65            2.7404   -10.6810    -3.0599 H       
  66 H66            4.4030   -11.3410    -3.0466 H       
  67 H67            1.8625   -12.5376    -1.9007 H       
  68 H68            3.2842   -13.3657    -2.6192 H       
  69 H69            2.9060   -13.1368     0.1302 H       
  70 H70            4.5293   -13.2225    -0.6230 H       
  71 H71            1.9808     1.6944     0.5798 H       
  72 H72            1.0900     3.1485     1.0902 H       
  73 H73            1.1455     1.7205     2.1514 H       
  74 H74           -1.1222     1.6042    -1.4748 H       
  75 H75           -0.2342     3.0805    -1.0274 H       
  76 H76            0.6565     1.6265    -1.5378 H       
  77 H77           -1.3512     1.6893     2.2398 H       
  78 H78           -1.4067     3.1172     1.1786 H       
  79 H79           -2.2947     1.6409     0.7312 H       
@<TRIPOS>BOND
   1    1    2 1
   2    1   36 1
   3    1   37 1
   4    1   38 1
   5    2    3 am
   6    2   25 2
   7    3    4 1
   8    3   39 1
   9    4    5 ar
  10    4    9 ar
  11    5    6 ar
  12    5   10 1
  13    6    7 ar
  14    6   40 1
  15    7    8 ar
  16    7   41 1
  17    8    9 ar
  18    8   22 1
  19    9   42 1
  20   10   11 1
  21   10   12 1
  22   11   15 1
  23   11   43 1
  24   11   44 1
  25   12   13 1
  26   12   45 1
  27   12   46 1
  28   13   14 1
  29   13   47 1
  30   13   48 1
  31   14   15 1
  32   14   16 1
  33   15   49 1
  34   15   50 1
  35   16   17 ar
  36   16   18 ar
  37   17   26 1
  38   17   21 ar
  39   18   19 ar
  40   18   51 1
  41   19   20 ar
  42   19   52 1
  43   20   21 ar
  44   20   53 1
  45   21   54 1
  46   22   23 am
  47   22   24 2
  48   23   27 1
  49   23   55 1
  50   26   56 1
  51   26   57 1
  52   26   58 1
  53   27   28 1
  54   27   59 1
  55   27   60 1
  56   28   29 1
  57   28   61 1
  58   28   62 1
  59   29   30 1
  60   29   63 1
  61   29   64 1
  62   30   31 1
  63   30   34 am
  64   31   32 1
  65   31   65 1
  66   31   66 1
  67   32   33 1
  68   32   67 1
  69   32   68 1
  70   33   34 1
  71   33   69 1
  72   33   70 1
  73   34   35 2
  74   36   71 1
  75   36   72 1
  76   36   73 1
  77   37   74 1
  78   37   75 1
  79   37   76 1
  80   38   77 1
  81   38   78 1
  82   38   79 1

#	End of record

