#	Name: ASD03091271
#	Creating user name:	WinNT
#	Creation time:	15. 06. 2019 20:30

#	Modifying user name:	WinNT
#	Modification time:	15. 06. 2019 20:30

#	Program:	/corina/corina34_cracker 3.40 0067  02.08.2006

@<TRIPOS>MOLECULE
ASD03091271
  48   52    0    0    0
SMALL
NO_CHARGES


@<TRIPOS>ATOM
   1 N1            -0.2583     1.9555    -0.0709 N.2     
   2 C2            -0.3472     0.6522    -0.1378 C.2     
   3 N3             0.7466    -0.1700    -0.1781 N.am    
   4 C4             1.9957     0.3503    -0.1493 C.2     
   5 C5             2.1197     1.8136    -0.0742 C.ar    
   6 C6             3.3615     2.4440    -0.0404 C.ar    
   7 C7             3.4197     3.8256     0.0300 C.ar    
   8 C8             2.2474     4.5809     0.0667 C.ar    
   9 C9             1.0234     3.9772     0.0347 C.ar    
  10 C10            0.9347     2.5835    -0.0368 C.ar    
  11 O11            2.9793    -0.3661    -0.1840 O.2     
  12 C12            5.6844     3.6190     0.7528 C.3     
  13 N13            4.6608     4.4675     0.0649 N.3     
  14 C14            4.5853     5.7282     0.8418 C.3     
  15 C15            5.6489     5.5724     1.9725 C.3     
  16 N16            5.0573     4.5499     2.8920 N.3     
  17 C17            5.0338     3.2785     2.1293 C.3     
  18 C18            6.7181     4.7090     1.2119 C.3     
  19 C19            3.7035     4.9382     3.3099 C.3     
  20 C20            0.5640    -1.6217    -0.2522 C.3     
  21 C21           -1.6906     0.0390    -0.1709 C.ar    
  22 C22           -2.0572    -0.7927    -1.2334 C.ar    
  23 C23           -3.3175    -1.3629    -1.2564 C.ar    
  24 C24           -4.2122    -1.1104    -0.2314 C.ar    
  25 C25           -3.8538    -0.2875     0.8218 C.ar    
  26 C26           -2.5984     0.2825     0.8615 C.ar    
  27 F27           -1.1837    -1.0384    -2.2343 F       
  28 Cl28          -3.7773    -2.3963    -2.5734 Cl      
  29 H29            4.2700     1.8607    -0.0684 H       
  30 H30            2.3090     5.6577     0.1216 H       
  31 H31            0.1247     4.5754     0.0646 H       
  32 H32            6.0716     2.7755     0.1812 H       
  33 H33            4.8300     6.5795     0.2066 H       
  34 H34            3.5909     5.8491     1.2716 H       
  35 H35            5.9946     6.4949     2.4391 H       
  36 H36            4.0073     2.9399     1.9893 H       
  37 H37            5.6175     2.5165     2.6457 H       
  38 H38            7.4768     4.3045     1.8818 H       
  39 H39            7.1590     5.2428     0.3700 H       
  40 H40            3.0251     4.8619     2.4601 H       
  41 H41            3.3648     4.2751     4.1059 H       
  42 H42            3.7162     5.9657     3.6735 H       
  43 H43            0.4470    -1.9205    -1.2939 H       
  44 H44            1.4354    -2.1197     0.1729 H       
  45 H45           -0.3263    -1.9051     0.3092 H       
  46 H46           -5.1951    -1.5574    -0.2538 H       
  47 H47           -4.5578    -0.0946     1.6177 H       
  48 H48           -2.3199     0.9204     1.6873 H       
@<TRIPOS>BOND
   1    1    2 2
   2    1   10 1
   3    2    3 1
   4    2   21 1
   5    3    4 am
   6    3   20 1
   7    4    5 1
   8    4   11 2
   9    5    6 ar
  10    5   10 ar
  11    6    7 ar
  12    6   29 1
  13    7    8 ar
  14    7   13 1
  15    8    9 ar
  16    8   30 1
  17    9   10 ar
  18    9   31 1
  19   12   13 1
  20   12   17 1
  21   12   18 1
  22   12   32 1
  23   13   14 1
  24   14   15 1
  25   14   33 1
  26   14   34 1
  27   15   16 1
  28   15   18 1
  29   15   35 1
  30   16   17 1
  31   16   19 1
  32   17   36 1
  33   17   37 1
  34   18   38 1
  35   18   39 1
  36   19   40 1
  37   19   41 1
  38   19   42 1
  39   20   43 1
  40   20   44 1
  41   20   45 1
  42   21   22 ar
  43   21   26 ar
  44   22   23 ar
  45   22   27 1
  46   23   24 ar
  47   23   28 1
  48   24   25 ar
  49   24   46 1
  50   25   26 ar
  51   25   47 1
  52   26   48 1

#	End of record

