#	Name: ASD07930328
#	Creating user name:	WinNT
#	Creation time:	15. 06. 2019 21:12

#	Modifying user name:	WinNT
#	Modification time:	15. 06. 2019 21:12

#	Program:	/corina/corina34_cracker 3.40 0067  02.08.2006

@<TRIPOS>MOLECULE
ASD07930328
  35   36    0    0    0
SMALL
NO_CHARGES


@<TRIPOS>ATOM
   1 N1            -0.0055     1.4468     0.2166 N.pl3   
   2 C2             0.0021    -0.0041     0.0020 C.3     
   3 C3             0.8316    -0.6745     1.1058 C.3     
   4 S4             2.4968     0.0611     1.0955 S.o2    
   5 N5             2.1758     1.6961     1.1082 N.am    
   6 C6             1.1850     2.1438     0.2458 C.2     
   7 C7            -1.4107    -0.5268     0.0464 C.ar    
   8 C8            -2.1682    -0.3788     1.1961 C.ar    
   9 N9             1.3729     3.1877    -0.5117 N.2     
  10 C10            2.9035     2.6156     1.9863 C.3     
  11 O11            3.1632    -0.1820     2.3268 O.2     
  12 O12            3.1412    -0.1671    -0.1503 O.2     
  13 C13            0.6205    -0.3155    -1.3623 C.3     
  14 C14           -1.9526    -1.1488    -1.0621 C.ar    
  15 C15           -3.2491    -1.6277    -1.0220 C.ar    
  16 C16           -4.0044    -1.4852     0.1268 C.ar    
  17 C17           -3.4660    -0.8590     1.2353 C.ar    
  18 F18           -1.6410     0.2334     2.2789 F       
  19 C19           -5.4173    -2.0076     0.1689 C.3     
  20 H20           -0.8463     1.9161     0.3338 H       
  21 H21            0.3607    -0.5043     2.0740 H       
  22 H22            0.9016    -1.7452     0.9138 H       
  23 H23            2.2163     3.6656    -0.4784 H       
  24 H24            3.7883     2.9876     1.4697 H       
  25 H25            2.2580     3.4532     2.2505 H       
  26 H26            3.2058     2.0901     2.8922 H       
  27 H27            1.6428     0.0613    -1.3924 H       
  28 H28            0.6258    -1.3939    -1.5212 H       
  29 H29            0.0333     0.1642    -2.1454 H       
  30 H30           -1.3634    -1.2607    -1.9602 H       
  31 H31           -3.6721    -2.1131    -1.8891 H       
  32 H32           -4.0562    -0.7481     2.1329 H       
  33 H33           -5.4126    -3.0400     0.5185 H       
  34 H34           -6.0106    -1.3964     0.8490 H       
  35 H35           -5.8506    -1.9643    -0.8303 H       
@<TRIPOS>BOND
   1    1    2 1
   2    1    6 1
   3    1   20 1
   4    2    3 1
   5    2    7 1
   6    2   13 1
   7    3    4 1
   8    3   21 1
   9    3   22 1
  10    4    5 am
  11    4   11 2
  12    4   12 2
  13    5    6 1
  14    5   10 1
  15    6    9 2
  16    7   14 ar
  17    7    8 ar
  18    8   18 1
  19    8   17 ar
  20    9   23 1
  21   10   24 1
  22   10   25 1
  23   10   26 1
  24   13   27 1
  25   13   28 1
  26   13   29 1
  27   14   15 ar
  28   14   30 1
  29   15   16 ar
  30   15   31 1
  31   16   17 ar
  32   16   19 1
  33   17   32 1
  34   19   33 1
  35   19   34 1
  36   19   35 1

#	End of record

