#	Name: ASD02198365
#	Creating user name:	WinNT
#	Creation time:	15. 06. 2019 20:19

#	Modifying user name:	WinNT
#	Modification time:	15. 06. 2019 20:19

#	Program:	/corina/corina34_cracker 3.40 0067  02.08.2006

@<TRIPOS>MOLECULE
ASD02198365
  40   42    0    0    0
SMALL
NO_CHARGES


@<TRIPOS>ATOM
   1 C1             1.6345     1.6038    -2.9182 C.2     
   2 C2             1.7125     0.2266    -3.0485 C.2     
   3 S3             2.4683     2.0481    -1.4311 S.3     
   4 C4             2.8347     0.4073    -1.1264 C.2     
   5 N5             2.3608    -0.3567    -2.0688 N.2     
   6 N6             1.1594    -0.4672    -4.1109 N.pl3   
   7 C7             1.0121     2.4823    -3.8085 C.2     
   8 C8             1.0104     3.9631    -3.5286 C.3     
   9 O9             0.4716     2.0519    -4.8097 O.2     
  10 N10            3.5369    -0.0460    -0.0327 N.pl3   
  11 C11            3.8880    -1.3970     0.0624 C.ar    
  12 C12            5.1422    -1.8220    -0.3589 C.ar    
  13 C13            5.4856    -3.1575    -0.2635 C.ar    
  14 C14            4.5826    -4.0703     0.2500 C.ar    
  15 C15            3.3336    -3.6512     0.6698 C.ar    
  16 C16            2.9856    -2.3162     0.5836 C.ar    
  17 C17            0.1435     6.2023    -4.3242 C.3     
  18 C18            0.2688     4.6933    -4.6500 C.3     
  19 Cl19           1.4174    -1.7911     1.1116 Cl      
  20 Cl20           6.2761    -0.6772    -1.0048 Cl      
  21 C21           -0.0386     6.8402    -5.7239 C.3     
  22 C22            0.8951     6.0200    -6.6378 C.3     
  23 C23            1.0905     4.6549    -5.9551 C.3     
  24 H24            0.6891     0.0121    -4.8109 H       
  25 H25            1.2420    -1.4326    -4.1553 H       
  26 H26            0.5105     4.1527    -2.5788 H       
  27 H27            2.0376     4.3243    -3.4770 H       
  28 H28            3.7882     0.5712     0.6722 H       
  29 H29            6.4601    -3.4886    -0.5907 H       
  30 H30            4.8536    -5.1133     0.3230 H       
  31 H31            2.6308    -4.3670     1.0700 H       
  32 H32           -0.7280     6.3911    -3.6973 H       
  33 H33            1.0513     6.5711    -3.8468 H       
  34 H34           -0.7165     4.2532    -4.8042 H       
  35 H35           -1.0733     6.7474    -6.0537 H       
  36 H36            0.2655     7.8868    -5.7086 H       
  37 H37            0.4354     5.8854    -7.6169 H       
  38 H38            1.8548     6.5262    -6.7419 H       
  39 H39            2.1451     4.4987    -5.7278 H       
  40 H40            0.7256     3.8578    -6.6028 H       
@<TRIPOS>BOND
   1    1    2 2
   2    1    3 1
   3    1    7 1
   4    2    6 1
   5    2    5 1
   6    3    4 1
   7    4    5 2
   8    4   10 1
   9    6   24 1
  10    6   25 1
  11    7    8 1
  12    7    9 2
  13    8   18 1
  14    8   26 1
  15    8   27 1
  16   10   11 1
  17   10   28 1
  18   11   12 ar
  19   11   16 ar
  20   12   13 ar
  21   12   20 1
  22   13   14 ar
  23   13   29 1
  24   14   15 ar
  25   14   30 1
  26   15   16 ar
  27   15   31 1
  28   16   19 1
  29   17   18 1
  30   17   21 1
  31   17   32 1
  32   17   33 1
  33   18   23 1
  34   18   34 1
  35   21   22 1
  36   21   35 1
  37   21   36 1
  38   22   23 1
  39   22   37 1
  40   22   38 1
  41   23   39 1
  42   23   40 1

#	End of record

