#	Name: ASD03900011
#	Creating user name:	WinNT
#	Creation time:	15. 06. 2019 20:47

#	Modifying user name:	WinNT
#	Modification time:	15. 06. 2019 20:47

#	Program:	/corina/corina34_cracker 3.40 0067  02.08.2006

@<TRIPOS>MOLECULE
ASD03900011
  53   55    0    0    0
SMALL
NO_CHARGES


@<TRIPOS>ATOM
   1 C1            -0.0184     1.5028     0.0103 C.3     
   2 C2            -0.2055     0.0151     0.1617 C.ar    
   3 C3             1.4537     1.8253    -0.0013 C.ar    
   4 C4            -0.6427     1.9585    -1.2834 C.ar    
   5 C5            -0.6890     2.2230     1.1818 C.3     
   6 C6            -1.4795    -0.5219     0.1804 C.ar    
   7 C7            -1.6537    -1.8852     0.3191 C.ar    
   8 C8            -0.5490    -2.7158     0.4397 C.ar    
   9 C9             0.7283    -2.1745     0.4207 C.ar    
  10 C10            0.8973    -0.8111     0.2761 C.ar    
  11 C11            2.2434     1.4074    -1.0565 C.ar    
  12 C12            3.5931     1.7018    -1.0696 C.ar    
  13 C13            4.1559     2.4174    -0.0227 C.ar    
  14 C14            3.3613     2.8355     1.0348 C.ar    
  15 C15            2.0111     2.5435     1.0404 C.ar    
  16 C16           -0.7320     3.3084    -1.5687 C.ar    
  17 C17           -1.3038     3.7287    -2.7539 C.ar    
  18 C18           -1.7888     2.7950    -3.6582 C.ar    
  19 C19           -1.6981     1.4411    -3.3695 C.ar    
  20 C20           -1.1202     1.0258    -2.1854 C.ar    
  21 O21           -0.7177    -4.0573     0.5767 O.3     
  22 O22            5.4835     2.7078    -0.0330 O.3     
  23 C23            5.9943     3.4478     1.0776 C.3     
  24 C24            7.4728     3.6738     0.8933 C.2     
  25 O25           -2.3523     3.2060    -4.8246 O.3     
  26 O26            8.0317     3.2453    -0.0884 O.2     
  27 O27            8.1688     4.3513     1.8198 O.3     
  28 C28            0.4645    -4.8511     0.6958 C.3     
  29 C29            0.0832    -6.3021     0.8381 C.2     
  30 O30            1.0374    -7.2374     0.9653 O.3     
  31 O31           -1.0815    -6.6234     0.8376 O.2     
  32 H32           -0.2374     1.8934     2.1175 H       
  33 H33           -0.5537     3.2990     1.0723 H       
  34 H34           -1.7537     1.9897     1.1902 H       
  35 H35           -2.3391     0.1252     0.0869 H       
  36 H36           -2.6490    -2.3042     0.3340 H       
  37 H37            1.5898    -2.8190     0.5144 H       
  38 H38            1.8914    -0.3892     0.2612 H       
  39 H39            1.8049     0.8501    -1.8710 H       
  40 H40            4.2096     1.3749    -1.8938 H       
  41 H41            3.7971     3.3927     1.8509 H       
  42 H42            1.3921     2.8688     1.8635 H       
  43 H43           -0.3546     4.0349    -0.8643 H       
  44 H44           -1.3736     4.7833    -2.9762 H       
  45 H45           -2.0749     0.7123    -4.0718 H       
  46 H46           -1.0493    -0.0281    -1.9602 H       
  47 H47            5.4846     4.4093     1.1390 H       
  48 H48            5.8243     2.8871     1.9968 H       
  49 H49           -1.7246     3.2945    -5.5548 H       
  50 H50            9.1146     4.4711     1.6578 H       
  51 H51            1.0795    -4.7227    -0.1950 H       
  52 H52            1.0272    -4.5354     1.5743 H       
  53 H53            0.7441    -8.1546     1.0537 H       
@<TRIPOS>BOND
   1    1    2 1
   2    1    3 1
   3    1    4 1
   4    1    5 1
   5    2    6 ar
   6    2   10 ar
   7    3   11 ar
   8    3   15 ar
   9    4   16 ar
  10    4   20 ar
  11    5   32 1
  12    5   33 1
  13    5   34 1
  14    6    7 ar
  15    6   35 1
  16    7    8 ar
  17    7   36 1
  18    8    9 ar
  19    8   21 1
  20    9   10 ar
  21    9   37 1
  22   10   38 1
  23   11   12 ar
  24   11   39 1
  25   12   13 ar
  26   12   40 1
  27   13   14 ar
  28   13   22 1
  29   14   15 ar
  30   14   41 1
  31   15   42 1
  32   16   17 ar
  33   16   43 1
  34   17   18 ar
  35   17   44 1
  36   18   19 ar
  37   18   25 1
  38   19   20 ar
  39   19   45 1
  40   20   46 1
  41   21   28 1
  42   22   23 1
  43   23   24 1
  44   23   47 1
  45   23   48 1
  46   24   26 2
  47   24   27 1
  48   25   49 1
  49   27   50 1
  50   28   29 1
  51   28   51 1
  52   28   52 1
  53   29   30 1
  54   29   31 2
  55   30   53 1

#	End of record

