#	Name: ASD07300799
#	Creating user name:	WinNT
#	Creation time:	15. 06. 2019 21:10

#	Modifying user name:	WinNT
#	Modification time:	15. 06. 2019 21:10

#	Program:	/corina/corina34_cracker 3.40 0067  02.08.2006

@<TRIPOS>MOLECULE
ASD07300799
  49   53    0    0    0
SMALL
NO_CHARGES


@<TRIPOS>ATOM
   1 C1            -0.8331     2.2224     0.1683 C.2     
   2 C2            -0.6148     0.7411    -0.0022 C.3     
   3 N3            -1.9035     0.0472     0.0603 N.pl3   
   4 N4            -2.8339     0.1362     1.1027 N.2     
   5 C5            -3.8602    -0.6179     0.8103 C.2     
   6 C6            -3.6189    -1.2206    -0.4411 C.2     
   7 C7            -2.4013    -0.7837    -0.8799 C.2     
   8 C8            -5.9106    -3.7992    -1.6216 C.2     
   9 C9            -6.7035    -4.9351    -1.3234 C.2     
  10 N10           -5.1922    -3.2128    -0.6083 N.pl3   
  11 N11           -6.7348    -5.4010    -0.0908 N.2     
  12 C12           -6.0315    -4.8227     0.8889 C.2     
  13 C13           -5.2633    -3.7407     0.6555 C.2     
  14 N14           -5.6892    -3.1184    -2.7335 N.2     
  15 C15           -4.8499    -2.1173    -2.4797 C.2     
  16 C16           -4.5228    -2.1529    -1.1525 C.2     
  17 N17           -7.4417    -5.5518    -2.3211 N.pl3   
  18 C18           -7.3206    -5.1278    -3.7250 C.3     
  19 C19           -7.0724    -6.3716    -4.5861 C.3     
  20 O20           -8.0769    -7.3486    -4.3023 O.3     
  21 C21           -8.0701    -7.8200    -2.9526 C.3     
  22 C22           -8.3651    -6.6541    -2.0088 C.3     
  23 C23           -4.3490    -1.1114    -3.4839 C.3     
  24 C24            0.3422     3.1652     0.1422 C.3     
  25 C25            0.0755     4.6157    -0.2648 C.3     
  26 C26            0.3813     4.2747     1.1950 C.3     
  27 O27           -1.9505     2.6545     0.3207 O.2     
  28 H28           -0.1466     0.5516    -0.9681 H       
  29 H29            0.0337     0.3754     0.7939 H       
  30 H30           -4.7403    -0.7555     1.4210 H       
  31 H31           -1.9227    -1.0555    -1.8091 H       
  32 H32           -6.0809    -5.2310     1.8876 H       
  33 H33           -4.7037    -3.2904     1.4620 H       
  34 H34           -8.2423    -4.6399    -4.0420 H       
  35 H35           -6.4842    -4.4366    -3.8289 H       
  36 H36           -7.1170    -6.0993    -5.6405 H       
  37 H37           -6.0894    -6.7830    -4.3568 H       
  38 H38           -8.8324    -8.5896    -2.8320 H       
  39 H39           -7.0907    -8.2366    -2.7174 H       
  40 H40           -8.2201    -6.9732    -0.9766 H       
  41 H41           -9.3938    -6.3225    -2.1499 H       
  42 H42           -5.0242    -0.2561    -3.5091 H       
  43 H43           -3.3513    -0.7784    -3.1980 H       
  44 H44           -4.3093    -1.5722    -4.4709 H       
  45 H45            1.2921     2.7242    -0.1601 H       
  46 H46            0.8500     5.1291    -0.8346 H       
  47 H47           -0.9501     4.8881    -0.5138 H       
  48 H48           -0.4431     4.3228     1.9064 H       
  49 H49            1.3570     4.5638     1.5856 H       
@<TRIPOS>BOND
   1    1    2 1
   2    1   24 1
   3    1   27 2
   4    2    3 1
   5    2   28 1
   6    2   29 1
   7    3    4 1
   8    3    7 1
   9    4    5 2
  10    5    6 1
  11    5   30 1
  12    6    7 2
  13    6   16 1
  14    7   31 1
  15    8    9 1
  16    8   10 1
  17    8   14 2
  18    9   11 2
  19    9   17 1
  20   10   13 1
  21   10   16 1
  22   11   12 1
  23   12   13 2
  24   12   32 1
  25   13   33 1
  26   14   15 1
  27   15   16 2
  28   15   23 1
  29   17   18 1
  30   17   22 1
  31   18   19 1
  32   18   34 1
  33   18   35 1
  34   19   20 1
  35   19   36 1
  36   19   37 1
  37   20   21 1
  38   21   22 1
  39   21   38 1
  40   21   39 1
  41   22   40 1
  42   22   41 1
  43   23   42 1
  44   23   43 1
  45   23   44 1
  46   24   25 1
  47   24   26 1
  48   24   45 1
  49   25   26 1
  50   25   46 1
  51   25   47 1
  52   26   48 1
  53   26   49 1

#	End of record

