#	Name: ASD01510059
#	Creating user name:	WinNT
#	Creation time:	15. 06. 2019 19:21

#	Modifying user name:	WinNT
#	Modification time:	15. 06. 2019 19:21

#	Program:	/corina/corina34_cracker 3.40 0067  02.08.2006

@<TRIPOS>MOLECULE
ASD01510059
  39   40    0    0    0
SMALL
NO_CHARGES


@<TRIPOS>ATOM
   1 C1            -2.2803    -2.7229     0.0063 C.2     
   2 C2            -1.1375    -2.0419     0.0023 C.2     
   3 C3             0.1458    -2.7594    -0.0174 C.2     
   4 O4             0.1625    -3.9753    -0.0301 O.2     
   5 N5             1.3036    -2.0695    -0.0215 N.am    
   6 C6             2.5147    -2.7443     0.0682 C.ar    
   7 C7             3.7210    -2.0514    -0.0428 C.ar    
   8 C8             4.9021    -2.7634     0.0530 C.ar    
   9 N9             4.8554    -4.0725     0.2460 N.ar    
  10 C10            3.6946    -4.7050     0.3478 C.ar    
  11 N11            2.5411    -4.0577     0.2664 N.ar    
  12 S12            3.6854    -6.4482     0.6043 S.3     
  13 C13            5.4190    -6.7617     0.6374 C.ar    
  14 C14            6.1315    -6.7146     1.8356 C.ar    
  15 O15            5.4999    -6.4256     3.0005 O.3     
  16 C16            6.3014    -6.3971     4.1833 C.3     
  17 N17            7.4379    -6.9574     1.8194 N.ar    
  18 C18            8.0615    -7.2405     0.6879 C.ar    
  19 N19            7.4207    -7.2940    -0.4679 N.ar    
  20 C20            6.1126    -7.0689    -0.5331 C.ar    
  21 O21            5.4634    -7.1258    -1.7226 O.3     
  22 C22            6.2484    -7.4347    -2.8761 C.3     
  23 O23            9.3950    -7.4821     0.7134 O.3     
  24 C24           10.0237    -7.7833    -0.5340 C.3     
  25 H25           -2.2655    -3.8028    -0.0049 H       
  26 H26           -3.2229    -2.1960     0.0253 H       
  27 H27           -1.1524    -0.9621     0.0136 H       
  28 H28            1.2913    -1.1018    -0.0870 H       
  29 H29            3.7316    -0.9830    -0.2005 H       
  30 H30            5.8527    -2.2573    -0.0289 H       
  31 H31            5.6744    -6.1546     5.0413 H       
  32 H32            6.7614    -7.3737     4.3340 H       
  33 H33            7.0796    -5.6414     4.0767 H       
  34 H34            7.0233    -6.6784    -3.0013 H       
  35 H35            6.7123    -8.4127    -2.7486 H       
  36 H36            5.6082    -7.4484    -3.7582 H       
  37 H37            9.8908    -6.9462    -1.2193 H       
  38 H38           11.0879    -7.9551    -0.3724 H       
  39 H39            9.5720    -8.6783    -0.9618 H       
@<TRIPOS>BOND
   1    1    2 2
   2    1   25 1
   3    1   26 1
   4    2    3 1
   5    2   27 1
   6    3    4 2
   7    3    5 am
   8    5    6 1
   9    5   28 1
  10    6    7 ar
  11    6   11 ar
  12    7    8 ar
  13    7   29 1
  14    8    9 ar
  15    8   30 1
  16    9   10 ar
  17   10   11 ar
  18   10   12 1
  19   12   13 1
  20   13   14 ar
  21   13   20 ar
  22   14   15 1
  23   14   17 ar
  24   15   16 1
  25   16   31 1
  26   16   32 1
  27   16   33 1
  28   17   18 ar
  29   18   19 ar
  30   18   23 1
  31   19   20 ar
  32   20   21 1
  33   21   22 1
  34   22   34 1
  35   22   35 1
  36   22   36 1
  37   23   24 1
  38   24   37 1
  39   24   38 1
  40   24   39 1

#	End of record

