#	Name: ASD00840883
#	Creating user name:	WinNT
#	Creation time:	15. 06. 2019 18:40

#	Modifying user name:	WinNT
#	Modification time:	15. 06. 2019 18:40

#	Program:	/corina/corina34_cracker 3.40 0067  02.08.2006

@<TRIPOS>MOLECULE
ASD00840883
  90   95    0    0    0
SMALL
NO_CHARGES


@<TRIPOS>ATOM
   1 F1             6.0604    -1.9835    -1.9913 F       
   2 N2             1.0508     1.4385    -0.7562 N.ar    
   3 C3             1.3107     0.1457    -0.8568 C.ar    
   4 C4             1.2288    -0.6814     0.2563 C.ar    
   5 C5             0.8709    -0.1350     1.4762 C.ar    
   6 C6             0.6062     1.2263     1.5398 C.ar    
   7 C7             0.7071     1.9883     0.3932 C.ar    
   8 C8             1.5254    -2.1541     0.1368 C.3     
   9 C9             1.2345    -2.8614     1.4433 C.2     
  10 C10            0.7106    -2.7730    -1.0008 C.3     
  11 C11           -0.7513    -2.4716    -0.7932 C.2     
  12 N12           -1.6723    -2.9959    -1.6259 N.am    
  13 O13           -1.0991    -1.7573     0.1232 O.2     
  14 C14           -3.0919    -2.6299    -1.5081 C.3     
  15 C15           -3.5995    -2.1982    -2.8881 C.3     
  16 N16           -3.3097    -3.2558    -3.8656 N.3     
  17 C17           -1.8630    -3.4657    -4.0105 C.3     
  18 C18           -1.2834    -3.9446    -2.6805 C.3     
  19 C19           -3.9310    -2.9579    -5.1631 C.3     
  20 C20           -3.5064    -4.0133    -6.1880 C.3     
  21 C21           -4.2044    -3.7328    -7.5207 C.3     
  22 N22           -5.6599    -3.7681    -7.3294 N.3     
  23 C23           -6.0966    -2.7320    -6.3849 C.3     
  24 C24           -5.4551    -2.9825    -5.0182 C.3     
  25 C25           -6.3629    -3.6404    -8.6129 C.3     
  26 O26            0.1591    -2.9332     1.9996 O.2     
  27 N27            2.3912    -3.3951     1.8705 N.am    
  28 C28            3.0036    -2.3804    -0.0829 C.ar    
  29 C29            3.4490    -3.1313     0.9979 C.ar    
  30 C30            3.8706    -1.9959    -1.0809 C.ar    
  31 C31            5.2062    -2.3584    -1.0139 C.ar    
  32 C32            5.6630    -3.1077     0.0598 C.ar    
  33 C33            4.7925    -3.4934     1.0611 C.ar    
  34 F34            6.9649    -3.4622     0.1271 F       
  35 C35            2.2516    -5.9557     2.8698 C.ar    
  36 C36            0.9996    -6.3570     2.4275 C.ar    
  37 C37            3.2700    -6.8815     2.9899 C.ar    
  38 C38            3.0423    -8.2069     2.6693 C.ar    
  39 C39            1.7951    -8.6095     2.2282 C.ar    
  40 C40            0.7735    -7.6879     2.1068 C.ar    
  41 H41            1.6196    -9.6455     1.9783 H       
  42 O42           -0.0040    -5.4483     2.3090 O.3     
  43 C43           -1.2667    -5.9328     1.8477 C.3     
  44 C44           -2.2634    -4.7740     1.7791 C.3     
  45 O45            1.6602    -0.3779    -2.0587 O.3     
  46 C46            2.1536    -0.2288    -4.4198 C.3     
  47 C47            1.6179     0.4998    -3.1857 C.3     
  48 S48            2.5448    -4.2652     3.2711 S.o2    
  49 O49            3.9108    -4.1744     3.6521 O.2     
  50 O50            1.4743    -3.8614     4.1139 O.2     
  51 H51            0.7988    -0.7536     2.3586 H       
  52 H52            0.3239     1.6842     2.4763 H       
  53 H53            0.5026     3.0478     0.4373 H       
  54 H54            1.0368    -2.3523    -1.9519 H       
  55 H55            0.8613    -3.8525    -1.0101 H       
  56 H56           -3.6641    -3.4899    -1.1600 H       
  57 H57           -3.2001    -1.8051    -0.8037 H       
  58 H58           -4.6753    -2.0291    -2.8434 H       
  59 H59           -3.0984    -1.2780    -3.1884 H       
  60 H60           -1.6796    -4.2157    -4.7798 H       
  61 H61           -1.3861    -2.5278    -4.2953 H       
  62 H62           -0.1967    -3.9916    -2.7504 H       
  63 H63           -1.6808    -4.9311    -2.4419 H       
  64 H64           -3.6122    -1.9722    -5.5018 H       
  65 H65           -2.4261    -3.9716    -6.3271 H       
  66 H66           -3.7899    -5.0030    -5.8300 H       
  67 H67           -3.9098    -2.7486    -7.8850 H       
  68 H68           -3.9153    -4.4908    -8.2487 H       
  69 H69           -5.7931    -1.7525    -6.7545 H       
  70 H70           -7.1818    -2.7630    -6.2879 H       
  71 H71           -5.7692    -3.9561    -4.6418 H       
  72 H72           -5.7671    -2.2044    -4.3216 H       
  73 H73           -6.0764    -4.4635    -9.2676 H       
  74 H74           -7.4390    -3.6696    -8.4423 H       
  75 H75           -6.0948    -2.6934    -9.0814 H       
  76 H76            3.5100    -1.4126    -1.9153 H       
  77 H77            5.1547    -4.0767     1.8948 H       
  78 H78            4.2450    -6.5696     3.3342 H       
  79 H79            3.8399    -8.9289     2.7632 H       
  80 H80           -0.2007    -8.0030     1.7630 H       
  81 H81           -1.1481    -6.3692     0.8559 H       
  82 H82           -1.6384    -6.6915     2.5364 H       
  83 H83           -1.8917    -4.0153     1.0904 H       
  84 H84           -3.2266    -5.1435     1.4272 H       
  85 H85           -2.3820    -4.3376     2.7708 H       
  86 H86            3.1505    -0.6160    -4.2089 H       
  87 H87            1.4886    -1.0550    -4.6712 H       
  88 H88            2.2035     0.4656    -5.2585 H       
  89 H89            0.5889     0.8108    -3.3655 H       
  90 H90            2.2331     1.3772    -2.9861 H       
@<TRIPOS>BOND
   1    1   31 1
   2    2    3 ar
   3    2    7 ar
   4    3    4 ar
   5    3   45 1
   6    4    5 ar
   7    4    8 1
   8    5    6 ar
   9    5   51 1
  10    6    7 ar
  11    6   52 1
  12    7   53 1
  13    8    9 1
  14    8   10 1
  15    8   28 1
  16    9   26 2
  17    9   27 am
  18   10   11 1
  19   10   54 1
  20   10   55 1
  21   11   12 am
  22   11   13 2
  23   12   14 1
  24   12   18 1
  25   14   15 1
  26   14   56 1
  27   14   57 1
  28   15   16 1
  29   15   58 1
  30   15   59 1
  31   16   17 1
  32   16   19 1
  33   17   18 1
  34   17   60 1
  35   17   61 1
  36   18   62 1
  37   18   63 1
  38   19   20 1
  39   19   24 1
  40   19   64 1
  41   20   21 1
  42   20   65 1
  43   20   66 1
  44   21   22 1
  45   21   67 1
  46   21   68 1
  47   22   23 1
  48   22   25 1
  49   23   24 1
  50   23   69 1
  51   23   70 1
  52   24   71 1
  53   24   72 1
  54   25   73 1
  55   25   74 1
  56   25   75 1
  57   27   48 am
  58   27   29 1
  59   28   29 ar
  60   28   30 ar
  61   29   33 ar
  62   30   31 ar
  63   30   76 1
  64   31   32 ar
  65   32   33 ar
  66   32   34 1
  67   33   77 1
  68   35   36 ar
  69   35   37 ar
  70   35   48 1
  71   36   42 1
  72   36   40 ar
  73   37   38 ar
  74   37   78 1
  75   38   39 ar
  76   38   79 1
  77   39   40 ar
  78   39   41 1
  79   40   80 1
  80   42   43 1
  81   43   44 1
  82   43   81 1
  83   43   82 1
  84   44   83 1
  85   44   84 1
  86   44   85 1
  87   45   47 1
  88   46   47 1
  89   46   86 1
  90   46   87 1
  91   46   88 1
  92   47   89 1
  93   47   90 1
  94   48   49 2
  95   48   50 2

#	End of record

