#	Name: ASD01470015
#	Creating user name:	WinNT
#	Creation time:	15. 06. 2019 19:21

#	Modifying user name:	WinNT
#	Modification time:	15. 06. 2019 19:21

#	Program:	/corina/corina34_cracker 3.40 0067  02.08.2006

@<TRIPOS>MOLECULE
ASD01470015
  82   87    0    0    0
SMALL
NO_CHARGES


@<TRIPOS>ATOM
   1 N1            -0.8800     0.6472     1.1441 N.am    
   2 C2             0.4257     0.1043     0.7790 C.3     
   3 C3             1.0198    -0.7088     1.9377 C.3     
   4 C4             0.5289    -2.1482     1.9313 C.3     
   5 C5            -0.8767    -2.2551     1.3632 C.3     
   6 N6            -1.7903    -1.3494     2.0608 N.am    
   7 C7            -1.8168    -0.0339     1.7844 C.2     
   8 O8            -2.7975     0.5857     2.1485 O.2     
   9 C9            -2.6908    -1.8849     3.0847 C.3     
  10 C10           -1.1692     2.0373     0.7834 C.3     
  11 C11           -0.8131     2.9399     1.9365 C.ar    
  12 C12           -2.0370    -1.7714     4.4378 C.ar    
  13 C13           -2.1151    -0.5978     5.1298 C.ar    
  14 C14           -1.5080    -0.4937     6.3864 C.ar    
  15 C15           -0.8231    -1.6009     6.9231 C.ar    
  16 C16           -0.7605    -2.7858     6.1937 C.ar    
  17 C17           -1.3652    -2.8646     4.9714 C.ar    
  18 C18            0.4939     3.3536     2.1123 C.ar    
  19 C19            0.8206     4.1816     3.1702 C.ar    
  20 C20           -0.1599     4.5961     4.0517 C.ar    
  21 C21           -1.4675     4.1830     3.8754 C.ar    
  22 C22           -1.7949     3.3588     2.8153 C.ar    
  23 C23           -1.3960     0.5755     7.3732 C.2     
  24 N24           -0.7092     0.1170     8.3803 N.2     
  25 N25           -0.3395    -1.2113     8.1447 N.pl3   
  26 C26            0.2709    -0.8010    -0.4447 C.3     
  27 O27            2.4444    -0.7037     1.8258 O.3     
  28 C28            1.0792    -0.2432    -1.5877 C.ar    
  29 C29            2.3671    -0.6944    -1.8084 C.ar    
  30 C30            3.1086    -0.1827    -2.8568 C.ar    
  31 C31            2.5620     0.7798    -3.6849 C.ar    
  32 C32            1.2738     1.2303    -3.4648 C.ar    
  33 C33            0.5308     0.7155    -2.4190 C.ar    
  34 C34           -1.3755    -3.6930     1.5200 C.3     
  35 O35            0.5308    -2.6482     3.2700 O.3     
  36 C36           -0.5218    -4.6144     0.6874 C.ar    
  37 C37            0.5590    -5.2597     1.2586 C.ar    
  38 C38            1.3421    -6.1049     0.4948 C.ar    
  39 C39            1.0440    -6.3051    -0.8401 C.ar    
  40 C40           -0.0373    -5.6605    -1.4111 C.ar    
  41 C41           -0.8230    -4.8187    -0.6462 C.ar    
  42 C42           -2.5365     4.6346     4.8368 C.3     
  43 C43           -2.5694     3.6926     6.0420 C.3     
  44 O44           -2.2498     5.9631     5.2783 O.3     
  45 H45            1.0998     0.9249     0.5334 H       
  46 H46            0.7352    -0.2417     2.8805 H       
  47 H47            1.2046    -2.7524     1.3260 H       
  48 H48           -0.8563    -1.9988     0.3040 H       
  49 H49           -3.6218    -1.3180     3.0824 H       
  50 H50           -2.9027    -2.9324     2.8704 H       
  51 H51           -0.5810     2.3158    -0.0910 H       
  52 H52           -2.2301     2.1404     0.5555 H       
  53 H53           -2.6422     0.2461     4.7099 H       
  54 H54           -0.2378    -3.6414     6.5950 H       
  55 H55           -1.3144    -3.7855     4.4096 H       
  56 H56            1.2601     3.0297     1.4234 H       
  57 H57            1.8420     4.5043     3.3079 H       
  58 H58            0.0954     5.2423     4.8785 H       
  59 H59           -2.8163     3.0361     2.6775 H       
  60 H60           -1.8089     1.5695     7.2843 H       
  61 H61            0.1763    -1.7676     8.7492 H       
  62 H62            0.6265    -1.8026    -0.2029 H       
  63 H63           -0.7797    -0.8478    -0.7314 H       
  64 H64            2.8955    -1.1981     2.5238 H       
  65 H65            2.7941    -1.4464    -1.1614 H       
  66 H66            4.1150    -0.5347    -3.0288 H       
  67 H67            3.1416     1.1801    -4.5036 H       
  68 H68            0.8469     1.9826    -4.1116 H       
  69 H69           -0.4757     1.0675    -2.2470 H       
  70 H70           -1.3126    -3.9872     2.5677 H       
  71 H71           -2.4112    -3.7568     1.1863 H       
  72 H72            1.4013    -2.6417     3.6910 H       
  73 H73            0.7918    -5.1033     2.3015 H       
  74 H74            2.1869    -6.6085     0.9409 H       
  75 H75            1.6563    -6.9649    -1.4370 H       
  76 H76           -0.2700    -5.8167    -2.4541 H       
  77 H77           -1.6678    -4.3152    -1.0923 H       
  78 H78           -3.5050     4.6189     4.3369 H       
  79 H79           -1.6289     3.7679     6.5878 H       
  80 H80           -3.3938     3.9711     6.6985 H       
  81 H81           -2.7090     2.6676     5.6984 H       
  82 H82           -1.4480     6.0351     5.8140 H       
@<TRIPOS>BOND
   1    1    2 1
   2    1   10 1
   3    1    7 am
   4    2    3 1
   5    2   26 1
   6    2   45 1
   7    3    4 1
   8    3   27 1
   9    3   46 1
  10    4    5 1
  11    4   35 1
  12    4   47 1
  13    5    6 1
  14    5   34 1
  15    5   48 1
  16    6    7 am
  17    6    9 1
  18    7    8 2
  19    9   12 1
  20    9   49 1
  21    9   50 1
  22   10   11 1
  23   10   51 1
  24   10   52 1
  25   11   18 ar
  26   11   22 ar
  27   12   13 ar
  28   12   17 ar
  29   13   14 ar
  30   13   53 1
  31   14   15 ar
  32   14   23 1
  33   15   16 ar
  34   15   25 1
  35   16   17 ar
  36   16   54 1
  37   17   55 1
  38   18   19 ar
  39   18   56 1
  40   19   20 ar
  41   19   57 1
  42   20   21 ar
  43   20   58 1
  44   21   22 ar
  45   21   42 1
  46   22   59 1
  47   23   24 2
  48   23   60 1
  49   24   25 1
  50   25   61 1
  51   26   28 1
  52   26   62 1
  53   26   63 1
  54   27   64 1
  55   28   29 ar
  56   28   33 ar
  57   29   30 ar
  58   29   65 1
  59   30   31 ar
  60   30   66 1
  61   31   32 ar
  62   31   67 1
  63   32   33 ar
  64   32   68 1
  65   33   69 1
  66   34   36 1
  67   34   70 1
  68   34   71 1
  69   35   72 1
  70   36   37 ar
  71   36   41 ar
  72   37   38 ar
  73   37   73 1
  74   38   39 ar
  75   38   74 1
  76   39   40 ar
  77   39   75 1
  78   40   41 ar
  79   40   76 1
  80   41   77 1
  81   42   43 1
  82   42   44 1
  83   42   78 1
  84   43   79 1
  85   43   80 1
  86   43   81 1
  87   44   82 1

#	End of record

