#	Name: ASD09116136
#	Creating user name:	WinNT
#	Creation time:	15. 06. 2019 21:20

#	Modifying user name:	WinNT
#	Modification time:	15. 06. 2019 21:20

#	Program:	/corina/corina34_cracker 3.40 0067  02.08.2006

@<TRIPOS>MOLECULE
ASD09116136
  51   56    0    0    0
SMALL
NO_CHARGES


@<TRIPOS>ATOM
   1 N1            -0.0126     1.4650    -0.0426 N.2     
   2 C2            -0.0137     0.0093     0.1867 C.3     
   3 C3             1.2173     1.8649     0.1331 C.2     
   4 N4             2.0542     0.8573     0.4545 N.2     
   5 C5             1.4354    -0.2929     0.5157 C.2     
   6 N6             1.6189     3.1796     0.0037 N.pl3   
   7 C7             2.9746     3.5091     0.0981 C.ar    
   8 C8             3.9416     2.6076    -0.3209 C.ar    
   9 C9             3.3592     4.7433     0.6067 C.ar    
  10 C10            4.6980     5.0611     0.6943 C.ar    
  11 C11            5.6650     4.1569     0.2772 C.ar    
  12 C12            5.2857     2.9314    -0.2289 C.ar    
  13 N13            1.9771    -1.5047     0.8120 N.pl3   
  14 C14           -0.9074    -0.3454     1.3472 C.ar    
  15 N15           -0.8577     0.3902     2.4397 N.ar    
  16 N16           -1.7205    -1.3810     1.2362 N.ar    
  17 C17           -2.5109    -1.7130     2.2330 C.ar    
  18 C18           -2.4814    -0.9634     3.4046 C.ar    
  19 C19           -1.6271     0.1124     3.4848 C.ar    
  20 C20           -3.5444    -2.8216     2.4285 C.3     
  21 C21           -4.9159    -2.0743     2.4374 C.3     
  22 C22           -4.8816    -1.2408     3.7408 C.3     
  23 C23           -3.4921    -1.5782     4.3696 C.3     
  24 C24           -3.3653    -3.0944     3.9678 C.3     
  25 C25            7.1131     4.5583     0.3836 C.3     
  26 N26            7.9803     3.3787     0.3039 N.3     
  27 C27            7.6560     2.5875    -0.8937 C.3     
  28 C28            6.3014     1.9142    -0.6823 C.3     
  29 H29           -0.3251    -0.5215    -0.7129 H       
  30 H30            0.9606     3.8747    -0.1527 H       
  31 H31            3.6458     1.6488    -0.7203 H       
  32 H32            2.6119     5.4518     0.9321 H       
  33 H33            4.9964     6.0206     1.0900 H       
  34 H34            2.9245    -1.5778     1.0071 H       
  35 H35            1.4162    -2.2959     0.8283 H       
  36 H36           -1.5803     0.7145     4.3802 H       
  37 H37           -3.4663    -3.6769     1.7574 H       
  38 H38           -5.0007    -1.4215     1.5686 H       
  39 H39           -5.7395    -2.7879     2.4619 H       
  40 H40           -4.9507    -0.1765     3.5156 H       
  41 H41           -5.6873    -1.5439     4.4095 H       
  42 H42           -3.3665    -1.3283     5.4231 H       
  43 H43           -4.1725    -3.7011     4.3781 H       
  44 H44           -2.3840    -3.5056     4.2047 H       
  45 H45            7.3580     5.2405    -0.4304 H       
  46 H46            7.2777     5.0619     1.3362 H       
  47 H47            8.9536     3.6444     0.3090 H       
  48 H48            7.6033     3.2434    -1.7627 H       
  49 H49            8.4228     1.8287    -1.0500 H       
  50 H50            6.3975     1.1385     0.0775 H       
  51 H51            5.9715     1.4631    -1.6181 H       
@<TRIPOS>BOND
   1    1    2 1
   2    1    3 2
   3    2   14 1
   4    2    5 1
   5    2   29 1
   6    3    4 1
   7    3    6 1
   8    4    5 2
   9    5   13 1
  10    6    7 1
  11    6   30 1
  12    7    8 ar
  13    7    9 ar
  14    8   12 ar
  15    8   31 1
  16    9   10 ar
  17    9   32 1
  18   10   11 ar
  19   10   33 1
  20   11   12 ar
  21   11   25 1
  22   12   28 1
  23   13   34 1
  24   13   35 1
  25   14   15 ar
  26   14   16 ar
  27   15   19 ar
  28   16   17 ar
  29   17   18 ar
  30   17   20 1
  31   18   19 ar
  32   18   23 1
  33   19   36 1
  34   20   21 1
  35   20   24 1
  36   20   37 1
  37   21   22 1
  38   21   38 1
  39   21   39 1
  40   22   23 1
  41   22   40 1
  42   22   41 1
  43   23   24 1
  44   23   42 1
  45   24   43 1
  46   24   44 1
  47   25   26 1
  48   25   45 1
  49   25   46 1
  50   26   27 1
  51   26   47 1
  52   27   28 1
  53   27   48 1
  54   27   49 1
  55   28   50 1
  56   28   51 1

#	End of record

