#	Name: ASD01884866
#	Creating user name:	WinNT
#	Creation time:	15. 06. 2019 19:49

#	Modifying user name:	WinNT
#	Modification time:	15. 06. 2019 19:49

#	Program:	/corina/corina34_cracker 3.40 0067  02.08.2006

@<TRIPOS>MOLECULE
ASD01884866
  35   39    0    0    0
SMALL
NO_CHARGES


@<TRIPOS>ATOM
   1 C1            -0.0170     1.4011     0.0097 C.ar    
   2 C2             0.0021    -0.0041     0.0020 C.ar    
   3 C3            -1.2092    -0.7212     0.0093 C.ar    
   4 C4            -2.4131    -0.0262     0.0242 C.ar    
   5 C5            -2.4184     1.3587     0.0312 C.ar    
   6 C6            -1.2372     2.0700     0.0199 C.ar    
   7 C7            -1.2012    -2.2004     0.0008 C.2     
   8 C8            -1.5175    -2.8949    -1.1543 C.2     
   9 C9            -0.8640    -2.9212     1.1733 C.2     
  10 C10           -0.8570    -4.2668     1.1631 C.2     
  11 N11           -1.1731    -4.9603     0.0297 N.pl3   
  12 C12           -1.5009    -4.3005    -1.1301 C.2     
  13 Cl13          -1.9287    -2.0432    -2.6101 Cl      
  14 C14           -1.2472    -6.2876    -0.2645 C.2     
  15 N15           -1.6022    -6.3942    -1.5190 N.2     
  16 N16           -1.7542    -5.2280    -2.0409 N.2     
  17 C17           -0.9705    -7.4266     0.6828 C.3     
  18 N18            1.2936     1.8249    -0.0005 N.pl3   
  19 C19            2.1311     0.7438    -0.0143 C.2     
  20 C20            1.4117    -0.3914    -0.0135 C.2     
  21 H21            1.5798     2.7517     0.0018 H       
  22 C22           -2.1085    -8.4128     0.9533 C.3     
  23 C23           -0.9160    -8.8377     0.0940 C.3     
  24 H24           -3.3473    -0.5680     0.0299 H       
  25 H25           -3.3596     1.8882     0.0424 H       
  26 H26           -1.2591     3.1498     0.0260 H       
  27 H27           -0.6114    -2.3887     2.0783 H       
  28 H28           -0.5977    -4.8053     2.0626 H       
  29 H29           -0.2953    -7.1986     1.5076 H       
  30 H30            3.2099     0.7947    -0.0246 H       
  31 H31            1.8011    -1.3987    -0.0221 H       
  32 H32           -2.1818    -8.8340     1.9559 H       
  33 H33           -3.0573    -8.2379     0.4461 H       
  34 H34           -1.0803    -8.9423    -0.9785 H       
  35 H35           -0.2048    -9.5384     0.5314 H       
@<TRIPOS>BOND
   1    1    2 ar
   2    1   18 1
   3    1    6 ar
   4    2    3 ar
   5    2   20 1
   6    3    4 ar
   7    3    7 1
   8    4    5 ar
   9    4   24 1
  10    5    6 ar
  11    5   25 1
  12    6   26 1
  13    7    8 2
  14    7    9 1
  15    8   13 1
  16    8   12 1
  17    9   10 2
  18    9   27 1
  19   10   11 1
  20   10   28 1
  21   11   12 1
  22   11   14 1
  23   12   16 2
  24   14   15 2
  25   14   17 1
  26   15   16 1
  27   17   22 1
  28   17   23 1
  29   17   29 1
  30   18   19 1
  31   18   21 1
  32   19   20 2
  33   19   30 1
  34   20   31 1
  35   22   23 1
  36   22   32 1
  37   22   33 1
  38   23   34 1
  39   23   35 1

#	End of record

