#	Name: ASD03731806
#	Creating user name:	WinNT
#	Creation time:	15. 06. 2019 20:46

#	Modifying user name:	WinNT
#	Modification time:	15. 06. 2019 20:46

#	Program:	/corina/corina34_cracker 3.40 0067  02.08.2006

@<TRIPOS>MOLECULE
ASD03731806
  40   42    0    0    0
SMALL
NO_CHARGES


@<TRIPOS>ATOM
   1 C1             0.3585     1.1117     1.9321 C.2     
   2 C2             0.2788    -0.2691     1.4155 C.ar    
   3 C3             1.3651    -0.8248     0.7420 C.ar    
   4 C4             1.2846    -2.1279     0.2572 C.ar    
   5 C5             0.1095    -2.8722     0.4505 C.ar    
   6 C6            -0.9667    -2.3082     1.1231 C.ar    
   7 C7            -0.8849    -1.0215     1.6071 C.ar    
   8 O8             1.3717     1.7638     1.7700 O.2     
   9 N9            -0.6939     1.6511     2.5785 N.am    
  10 O10            0.0255    -4.1404    -0.0195 O.3     
  11 C11           -1.4153    -5.5521     1.1956 C.ar    
  12 C12           -1.1653    -4.7848     0.0930 C.ar    
  13 C13           -2.1193    -4.6539    -0.9210 C.ar    
  14 C14           -3.3203    -5.2866    -0.8368 C.ar    
  15 C15           -3.6110    -6.0844     0.2833 C.ar    
  16 C16           -4.8418    -6.7520     0.4024 C.ar    
  17 C17           -5.0901    -7.5165     1.5007 C.ar    
  18 C18           -4.1411    -7.6485     2.5129 C.ar    
  19 C19           -2.9384    -7.0170     2.4323 C.ar    
  20 C20           -2.6454    -6.2188     1.3127 C.ar    
  21 S21           -0.6046     3.1998     3.1580 S.o2    
  22 O22           -1.8609     3.4115     3.7874 O.2     
  23 O23            0.6032     3.2248     3.9063 O.2     
  24 C24           -0.4548     4.2308     1.6730 C.3     
  25 C25            2.3959    -2.7065    -0.4364 C.1     
  26 N26            3.2774    -3.1655    -0.9866 N.1     
  27 H27            2.2658    -0.2470     0.5963 H       
  28 H28           -1.8696    -2.8821     1.2705 H       
  29 H29           -1.7238    -0.5903     2.1332 H       
  30 H30           -1.5037     1.1321     2.7043 H       
  31 H31           -0.6691    -5.6490     1.9703 H       
  32 H32           -1.8994    -4.0414    -1.7829 H       
  33 H33           -4.0478    -5.1762    -1.6273 H       
  34 H34           -5.5871    -6.6586    -0.3736 H       
  35 H35           -6.0370    -8.0283     1.5894 H       
  36 H36           -4.3638    -8.2607     3.3743 H       
  37 H37           -2.2128    -7.1281     3.2245 H       
  38 H38           -1.3289     4.0834     1.0387 H       
  39 H39           -0.3894     5.2793     1.9637 H       
  40 H40            0.4439     3.9491     1.1243 H       
@<TRIPOS>BOND
   1    1    2 1
   2    1    8 2
   3    1    9 am
   4    2    3 ar
   5    2    7 ar
   6    3    4 ar
   7    3   27 1
   8    4    5 ar
   9    4   25 1
  10    5    6 ar
  11    5   10 1
  12    6    7 ar
  13    6   28 1
  14    7   29 1
  15    9   21 am
  16    9   30 1
  17   10   12 1
  18   11   12 ar
  19   11   20 ar
  20   11   31 1
  21   12   13 ar
  22   13   14 ar
  23   13   32 1
  24   14   15 ar
  25   14   33 1
  26   15   16 ar
  27   15   20 ar
  28   16   17 ar
  29   16   34 1
  30   17   18 ar
  31   17   35 1
  32   18   19 ar
  33   18   36 1
  34   19   20 ar
  35   19   37 1
  36   21   22 2
  37   21   23 2
  38   21   24 1
  39   24   38 1
  40   24   39 1
  41   24   40 1
  42   25   26 3

#	End of record

