#	Name: ASD02198406
#	Creating user name:	WinNT
#	Creation time:	15. 06. 2019 20:19

#	Modifying user name:	WinNT
#	Modification time:	15. 06. 2019 20:19

#	Program:	/corina/corina34_cracker 3.40 0067  02.08.2006

@<TRIPOS>MOLECULE
ASD02198406
  39   42    0    0    0
SMALL
NO_CHARGES


@<TRIPOS>ATOM
   1 C1            -0.2138     1.0693    -0.3401 C.2     
   2 C2            -0.1175    -0.2751    -0.3554 C.2     
   3 S3             1.3946     1.7705    -0.2168 S.3     
   4 C4             2.1242     0.1706    -0.1924 C.2     
   5 C5             1.1708    -0.7620    -0.2739 C.2     
   6 S6             3.8523    -0.1538    -0.0776 S.o2    
   7 N7             4.4428    -0.2175    -1.6234 N.am    
   8 C8             4.3260     0.8914    -2.4605 C.ar    
   9 C9             4.0868     0.7183    -3.8417 C.ar    
  10 C10            3.9721     1.8625    -4.6683 C.ar    
  11 C11            4.0975     3.1432    -4.1066 C.ar    
  12 C12            4.3285     3.2797    -2.7713 C.ar    
  13 C13            4.4374     2.1648    -1.9458 C.ar    
  14 N14            3.9690    -0.5014    -4.3729 N.ar    
  15 C15            3.7473    -0.6685    -5.6541 C.ar    
  16 C16            3.6243     0.4133    -6.5235 C.ar    
  17 C17            3.7335     1.6877    -6.0450 C.ar    
  18 O18            4.4362     0.9914     0.5281 O.2     
  19 O19            3.9799    -1.4650     0.4551 O.2     
  20 C20           -1.4753     1.8357    -0.4208 C.ar    
  21 C21           -1.4505     3.2310    -0.3956 C.ar    
  22 C22           -2.6958     1.1674    -0.5283 C.ar    
  23 C23           -3.8694     1.8886    -0.6037 C.ar    
  24 C24           -3.8383     3.2715    -0.5733 C.ar    
  25 C25           -2.6313     3.9403    -0.4718 C.ar    
  26 H26           -0.9808    -0.9203    -0.4257 H       
  27 H27            1.3924    -1.8190    -0.2758 H       
  28 H28            4.8699    -1.0262    -1.9465 H       
  29 H29            4.0112     4.0190    -4.7327 H       
  30 H30            4.4242     4.2679    -2.3462 H       
  31 H31            4.6205     2.2990    -0.8899 H       
  32 H32            3.6580    -1.6709    -6.0460 H       
  33 H33            3.4424     0.2442    -7.5745 H       
  34 H34            3.6405     2.5379    -6.7045 H       
  35 H35           -0.5090     3.7542    -0.3163 H       
  36 H36           -2.7214     0.0879    -0.5528 H       
  37 H37           -4.8146     1.3727    -0.6869 H       
  38 H38           -4.7598     3.8315    -0.6334 H       
  39 H39           -2.6139     5.0199    -0.4482 H       
@<TRIPOS>BOND
   1    1    2 2
   2    1    3 1
   3    1   20 1
   4    2    5 1
   5    2   26 1
   6    3    4 1
   7    4    5 2
   8    4    6 1
   9    5   27 1
  10    6    7 am
  11    6   18 2
  12    6   19 2
  13    7    8 1
  14    7   28 1
  15    8    9 ar
  16    8   13 ar
  17    9   10 ar
  18    9   14 ar
  19   10   11 ar
  20   10   17 ar
  21   11   12 ar
  22   11   29 1
  23   12   13 ar
  24   12   30 1
  25   13   31 1
  26   14   15 ar
  27   15   16 ar
  28   15   32 1
  29   16   17 ar
  30   16   33 1
  31   17   34 1
  32   20   21 ar
  33   20   22 ar
  34   21   25 ar
  35   21   35 1
  36   22   23 ar
  37   22   36 1
  38   23   24 ar
  39   23   37 1
  40   24   25 ar
  41   24   38 1
  42   25   39 1

#	End of record

