#	Name: ASD02198755
#	Creating user name:	WinNT
#	Creation time:	15. 06. 2019 20:20

#	Modifying user name:	WinNT
#	Modification time:	15. 06. 2019 20:20

#	Program:	/corina/corina34_cracker 3.40 0067  02.08.2006

@<TRIPOS>MOLECULE
ASD02198755
  50   54    0    0    0
SMALL
NO_CHARGES


@<TRIPOS>ATOM
   1 F1             3.4790    -1.8567     1.6764 F       
   2 C2             0.2762     1.4404     0.5994 C.2     
   3 C3             0.3148     0.1066     0.8453 C.2     
   4 N4             1.3407    -0.6515     0.3972 N.pl3   
   5 N5             2.3246    -0.1783    -0.2746 N.2     
   6 C6             2.4111     1.0980    -0.5828 C.2     
   7 C7             1.3422     2.0073    -0.1395 C.2     
   8 C8             1.3281    -2.0214     0.6815 C.ar    
   9 C9             2.4128    -2.6087     1.3258 C.ar    
  10 C10            2.3987    -3.9619     1.6063 C.ar    
  11 C11            1.3024    -4.7341     1.2451 C.ar    
  12 C12            0.2198    -4.1468     0.6018 C.ar    
  13 C13            0.2302    -2.7949     0.3258 C.ar    
  14 C14            3.5596     1.6086    -1.3585 C.2     
  15 N15            3.5007     2.3113    -2.5292 N.pl3   
  16 N16            4.8143     2.5972    -2.9216 N.2     
  17 C17            5.6371     2.0949    -2.0358 C.2     
  18 C18            4.8917     1.4713    -1.0352 C.2     
  19 C19            2.3355     2.6791    -3.2140 C.ar    
  20 C20            2.2444     3.9300    -3.8102 C.ar    
  21 C21            1.0941     4.2897    -4.4847 C.ar    
  22 C22            0.0338     3.4058    -4.5666 C.ar    
  23 C23            0.1212     2.1596    -3.9735 C.ar    
  24 C24            1.2712     1.7916    -3.3029 C.ar    
  25 O25            1.3733     3.2011    -0.3989 O.2     
  26 N26            1.2882    -6.1042     1.5287 N.am    
  27 C27            1.7933    -7.0349     0.5222 C.3     
  28 C28            2.1148    -8.3822     1.1725 C.3     
  29 O29            0.9943    -8.7864     1.9681 O.3     
  30 C30            0.7983    -7.9591     3.1176 C.3     
  31 C31            0.8174    -6.5111     2.7139 C.2     
  32 O32            0.3834    -5.6828     3.4864 O.2     
  33 H33           -0.5434     2.0489     0.9520 H       
  34 H34           -0.4840    -0.3554     1.4064 H       
  35 H35            3.2401    -4.4187     2.1060 H       
  36 H36           -0.6322    -4.7482     0.3209 H       
  37 H37           -0.6119    -2.3394    -0.1740 H       
  38 H38            6.7147     2.1569    -2.0717 H       
  39 H39            5.2879     0.9656    -0.1671 H       
  40 H40            3.0720     4.6209    -3.7463 H       
  41 H41            1.0225     5.2625    -4.9483 H       
  42 H42           -0.8647     3.6894    -5.0946 H       
  43 H43           -0.7088     1.4718    -4.0386 H       
  44 H44            1.3389     0.8182    -2.8399 H       
  45 H45            1.0380    -7.1771    -0.2507 H       
  46 H46            2.6975    -6.6253     0.0718 H       
  47 H47            2.3013    -9.1266     0.3985 H       
  48 H48            2.9959    -8.2814     1.8062 H       
  49 H49           -0.1614    -8.1974     3.5761 H       
  50 H50            1.5973    -8.1420     3.8361 H       
@<TRIPOS>BOND
   1    1    9 1
   2    2    3 2
   3    2    7 1
   4    2   33 1
   5    3    4 1
   6    3   34 1
   7    4    5 1
   8    4    8 1
   9    5    6 2
  10    6    7 1
  11    6   14 1
  12    7   25 2
  13    8    9 ar
  14    8   13 ar
  15    9   10 ar
  16   10   11 ar
  17   10   35 1
  18   11   12 ar
  19   11   26 1
  20   12   13 ar
  21   12   36 1
  22   13   37 1
  23   14   15 1
  24   14   18 2
  25   15   16 1
  26   15   19 1
  27   16   17 2
  28   17   18 1
  29   17   38 1
  30   18   39 1
  31   19   20 ar
  32   19   24 ar
  33   20   21 ar
  34   20   40 1
  35   21   22 ar
  36   21   41 1
  37   22   23 ar
  38   22   42 1
  39   23   24 ar
  40   23   43 1
  41   24   44 1
  42   26   27 1
  43   26   31 am
  44   27   28 1
  45   27   45 1
  46   27   46 1
  47   28   29 1
  48   28   47 1
  49   28   48 1
  50   29   30 1
  51   30   31 1
  52   30   49 1
  53   30   50 1
  54   31   32 2

#	End of record

