#	Name: ASD01560046
#	Creating user name:	WinNT
#	Creation time:	15. 06. 2019 19:22

#	Modifying user name:	WinNT
#	Modification time:	15. 06. 2019 19:22

#	Program:	/corina/corina34_cracker 3.40 0067  02.08.2006

@<TRIPOS>MOLECULE
ASD01560046
  41   44    0    0    0
SMALL
NO_CHARGES


@<TRIPOS>ATOM
   1 C1            -0.0184     1.5028     0.0103 C.3     
   2 C2             0.0021    -0.0041     0.0020 C.ar    
   3 C3             0.0229    -0.6993     1.1979 C.ar    
   4 C4             0.0416    -2.0790     1.1969 C.ar    
   5 C5             0.0396    -2.7727    -0.0132 C.ar    
   6 C6             0.0186    -2.0660    -1.2156 C.ar    
   7 C7            -0.0057    -0.6865    -1.2014 C.ar    
   8 C8             0.0602    -4.2538    -0.0214 C.2     
   9 C9             0.9454    -5.0802     0.6935 C.2     
  10 N10            0.6570    -6.3284     0.4348 N.2     
  11 N11           -0.4219    -6.3773    -0.4543 N.am    
  12 C12           -0.7972    -5.0884    -0.7336 C.2     
  13 N13           -1.8227    -4.8477    -1.5716 N.2     
  14 C14           -2.4730    -5.8469    -2.1293 C.2     
  15 S15           -3.8135    -5.5175    -3.2244 S.3     
  16 C16           -3.8148    -3.7079    -3.1841 C.3     
  17 C17           -4.9126    -3.1864    -4.0752 C.2     
  18 N18           -4.7662    -3.2156    -5.4365 N.am    
  19 C19           -5.7404    -2.7524    -6.2405 C.2     
  20 O20           -5.5894    -2.7875    -7.4464 O.2     
  21 N21           -6.8801    -2.2513    -5.7290 N.am    
  22 C22           -7.0634    -2.2047    -4.3940 C.2     
  23 O23           -8.0942    -1.7509    -3.9307 O.2     
  24 C24           -6.0480    -2.6931    -3.5354 C.2     
  25 Cl25          -6.2553    -2.6471    -1.8124 Cl      
  26 N26           -2.1120    -7.1449    -1.8626 N.am    
  27 C27           -1.0898    -7.4021    -1.0211 C.2     
  28 O28           -0.7670    -8.5496    -0.7828 O.2     
  29 H29            1.0042     1.8801     0.0026 H       
  30 H30           -0.5455     1.8639    -0.8728 H       
  31 H31           -0.5286     1.8543     0.9071 H       
  32 H32            0.0248    -0.1611     2.1342 H       
  33 H33            0.0582    -2.6207     2.1311 H       
  34 H34            0.0170    -2.5977    -2.1557 H       
  35 H35           -0.0224    -0.1383    -2.1317 H       
  36 H36            1.7338    -4.7396     1.3484 H       
  37 H37           -3.9834    -3.3673    -2.1625 H       
  38 H38           -2.8529    -3.3360    -3.5370 H       
  39 H39           -3.9523    -3.5732    -5.8246 H       
  40 H40           -7.5723    -1.9219    -6.3233 H       
  41 H41           -2.5950    -7.8772    -2.2766 H       
@<TRIPOS>BOND
   1    1    2 1
   2    1   29 1
   3    1   30 1
   4    1   31 1
   5    2    3 ar
   6    2    7 ar
   7    3    4 ar
   8    3   32 1
   9    4    5 ar
  10    4   33 1
  11    5    6 ar
  12    5    8 1
  13    6    7 ar
  14    6   34 1
  15    7   35 1
  16    8    9 1
  17    8   12 2
  18    9   10 2
  19    9   36 1
  20   10   11 1
  21   11   12 1
  22   11   27 am
  23   12   13 1
  24   13   14 2
  25   14   15 1
  26   14   26 1
  27   15   16 1
  28   16   17 1
  29   16   37 1
  30   16   38 1
  31   17   18 1
  32   17   24 2
  33   18   19 am
  34   18   39 1
  35   19   20 2
  36   19   21 am
  37   21   22 am
  38   21   40 1
  39   22   23 2
  40   22   24 1
  41   24   25 1
  42   26   27 am
  43   26   41 1
  44   27   28 2

#	End of record

