#	Name: ASD04590285
#	Creating user name:	WinNT
#	Creation time:	15. 06. 2019 20:50

#	Modifying user name:	WinNT
#	Modification time:	15. 06. 2019 20:50

#	Program:	/corina/corina34_cracker 3.40 0067  02.08.2006

@<TRIPOS>MOLECULE
ASD04590285
  40   43    0    0    0
SMALL
NO_CHARGES


@<TRIPOS>ATOM
   1 C1            -0.0169     1.3972     0.0097 C.ar    
   2 C2             0.0021    -0.0041     0.0020 C.ar    
   3 C3            -1.1615    -0.7117     0.0089 C.ar    
   4 C4            -2.3917    -0.0409     0.0242 C.ar    
   5 C5            -2.4175     1.3675     0.0325 C.ar    
   6 C6            -1.2328     2.0809     0.0308 C.ar    
   7 N7            -3.6715    -0.4631     0.0338 N.2     
   8 C8            -4.4808     0.5700     0.0473 C.2     
   9 N9            -3.7529     1.7281     0.0471 N.pl3   
  10 C10           -5.9557     0.4936     0.0611 C.2     
  11 C11           -6.7270    -0.6919     0.0625 C.2     
  12 C12           -8.0343    -0.3343     0.0769 C.2     
  13 N13           -8.0950     1.0233     0.0843 N.pl3   
  14 N14           -6.7852     1.5189     0.0800 N.2     
  15 N15           -6.2278    -2.0042     0.0507 N.am    
  16 C16           -7.0791    -3.0490     0.0537 C.2     
  17 C17           -6.5547    -4.4279     0.0412 C.ar    
  18 O18           -8.2796    -2.8552     0.0666 O.2     
  19 C19           -5.7954    -6.3813     1.2236 C.ar    
  20 C20           -5.5679    -7.0194     0.0179 C.ar    
  21 C21           -5.8247    -6.3707    -1.1764 C.ar    
  22 C22           -6.3166    -5.0791    -1.1739 C.ar    
  23 F23           -6.5671    -4.4474    -2.3416 F       
  24 C24           -6.2871    -5.0897     1.2445 C.ar    
  25 F25           -6.5082    -4.4679     2.4234 F       
  26 C26            1.2515     2.1509     0.0017 C.2     
  27 N27            2.4270     1.4917    -0.0131 N.am    
  28 O28            1.2363     3.3667     0.0083 O.2     
  29 H29            0.9470    -0.5269    -0.0098 H       
  30 H30           -1.1360    -1.7914     0.0021 H       
  31 H31           -1.2489     3.1607     0.0375 H       
  32 H32           -4.1063     2.6313     0.0555 H       
  33 H33           -8.8780    -1.0086     0.0811 H       
  34 H34           -8.9052     1.5566     0.0948 H       
  35 H35           -5.2703    -2.1588     0.0404 H       
  36 H36           -5.5922    -6.8951     2.1516 H       
  37 H37           -5.1836    -8.0287     0.0088 H       
  38 H38           -5.6438    -6.8763    -2.1134 H       
  39 H39            2.4391     0.5218    -0.0184 H       
  40 H40            3.2609     1.9872    -0.0184 H       
@<TRIPOS>BOND
   1    1    2 ar
   2    1   26 1
   3    1    6 ar
   4    2    3 ar
   5    2   29 1
   6    3    4 ar
   7    3   30 1
   8    4    5 ar
   9    4    7 1
  10    5    6 ar
  11    5    9 1
  12    6   31 1
  13    7    8 2
  14    8    9 1
  15    8   10 1
  16    9   32 1
  17   10   11 1
  18   10   14 2
  19   11   12 2
  20   11   15 1
  21   12   13 1
  22   12   33 1
  23   13   14 1
  24   13   34 1
  25   15   16 am
  26   15   35 1
  27   16   17 1
  28   16   18 2
  29   17   22 ar
  30   17   24 ar
  31   19   20 ar
  32   19   24 ar
  33   19   36 1
  34   20   21 ar
  35   20   37 1
  36   21   22 ar
  37   21   38 1
  38   22   23 1
  39   24   25 1
  40   26   27 am
  41   26   28 2
  42   27   39 1
  43   27   40 1

#	End of record

