#	Name: ASD01230092
#	Creating user name:	WinNT
#	Creation time:	15. 06. 2019 19:11

#	Modifying user name:	WinNT
#	Modification time:	15. 06. 2019 19:11

#	Program:	/corina/corina34_cracker 3.40 0067  02.08.2006

@<TRIPOS>MOLECULE
ASD01230092
  49   52    0    0    0
SMALL
NO_CHARGES


@<TRIPOS>ATOM
   1 C1            -0.0166     1.3746     0.0096 C.2     
   2 C2             0.0021    -0.0041     0.0020 C.2     
   3 C3            -1.3406    -0.4406     0.0125 C.2     
   4 N4            -2.1091     0.6141     0.0255 N.2     
   5 N5            -1.3051     1.7596     0.0298 N.pl3   
   6 C6            -1.7856     3.1435     0.0438 C.3     
   7 C7             1.1858     2.2831     0.0030 C.3     
   8 O8             1.5787     2.5630     1.3481 O.3     
   9 C9             2.6553     3.3742     1.5203 C.ar    
  10 C10            3.0916     3.6877     2.7993 C.ar    
  11 C11            4.1863     4.5126     2.9716 C.ar    
  12 C12            4.8470     5.0256     1.8707 C.ar    
  13 C13            4.4138     4.7150     0.5949 C.ar    
  14 C14            3.3234     3.8856     0.4172 C.ar    
  15 C15            1.2024    -0.8636    -0.0145 C.2     
  16 O16            2.4802    -0.4528    -0.0245 O.3     
  17 N17            3.2224    -1.4118    -0.0367 N.2     
  18 C18            2.5310    -2.5226    -0.0360 C.2     
  19 N19            1.2248    -2.1843    -0.0164 N.2     
  20 C20            3.0820    -3.9009    -0.0486 C.ar    
  21 C21            4.4602    -4.1027    -0.0623 C.ar    
  22 C22            2.2224    -4.9976    -0.0411 C.ar    
  23 C23            2.7400    -6.2768    -0.0529 C.ar    
  24 C24            4.1095    -6.4715    -0.0723 C.ar    
  25 C25            4.9672    -5.3866    -0.0741 C.ar    
  26 S26            6.7102    -5.6436    -0.0994 S.o2    
  27 N27            7.1742    -5.7012    -1.6880 N.am    
  28 O28            7.2967    -4.4706     0.4477 O.2     
  29 O29            6.9319    -6.9432     0.4308 O.2     
  30 C30            6.0408     5.9252     2.0616 C.3     
  31 F31            7.2053     5.1512     2.1074 F       
  32 F32            6.1213     6.8261     0.9943 F       
  33 F33            5.9041     6.6334     3.2603 F       
  34 H34           -1.6735    -1.4680     0.0098 H       
  35 H35           -1.8991     3.4783     1.0748 H       
  36 H36           -1.0669     3.7828    -0.4689 H       
  37 H37           -2.7484     3.1989    -0.4643 H       
  38 H38            2.0072     1.7948    -0.5213 H       
  39 H39            0.9343     3.2149    -0.5035 H       
  40 H40            2.5757     3.2875     3.6596 H       
  41 H41            4.5261     4.7572     3.9672 H       
  42 H42            4.9311     5.1175    -0.2635 H       
  43 H43            2.9855     3.6433    -0.5796 H       
  44 H44            5.1309    -3.2561    -0.0641 H       
  45 H45            1.1531    -4.8467    -0.0256 H       
  46 H46            2.0746    -7.1275    -0.0467 H       
  47 H47            4.5103    -7.4743    -0.0811 H       
  48 H48            6.5130    -5.5988    -2.3904 H       
  49 H49            8.1071    -5.8373    -1.9162 H       
@<TRIPOS>BOND
   1    1    2 2
   2    1    7 1
   3    1    5 1
   4    2    3 1
   5    2   15 1
   6    3    4 2
   7    3   34 1
   8    4    5 1
   9    5    6 1
  10    6   35 1
  11    6   36 1
  12    6   37 1
  13    7    8 1
  14    7   38 1
  15    7   39 1
  16    8    9 1
  17    9   10 ar
  18    9   14 ar
  19   10   11 ar
  20   10   40 1
  21   11   12 ar
  22   11   41 1
  23   12   30 1
  24   12   13 ar
  25   13   14 ar
  26   13   42 1
  27   14   43 1
  28   15   16 1
  29   15   19 2
  30   16   17 1
  31   17   18 2
  32   18   19 1
  33   18   20 1
  34   20   21 ar
  35   20   22 ar
  36   21   25 ar
  37   21   44 1
  38   22   23 ar
  39   22   45 1
  40   23   24 ar
  41   23   46 1
  42   24   25 ar
  43   24   47 1
  44   25   26 1
  45   26   27 am
  46   26   28 2
  47   26   29 2
  48   27   48 1
  49   27   49 1
  50   30   31 1
  51   30   32 1
  52   30   33 1

#	End of record

