#	Name: ASD02198684
#	Creating user name:	WinNT
#	Creation time:	15. 06. 2019 20:20

#	Modifying user name:	WinNT
#	Modification time:	15. 06. 2019 20:20

#	Program:	/corina/corina34_cracker 3.40 0067  02.08.2006

@<TRIPOS>MOLECULE
ASD02198684
  54   58    0    0    0
SMALL
NO_CHARGES


@<TRIPOS>ATOM
   1 C1            -0.0433     1.5016    -0.1150 C.2     
   2 C2            -0.0730     0.1619     0.0975 C.2     
   3 N3             1.0716    -0.5398     0.2598 N.pl3   
   4 N4             2.2360    -0.0050     0.2258 N.2     
   5 C5             2.4075     1.2845     0.0276 C.2     
   6 C6             1.2216     2.1356    -0.1605 C.2     
   7 C7             0.9802    -1.9176     0.4762 C.ar    
   8 C8             1.5830    -2.4882     1.5975 C.ar    
   9 C9             1.4923    -3.8515     1.8118 C.ar    
  10 C10            0.7975    -4.6529     0.9051 C.ar    
  11 C11            0.1960    -4.0762    -0.2156 C.ar    
  12 C12            0.2842    -2.7166    -0.4230 C.ar    
  13 C13            3.7644     1.8669    -0.0051 C.2     
  14 N14            4.3062     2.6070    -1.0182 N.pl3   
  15 N15            5.6080     2.9587    -0.6404 N.2     
  16 C16            5.8520     2.4591     0.5449 C.2     
  17 C17            4.7202     1.7713     0.9825 C.2     
  18 C18            3.6731     2.9517    -2.2191 C.ar    
  19 C19            3.8067     4.2349    -2.7328 C.ar    
  20 C20            3.1815     4.5715    -3.9174 C.ar    
  21 C21            2.4228     3.6324    -4.5917 C.ar    
  22 C22            2.2878     2.3537    -4.0828 C.ar    
  23 C23            2.9152     2.0092    -2.9015 C.ar    
  24 O24            1.3245     3.3387    -0.3483 O.2     
  25 C25            0.6986    -6.1097     1.1301 C.2     
  26 C26            0.0336    -6.5470     2.1794 C.2     
  27 C27            1.3557    -7.0419     0.1495 C.3     
  28 C28            1.4891    -8.4334     0.7745 C.3     
  29 O29            0.2281    -8.7939     1.3515 O.3     
  30 C30           -0.1132    -8.0089     2.4941 C.3     
  31 O31            2.2594    -1.7049     2.4785 O.3     
  32 C32            2.8515    -2.3565     3.6040 C.3     
  33 H33           -0.9547     2.0651    -0.2496 H       
  34 H34           -1.0228    -0.3506     0.1378 H       
  35 H35            1.9586    -4.2951     2.6791 H       
  36 H36           -0.3420    -4.6955    -0.9180 H       
  37 H37           -0.1819    -2.2723    -1.2900 H       
  38 H38            6.7756     2.5650     1.0945 H       
  39 H39            4.6145     1.2517     1.9234 H       
  40 H40            4.3985     4.9691    -2.2063 H       
  41 H41            3.2851     5.5694    -4.3174 H       
  42 H42            1.9344     3.8983    -5.5175 H       
  43 H43            1.6946     1.6225    -4.6117 H       
  44 H44            2.8096     1.0103    -2.5048 H       
  45 H45           -0.4243    -5.8259     2.8403 H       
  46 H46            0.7483    -7.1062    -0.7533 H       
  47 H47            2.3451    -6.6621    -0.1053 H       
  48 H48            1.7600    -9.1562     0.0050 H       
  49 H49            2.2549    -8.4148     1.5500 H       
  50 H50            0.5489    -8.2669     3.3207 H       
  51 H51           -1.1440    -8.2169     2.7808 H       
  52 H52            3.5722    -3.0972     3.2574 H       
  53 H53            3.3591    -1.6188     4.2254 H       
  54 H54            2.0749    -2.8507     4.1878 H       
@<TRIPOS>BOND
   1    1    2 2
   2    1    6 1
   3    1   33 1
   4    2    3 1
   5    2   34 1
   6    3    4 1
   7    3    7 1
   8    4    5 2
   9    5    6 1
  10    5   13 1
  11    6   24 2
  12    7    8 ar
  13    7   12 ar
  14    8    9 ar
  15    8   31 1
  16    9   10 ar
  17    9   35 1
  18   10   11 ar
  19   10   25 1
  20   11   12 ar
  21   11   36 1
  22   12   37 1
  23   13   14 1
  24   13   17 2
  25   14   15 1
  26   14   18 1
  27   15   16 2
  28   16   17 1
  29   16   38 1
  30   17   39 1
  31   18   19 ar
  32   18   23 ar
  33   19   20 ar
  34   19   40 1
  35   20   21 ar
  36   20   41 1
  37   21   22 ar
  38   21   42 1
  39   22   23 ar
  40   22   43 1
  41   23   44 1
  42   25   27 1
  43   25   26 2
  44   26   30 1
  45   26   45 1
  46   27   28 1
  47   27   46 1
  48   27   47 1
  49   28   29 1
  50   28   48 1
  51   28   49 1
  52   29   30 1
  53   30   50 1
  54   30   51 1
  55   31   32 1
  56   32   52 1
  57   32   53 1
  58   32   54 1

#	End of record

