#	Name: ASD02039470
#	Creating user name:	WinNT
#	Creation time:	15. 06. 2019 20:18

#	Modifying user name:	WinNT
#	Modification time:	15. 06. 2019 20:18

#	Program:	/corina/corina34_cracker 3.40 0067  02.08.2006

@<TRIPOS>MOLECULE
ASD02039470
  55   59    0    0    0
SMALL
NO_CHARGES


@<TRIPOS>ATOM
   1 C1             0.1328     1.1898     0.0648 C.ar    
   2 C2             0.4146    -0.1580     0.1955 C.ar    
   3 C3             1.2581     2.1905     0.0057 C.3     
   4 N4             1.7446     2.2975    -1.3720 N.am    
   5 C5             1.2826     3.2758    -2.1757 C.2     
   6 C6             0.2172     4.1764    -1.7023 C.2     
   7 C7            -0.4151     5.1348    -2.4391 C.2     
   8 N8            -0.3184     4.1999    -0.4551 N.2     
   9 C9            -1.2330     5.1249    -0.4071 C.2     
  10 N10           -1.3190     5.7254    -1.6226 N.pl3   
  11 O11            1.7453     3.4150    -3.2919 O.2     
  12 C12           -2.2266     6.8170    -1.9846 C.3     
  13 C13            2.7333     1.3411    -1.8760 C.3     
  14 C14           -0.6124    -1.0828     0.2496 C.ar    
  15 C15           -2.2159     0.6945     0.0314 C.ar    
  16 C16           -1.1763     1.6202    -0.0174 C.ar    
  17 C17           -3.6250     1.1515    -0.0565 C.2     
  18 C18           -4.3282     0.9699    -1.2073 C.2     
  19 N19           -5.6238     1.3855    -1.2992 N.pl3   
  20 C20           -6.2380     1.9924    -0.2347 C.2     
  21 C21           -5.5265     2.1895     0.9671 C.2     
  22 C22           -4.2382     1.7703     1.0576 C.2     
  23 C23           -1.9274    -0.6636     0.1730 C.ar    
  24 C24            2.3121     0.6515    -3.1844 C.3     
  25 C25            3.7731     0.7997    -3.6408 C.3     
  26 C26            3.8699     1.9956    -2.6789 C.3     
  27 F27           -2.9304    -1.5672     0.2254 F       
  28 C28           -6.5421     1.3293    -2.3127 C.2     
  29 C29           -7.6795     1.8943    -1.8520 C.2     
  30 N30           -7.4791     2.2905    -0.5929 N.2     
  31 C31           -8.9606     2.0517    -2.6299 C.3     
  32 H32            1.4406    -0.4896     0.2553 H       
  33 H33            0.8972     3.1631     0.3402 H       
  34 H34            2.0708     1.8621     0.6536 H       
  35 H35           -0.2297     5.3763    -3.4753 H       
  36 H36           -1.8295     5.3727     0.4585 H       
  37 H37           -1.7426     7.7731    -1.7855 H       
  38 H38           -2.4732     6.7482    -3.0441 H       
  39 H39           -3.1393     6.7417    -1.3935 H       
  40 H40            3.0810     0.6484    -1.1096 H       
  41 H41           -0.3866    -2.1340     0.3513 H       
  42 H42           -1.3938     2.6724    -0.1265 H       
  43 H43           -3.8567     0.4935    -2.0541 H       
  44 H44           -6.0038     2.6669     1.8100 H       
  45 H45           -3.6828     1.9151     1.9725 H       
  46 H46            1.9992    -0.3840    -3.0510 H       
  47 H47            1.6079     1.2345    -3.7781 H       
  48 H48            4.4064    -0.0409    -3.3575 H       
  49 H49            3.8769     1.0742    -4.6906 H       
  50 H50            3.5916     2.9460    -3.1344 H       
  51 H51            4.8146     2.0451    -2.1375 H       
  52 H52           -6.3866     0.9115    -3.2964 H       
  53 H53           -9.5877     1.1730    -2.4787 H       
  54 H54           -9.4894     2.9395    -2.2831 H       
  55 H55           -8.7313     2.1564    -3.6903 H       
@<TRIPOS>BOND
   1    1    2 ar
   2    1    3 1
   3    1   16 ar
   4    2   14 ar
   5    2   32 1
   6    3    4 1
   7    3   33 1
   8    3   34 1
   9    4    5 am
  10    4   13 1
  11    5    6 1
  12    5   11 2
  13    6    7 2
  14    6    8 1
  15    7   10 1
  16    7   35 1
  17    8    9 2
  18    9   10 1
  19    9   36 1
  20   10   12 1
  21   12   37 1
  22   12   38 1
  23   12   39 1
  24   13   24 1
  25   13   26 1
  26   13   40 1
  27   14   23 ar
  28   14   41 1
  29   15   16 ar
  30   15   17 1
  31   15   23 ar
  32   16   42 1
  33   17   18 2
  34   17   22 1
  35   18   19 1
  36   18   43 1
  37   19   20 1
  38   19   28 1
  39   20   21 1
  40   20   30 2
  41   21   22 2
  42   21   44 1
  43   22   45 1
  44   23   27 1
  45   24   25 1
  46   24   46 1
  47   24   47 1
  48   25   26 1
  49   25   48 1
  50   25   49 1
  51   26   50 1
  52   26   51 1
  53   28   29 2
  54   28   52 1
  55   29   30 1
  56   29   31 1
  57   31   53 1
  58   31   54 1
  59   31   55 1

#	End of record

