#	Name: ASD01148145
#	Creating user name:	WinNT
#	Creation time:	15. 06. 2019 19:02

#	Modifying user name:	WinNT
#	Modification time:	15. 06. 2019 19:02

#	Program:	/corina/corina34_cracker 3.40 0067  02.08.2006

@<TRIPOS>MOLECULE
ASD01148145
  58   60    0    0    0
SMALL
NO_CHARGES


@<TRIPOS>ATOM
   1 C1            -0.0191     1.3920     0.0164 C.ar    
   2 C2            -0.0048    -0.0002     0.0154 C.ar    
   3 N3            -1.1191    -0.6997     0.0281 N.ar    
   4 C4            -2.3120    -0.1175     0.0429 C.ar    
   5 C5            -2.4029     1.2857     0.0453 C.ar    
   6 C6            -1.2392     2.0561     0.0375 C.ar    
   7 N7            -3.4572    -0.8815     0.0554 N.pl3   
   8 C8            -4.6867    -0.3506     0.0702 C.2     
   9 C9            -4.9013     1.0127     0.0740 C.2     
  10 C10           -3.7363     1.9131     0.0619 C.2     
  11 C11           -6.2671     1.5556     0.0895 C.2     
  12 O12           -6.4621     2.8895     0.0931 O.3     
  13 C13           -7.8376     3.3545     0.1085 C.3     
  14 O14           -7.2207     0.8019     0.0990 O.2     
  15 O15           -3.8689     3.1244     0.0650 O.2     
  16 C16           -3.3251    -2.3405     0.0520 C.3     
  17 N17            1.1808     2.1134     0.0021 N.am    
  18 C18            1.2554     3.2839    -0.6618 C.2     
  19 C19           -3.2621    -2.8503     1.4932 C.3     
  20 C20           -7.8588     4.8843     0.1104 C.3     
  21 C21            2.4809     4.1023    -0.5793 C.ar    
  22 O22            0.3132     3.6658    -1.3289 O.2     
  23 C23            2.5596     5.3158    -1.2670 C.ar    
  24 C24            3.7085     6.0804    -1.1881 C.ar    
  25 C25            4.7869     5.6418    -0.4244 C.ar    
  26 C26            4.7110     4.4328     0.2620 C.ar    
  27 C27            3.5621     3.6675     0.1914 C.ar    
  28 O28            3.7858     7.2618    -1.8574 O.3     
  29 C29            2.6427     7.6503    -2.6219 C.3     
  30 O30            5.9156     6.3948    -0.3491 O.3     
  31 C31            5.9822     7.3607     0.7019 C.3     
  32 O32            5.7662     4.0072     1.0072 O.3     
  33 C33            5.6197     2.7577     1.6849 C.3     
  34 H34            0.9429    -0.5179     0.0036 H       
  35 H35           -1.2858     3.1351     0.0395 H       
  36 H36           -5.5401    -1.0124     0.0791 H       
  37 H37           -8.3560     2.9850    -0.7763 H       
  38 H38           -8.3366     2.9831     1.0036 H       
  39 H39           -4.1847    -2.7820    -0.4523 H       
  40 H40           -2.4121    -2.6214    -0.4730 H       
  41 H41            1.9583     1.7708     0.4701 H       
  42 H42           -3.1638    -3.9359     1.4906 H       
  43 H43           -2.4025    -2.4088     1.9975 H       
  44 H44           -4.1751    -2.5694     2.0182 H       
  45 H45           -7.3597     5.2557    -0.7846 H       
  46 H46           -8.8913     5.2334     0.1221 H       
  47 H47           -7.3403     5.2538     0.9953 H       
  48 H48            1.7236     5.6561    -1.8601 H       
  49 H49            3.5036     2.7299     0.7243 H       
  50 H50            2.4405     6.8957    -3.3820 H       
  51 H51            1.7793     7.7428    -1.9631 H       
  52 H52            2.8364     8.6086    -3.1037 H       
  53 H53            5.1626     8.0713     0.5948 H       
  54 H54            5.9020     6.8561     1.6647 H       
  55 H55            6.9327     7.8915     0.6479 H       
  56 H56            5.4386     1.9679     0.9558 H       
  57 H57            6.5310     2.5369     2.2408 H       
  58 H58            4.7780     2.8151     2.3750 H       
@<TRIPOS>BOND
   1    1    2 ar
   2    1   17 1
   3    1    6 ar
   4    2    3 ar
   5    2   34 1
   6    3    4 ar
   7    4    5 ar
   8    4    7 1
   9    5    6 ar
  10    5   10 1
  11    6   35 1
  12    7    8 1
  13    7   16 1
  14    8    9 2
  15    8   36 1
  16    9   10 1
  17    9   11 1
  18   10   15 2
  19   11   12 1
  20   11   14 2
  21   12   13 1
  22   13   20 1
  23   13   37 1
  24   13   38 1
  25   16   19 1
  26   16   39 1
  27   16   40 1
  28   17   18 am
  29   17   41 1
  30   18   21 1
  31   18   22 2
  32   19   42 1
  33   19   43 1
  34   19   44 1
  35   20   45 1
  36   20   46 1
  37   20   47 1
  38   21   23 ar
  39   21   27 ar
  40   23   24 ar
  41   23   48 1
  42   24   25 ar
  43   24   28 1
  44   25   26 ar
  45   25   30 1
  46   26   27 ar
  47   26   32 1
  48   27   49 1
  49   28   29 1
  50   29   50 1
  51   29   51 1
  52   29   52 1
  53   30   31 1
  54   31   53 1
  55   31   54 1
  56   31   55 1
  57   32   33 1
  58   33   56 1
  59   33   57 1
  60   33   58 1

#	End of record

