#	Name: ASD03240259
#	Creating user name:	WinNT
#	Creation time:	15. 06. 2019 20:34

#	Modifying user name:	WinNT
#	Modification time:	15. 06. 2019 20:34

#	Program:	/corina/corina34_cracker 3.40 0067  02.08.2006

@<TRIPOS>MOLECULE
ASD03240259
  28   30    0    0    0
SMALL
NO_CHARGES


@<TRIPOS>ATOM
   1 N1            -0.0161     1.3396     0.0094 N.am    
   2 C2             0.0021    -0.0041     0.0020 C.2     
   3 C3             1.2072    -0.7291    -0.0129 C.2     
   4 C4             2.4063    -0.0676    -0.0207 C.2     
   5 C5             2.3915     1.4041    -0.0132 C.ar    
   6 C6             3.5789     2.1386    -0.0210 C.ar    
   7 C7             3.5311     3.5046    -0.0141 C.ar    
   8 C8             2.3119     4.1676     0.0010 C.ar    
   9 C9             1.1281     3.4618     0.0094 C.ar    
  10 C10            1.1539     2.0709     0.0022 C.ar    
  11 O11           -1.0552    -0.6114     0.0088 O.2     
  12 C12            3.6843    -0.8134    -0.0359 C.ar    
  13 C13            4.0224    -1.6020    -1.1366 C.ar    
  14 C14            5.2156    -2.2944    -1.1447 C.ar    
  15 C15            6.0761    -2.2087    -0.0646 C.ar    
  16 C16            5.7467    -1.4286     1.0297 C.ar    
  17 C17            4.5592    -0.7266     1.0479 C.ar    
  18 H18           -0.8677     1.8041     0.0159 H       
  19 H19            1.1869    -1.8089    -0.0178 H       
  20 H20            4.5313     1.6295    -0.0321 H       
  21 H21            4.4496     4.0727    -0.0202 H       
  22 H22            2.2906     5.2474     0.0067 H       
  23 H23            0.1842     3.9865     0.0219 H       
  24 H24            3.3513    -1.6702    -1.9800 H       
  25 H25            5.4785    -2.9050    -1.9959 H       
  26 H26            7.0086    -2.7533    -0.0755 H       
  27 H27            6.4227    -1.3659     1.8697 H       
  28 H28            4.3053    -0.1146     1.9007 H       
@<TRIPOS>BOND
   1    1    2 am
   2    1   10 1
   3    1   18 1
   4    2    3 1
   5    2   11 2
   6    3    4 2
   7    3   19 1
   8    4    5 1
   9    4   12 1
  10    5    6 ar
  11    5   10 ar
  12    6    7 ar
  13    6   20 1
  14    7    8 ar
  15    7   21 1
  16    8    9 ar
  17    8   22 1
  18    9   10 ar
  19    9   23 1
  20   12   13 ar
  21   12   17 ar
  22   13   14 ar
  23   13   24 1
  24   14   15 ar
  25   14   25 1
  26   15   16 ar
  27   15   26 1
  28   16   17 ar
  29   16   27 1
  30   17   28 1

#	End of record

