#	Name: ASD03092778
#	Creating user name:	WinNT
#	Creation time:	15. 06. 2019 20:33

#	Modifying user name:	WinNT
#	Modification time:	15. 06. 2019 20:33

#	Program:	/corina/corina34_cracker 3.40 0067  02.08.2006

@<TRIPOS>MOLECULE
ASD03092778
  66   69    0    0    0
SMALL
NO_CHARGES


@<TRIPOS>ATOM
   1 C1            -0.5109     1.7345     1.1350 C.3     
   2 C2            -0.3793     0.2380     0.8451 C.3     
   3 C3             0.5602    -0.3866     1.8443 C.2     
   4 O4             1.0741     0.2982     2.7042 O.2     
   5 C5             0.8529    -1.8203     1.7775 C.2     
   6 C6             0.3255    -2.7825     0.8053 C.2     
   7 C7             0.8660    -3.9854     1.1271 C.2     
   8 C8             0.6176    -5.2586     0.4167 C.ar    
   9 C9             1.5350    -6.3059     0.5078 C.ar    
  10 C10            1.2929    -7.4841    -0.1617 C.ar    
  11 C11            0.1421    -7.6450    -0.9262 C.ar    
  12 C12           -0.7704    -6.6152    -1.0138 C.ar    
  13 C13           -2.0452    -6.7325    -1.8115 C.3     
  14 N14           -1.9984    -7.9394    -2.6436 N.am    
  15 C15           -1.5063    -9.1758    -2.0136 C.3     
  16 C16           -0.0413    -8.9602    -1.6378 C.3     
  17 C17            0.8106    -8.9677    -2.9087 C.3     
  18 C18            0.4154   -10.0965    -0.7206 C.3     
  19 C19           -2.3905    -7.9177    -3.9329 C.2     
  20 C20           -2.9936    -6.6658    -4.5160 C.3     
  21 O21           -2.2579    -8.9056    -4.6237 O.2     
  22 C22           -0.5370    -5.4247    -0.3447 C.ar    
  23 N23            1.6820    -3.8259     2.2217 N.pl3   
  24 C24            1.6878    -2.5382     2.6159 C.2     
  25 C25            2.4683    -1.9751     3.7755 C.3     
  26 C26            2.4085    -4.8546     2.8356 C.ar    
  27 C27            1.7424    -5.8786     3.4956 C.ar    
  28 C28            2.4615    -6.8913     4.0999 C.ar    
  29 C29            3.8433    -6.8857     4.0484 C.ar    
  30 C30            4.5095    -5.8673     3.3919 C.ar    
  31 C31            3.7959    -4.8551     2.7804 C.ar    
  32 S32            4.7571    -8.1788     4.8215 S.o2    
  33 N33            4.9647    -9.3740     3.6943 N.am    
  34 O34            6.0491    -7.6519     5.0902 O.2     
  35 O35            3.9133    -8.7195     5.8290 O.2     
  36 H36            0.4683     2.2070     1.0578 H       
  37 H37           -1.1904     2.1862     0.4123 H       
  38 H38           -0.9044     1.8763     2.1416 H       
  39 H39           -1.3584    -0.2346     0.9223 H       
  40 H40            0.0142     0.0962    -0.1615 H       
  41 H41           -0.3575    -2.5756    -0.0053 H       
  42 H42            2.4308    -6.1927     1.1004 H       
  43 H43            2.0051    -8.2930    -0.0928 H       
  44 H44           -2.8945    -6.7938    -1.1311 H       
  45 H45           -2.1554    -5.8559    -2.4500 H       
  46 H46           -2.0890    -9.3905    -1.1179 H       
  47 H47           -1.5886   -10.0055    -2.7157 H       
  48 H48            1.8599    -8.8385    -2.6435 H       
  49 H49            0.6812    -9.9177    -3.4272 H       
  50 H50            0.4976    -8.1523    -3.5607 H       
  51 H51           -0.1803   -10.0883     0.1922 H       
  52 H52            0.2845   -11.0505    -1.2313 H       
  53 H53            1.4672    -9.9602    -0.4692 H       
  54 H54           -3.1157    -5.9210    -3.7296 H       
  55 H55           -2.3354    -6.2720    -5.2904 H       
  56 H56           -3.9660    -6.8990    -4.9497 H       
  57 H57           -1.2525    -4.6189    -0.4174 H       
  58 H58            1.8642    -2.0304     4.6811 H       
  59 H59            3.3825    -2.5526     3.9128 H       
  60 H60            2.7227    -0.9351     3.5713 H       
  61 H61            0.6632    -5.8831     3.5367 H       
  62 H62            1.9440    -7.6881     4.6134 H       
  63 H63            5.5889    -5.8657     3.3534 H       
  64 H64            4.3167    -4.0625     2.2636 H       
  65 H65            4.6020    -9.2666     2.8011 H       
  66 H66            5.4489   -10.1816     3.9272 H       
@<TRIPOS>BOND
   1    1    2 1
   2    1   36 1
   3    1   37 1
   4    1   38 1
   5    2    3 1
   6    2   39 1
   7    2   40 1
   8    3    4 2
   9    3    5 1
  10    5   24 2
  11    5    6 1
  12    6    7 2
  13    6   41 1
  14    7    8 1
  15    7   23 1
  16    8   22 ar
  17    8    9 ar
  18    9   10 ar
  19    9   42 1
  20   10   11 ar
  21   10   43 1
  22   11   16 1
  23   11   12 ar
  24   12   13 1
  25   12   22 ar
  26   13   14 1
  27   13   44 1
  28   13   45 1
  29   14   15 1
  30   14   19 am
  31   15   16 1
  32   15   46 1
  33   15   47 1
  34   16   17 1
  35   16   18 1
  36   17   48 1
  37   17   49 1
  38   17   50 1
  39   18   51 1
  40   18   52 1
  41   18   53 1
  42   19   20 1
  43   19   21 2
  44   20   54 1
  45   20   55 1
  46   20   56 1
  47   22   57 1
  48   23   24 1
  49   23   26 1
  50   24   25 1
  51   25   58 1
  52   25   59 1
  53   25   60 1
  54   26   31 ar
  55   26   27 ar
  56   27   28 ar
  57   27   61 1
  58   28   29 ar
  59   28   62 1
  60   29   30 ar
  61   29   32 1
  62   30   31 ar
  63   30   63 1
  64   31   64 1
  65   32   33 am
  66   32   34 2
  67   32   35 2
  68   33   65 1
  69   33   66 1

#	End of record

