#	Name: ASD09740289
#	Creating user name:	WinNT
#	Creation time:	15. 06. 2019 21:23

#	Modifying user name:	WinNT
#	Modification time:	15. 06. 2019 21:23

#	Program:	/corina/corina34_cracker 3.40 0067  02.08.2006

@<TRIPOS>MOLECULE
ASD09740289
  44   46    0    0    0
SMALL
NO_CHARGES


@<TRIPOS>ATOM
   1 N1            -0.0144     1.2085     0.0087 N.2     
   2 O2             0.0021    -0.0041     0.0020 O.3     
   3 C3             1.2060     1.6802    -0.0004 C.2     
   4 N4             2.0461     0.6244    -0.0141 N.2     
   5 C5             1.2702    -0.4440    -0.0125 C.2     
   6 C6             1.7127    -1.8530    -0.0238 C.ar    
   7 C7             1.5948     3.1129     0.0035 C.ar    
   8 C8             0.6150     4.1029     0.0187 C.ar    
   9 C9             0.9820     5.4337     0.0229 C.ar    
  10 C10            2.3197     5.7846     0.0115 C.ar    
  11 C11            3.2968     4.8054    -0.0036 C.ar    
  12 C12            2.9410     3.4721    -0.0021 C.ar    
  13 C13            0.7693    -2.8829    -0.0204 C.ar    
  14 C14            1.1884    -4.1997    -0.0310 C.ar    
  15 C15            2.5497    -4.4975    -0.0451 C.ar    
  16 C16            3.4869    -3.4740    -0.0485 C.ar    
  17 C17            3.0753    -2.1583    -0.0438 C.ar    
  18 O18            0.2725    -5.2050    -0.0273 O.3     
  19 C19           -1.1056    -4.8269    -0.0122 C.3     
  20 C20           -1.9790    -6.0831    -0.0101 C.3     
  21 O21            2.9603    -5.7926    -0.0551 O.3     
  22 C22            4.3700    -6.0262    -0.0693 C.3     
  23 C23            4.6372    -7.5326    -0.0790 C.3     
  24 C24           -0.8430     3.7219     0.0302 C.3     
  25 H25            0.2232     6.2021     0.0346 H       
  26 H26            2.6025     6.8270     0.0140 H       
  27 H27            4.3399     5.0850    -0.0128 H       
  28 H28            3.7046     2.7084    -0.0135 H       
  29 H29           -0.2854    -2.6507    -0.0091 H       
  30 H30            4.5410    -3.7087    -0.0594 H       
  31 H31            3.8067    -1.3637    -0.0468 H       
  32 H32           -1.3114    -4.2398     0.8828 H       
  33 H33           -1.3285    -4.2308    -0.8971 H       
  34 H34           -1.7731    -6.6703    -0.9050 H       
  35 H35           -1.7561    -6.6792     0.8748 H       
  36 H36           -3.0301    -5.7948     0.0014 H       
  37 H37            4.8041    -5.5744    -0.9612 H       
  38 H38            4.8207    -5.5829     0.8186 H       
  39 H39            4.2031    -7.9844     0.8130 H       
  40 H40            4.1865    -7.9759    -0.9669 H       
  41 H41            5.7125    -7.7108    -0.0898 H       
  42 H42           -1.1849     3.6239     1.0605 H       
  43 H43           -1.4243     4.4943    -0.4736 H       
  44 H44           -0.9744     2.7721    -0.4882 H       
@<TRIPOS>BOND
   1    1    2 1
   2    1    3 2
   3    2    5 1
   4    3    4 1
   5    3    7 1
   6    4    5 2
   7    5    6 1
   8    6   13 ar
   9    6   17 ar
  10    7    8 ar
  11    7   12 ar
  12    8    9 ar
  13    8   24 1
  14    9   10 ar
  15    9   25 1
  16   10   11 ar
  17   10   26 1
  18   11   12 ar
  19   11   27 1
  20   12   28 1
  21   13   14 ar
  22   13   29 1
  23   14   15 ar
  24   14   18 1
  25   15   16 ar
  26   15   21 1
  27   16   17 ar
  28   16   30 1
  29   17   31 1
  30   18   19 1
  31   19   20 1
  32   19   32 1
  33   19   33 1
  34   20   34 1
  35   20   35 1
  36   20   36 1
  37   21   22 1
  38   22   23 1
  39   22   37 1
  40   22   38 1
  41   23   39 1
  42   23   40 1
  43   23   41 1
  44   24   42 1
  45   24   43 1
  46   24   44 1

#	End of record

