#	Name: ASD01840484
#	Creating user name:	WinNT
#	Creation time:	15. 06. 2019 19:37

#	Modifying user name:	WinNT
#	Modification time:	15. 06. 2019 19:37

#	Program:	/corina/corina34_cracker 3.40 0067  02.08.2006

@<TRIPOS>MOLECULE
ASD01840484
  50   53    0    0    0
SMALL
NO_CHARGES


@<TRIPOS>ATOM
   1 C1             1.7143     1.1294    -2.0487 C.ar    
   2 C2             2.1806    -0.0393    -2.6095 C.ar    
   3 N3             3.3921    -0.4804    -2.3175 N.ar    
   4 N4             4.1785     0.1386    -1.5183 N.ar    
   5 C5             2.5667     1.8282    -1.1637 C.ar    
   6 C6             2.3505     3.0645    -0.4352 C.2     
   7 C7             3.8327     1.2799    -0.9179 C.ar    
   8 S8             4.7240     2.3009     0.2017 S.3     
   9 C9             3.4020     3.4444     0.3322 C.2     
  10 C10            0.3383     1.6508    -2.3740 C.3     
  11 C11            1.3065    -0.8178    -3.5587 C.3     
  12 N12            1.1720     3.7937    -0.5170 N.pl3   
  13 C13            3.4300     4.6504     1.1585 C.2     
  14 O14            2.4640     5.3909     1.1878 O.2     
  15 N15            4.5252     4.9424     1.8878 N.am    
  16 C16            4.9294     6.0161     2.8079 C.3     
  17 C17            5.8394     4.3240     2.1187 C.3     
  18 C18            6.3856     5.7304     2.4153 C.3     
  19 O19            6.8324     6.4454     1.2616 O.3     
  20 C20            7.3574     5.7827     3.5659 C.ar    
  21 C21            8.1395     6.0751     0.8184 C.3     
  22 C22            7.4703     6.9371     4.3275 C.ar    
  23 C23            8.3658     6.9821     5.3858 C.ar    
  24 C24            9.1429     5.8780     5.6792 C.ar    
  25 C25            9.0289     4.7292     4.9186 C.ar    
  26 C26            8.1325     4.6797     3.8668 C.ar    
  27 O27            6.7051     8.0219     4.0367 O.3     
  28 C28            6.8744     9.1755     4.8629 C.3     
  29 H29           -0.3603     1.3428    -1.5961 H       
  30 H30            0.3655     2.7391    -2.4278 H       
  31 H31            0.0145     1.2476    -3.3336 H       
  32 H32            1.4799    -0.4729    -4.5781 H       
  33 H33            1.5479    -1.8783    -3.4880 H       
  34 H34            0.2596    -0.6652    -3.2967 H       
  35 H35            0.3827     3.3967    -0.9174 H       
  36 H36            1.1378     4.7003    -0.1737 H       
  37 H37            4.5830     7.0032     2.5020 H       
  38 H38            4.7107     5.7973     3.8531 H       
  39 H39            5.8606     3.6592     2.9822 H       
  40 H40            6.2683     3.8696     1.2256 H       
  41 H41            8.8589     6.2566     1.6169 H       
  42 H42            8.1478     5.0173     0.5554 H       
  43 H43            8.4088     6.6688    -0.0551 H       
  44 H44            8.4558     7.8795     5.9799 H       
  45 H45            9.8403     5.9125     6.5031 H       
  46 H46            9.6377     3.8675     5.1490 H       
  47 H47            8.0417     3.7795     3.2771 H       
  48 H48            6.6396     8.9199     5.8962 H       
  49 H49            7.9067     9.5196     4.7994 H       
  50 H50            6.2060     9.9667     4.5235 H       
@<TRIPOS>BOND
   1    1    2 ar
   2    1    5 ar
   3    1   10 1
   4    2   11 1
   5    2    3 ar
   6    3    4 ar
   7    4    7 ar
   8    5    7 ar
   9    5    6 1
  10    6    9 2
  11    6   12 1
  12    7    8 1
  13    8    9 1
  14    9   13 1
  15   10   29 1
  16   10   30 1
  17   10   31 1
  18   11   32 1
  19   11   33 1
  20   11   34 1
  21   12   35 1
  22   12   36 1
  23   13   14 2
  24   13   15 am
  25   15   16 1
  26   15   17 1
  27   16   18 1
  28   16   37 1
  29   16   38 1
  30   17   18 1
  31   17   39 1
  32   17   40 1
  33   18   19 1
  34   18   20 1
  35   19   21 1
  36   20   22 ar
  37   20   26 ar
  38   21   41 1
  39   21   42 1
  40   21   43 1
  41   22   23 ar
  42   22   27 1
  43   23   24 ar
  44   23   44 1
  45   24   25 ar
  46   24   45 1
  47   25   26 ar
  48   25   46 1
  49   26   47 1
  50   27   28 1
  51   28   48 1
  52   28   49 1
  53   28   50 1

#	End of record

