#	Name: ASD03950058
#	Creating user name:	WinNT
#	Creation time:	15. 06. 2019 20:48

#	Modifying user name:	WinNT
#	Modification time:	15. 06. 2019 20:48

#	Program:	/corina/corina34_cracker 3.40 0067  02.08.2006

@<TRIPOS>MOLECULE
ASD03950058
  52   55    0    0    0
SMALL
NO_CHARGES


@<TRIPOS>ATOM
   1 N1            -0.0169     1.3942     0.0097 N.pl3   
   2 N2             0.0021    -0.0041     0.0020 N.2     
   3 C3             1.2311    -0.4341    -0.0120 C.2     
   4 C4             2.1093     0.7334    -0.0141 C.ar    
   5 C5             3.4967     0.8990    -0.0264 C.ar    
   6 C6             4.0412     2.1755    -0.0248 C.ar    
   7 C7             3.2112     3.2979    -0.0104 C.ar    
   8 C8             1.8299     3.1501     0.0024 C.ar    
   9 C9             1.2663     1.8606    -0.0000 C.ar    
  10 C10            0.9576     4.3398     0.0176 C.2     
  11 O11           -0.2510     4.2074     0.0288 O.2     
  12 N12            1.5005     5.5734     0.0190 N.am    
  13 C13            6.3581     1.2392    -0.0519 C.ar    
  14 C14            5.5152     2.3486    -0.0379 C.ar    
  15 C15            6.0800     3.6264    -0.0369 C.ar    
  16 C16            7.4603     3.7344    -0.0499 C.ar    
  17 C17            8.2285     2.5848    -0.0634 C.ar    
  18 N18            7.6664     1.3914    -0.0640 N.ar    
  19 N19            1.2107    -4.6672    -0.0334 N.am    
  20 C20            1.6137    -4.0358     1.2306 C.3     
  21 C21            1.1380    -2.5796     1.2280 C.3     
  22 C22            1.6687    -1.8761    -0.0232 C.3     
  23 C23            1.1161    -2.5669    -1.2720 C.3     
  24 C24            1.5915    -4.0230    -1.2977 C.3     
  25 S25            0.3495    -6.0817    -0.0330 S.o2    
  26 O26            0.6707    -6.6879    -1.2774 O.2     
  27 O27            0.6976    -6.7036     1.1964 O.2     
  28 C28           -1.3862    -5.5549    -0.0108 C.3     
  29 C29           -2.2932    -6.7870    -0.0088 C.3     
  30 H30           -0.8151     1.9454     0.0166 H       
  31 H31            4.1445     0.0349    -0.0369 H       
  32 H32            3.6455     4.2867    -0.0089 H       
  33 H33            2.4647     5.6790     0.0101 H       
  34 H34            0.9270     6.3556     0.0290 H       
  35 H35            5.9349     0.2456    -0.0483 H       
  36 H36            5.4557     4.5077    -0.0266 H       
  37 H37            7.9318     4.7060    -0.0499 H       
  38 H38            9.3054     2.6652    -0.0739 H       
  39 H39            1.1583    -4.5675     2.0661 H       
  40 H40            2.6992    -4.0655     1.3241 H       
  41 H41            0.0484    -2.5528     1.2260 H       
  42 H42            1.5132    -2.0728     2.1171 H       
  43 H43            2.7576    -1.9251    -0.0331 H       
  44 H44            0.0267    -2.5402    -1.2505 H       
  45 H45            1.4757    -2.0510    -2.1623 H       
  46 H46            2.6753    -4.0516    -1.4105 H       
  47 H47            1.1215    -4.5462    -2.1305 H       
  48 H48           -1.5749    -4.9633     0.8850 H       
  49 H49           -1.5942    -4.9520    -0.8948 H       
  50 H50           -2.1044    -7.3786    -0.9047 H       
  51 H51           -2.0851    -7.3899     0.8751 H       
  52 H52           -3.3361    -6.4705     0.0045 H       
@<TRIPOS>BOND
   1    1    2 1
   2    1    9 1
   3    1   30 1
   4    2    3 2
   5    3    4 1
   6    3   22 1
   7    4    5 ar
   8    4    9 ar
   9    5    6 ar
  10    5   31 1
  11    6    7 ar
  12    6   14 1
  13    7    8 ar
  14    7   32 1
  15    8    9 ar
  16    8   10 1
  17   10   11 2
  18   10   12 am
  19   12   33 1
  20   12   34 1
  21   13   14 ar
  22   13   18 ar
  23   13   35 1
  24   14   15 ar
  25   15   16 ar
  26   15   36 1
  27   16   17 ar
  28   16   37 1
  29   17   18 ar
  30   17   38 1
  31   19   20 1
  32   19   24 1
  33   19   25 am
  34   20   21 1
  35   20   39 1
  36   20   40 1
  37   21   22 1
  38   21   41 1
  39   21   42 1
  40   22   23 1
  41   22   43 1
  42   23   24 1
  43   23   44 1
  44   23   45 1
  45   24   46 1
  46   24   47 1
  47   25   26 2
  48   25   27 2
  49   25   28 1
  50   28   29 1
  51   28   48 1
  52   28   49 1
  53   29   50 1
  54   29   51 1
  55   29   52 1

#	End of record

