#	Name: ASD01820194
#	Creating user name:	WinNT
#	Creation time:	15. 06. 2019 19:36

#	Modifying user name:	WinNT
#	Modification time:	15. 06. 2019 19:36

#	Program:	/corina/corina34_cracker 3.40 0067  02.08.2006

@<TRIPOS>MOLECULE
ASD01820194
 105  109    0    0    0
SMALL
NO_CHARGES


@<TRIPOS>ATOM
   1 N1             5.4328     1.8398     0.0463 N.am    
   2 C2             5.3929     0.5038     0.2100 C.2     
   3 C3             6.3209     2.3990    -0.9758 C.3     
   4 C4             5.5672     2.5064    -2.3029 C.3     
   5 C5             6.4948     3.0905    -3.3703 C.3     
   6 N6             6.0688     2.6252    -4.6970 N.4     
   7 C7             6.8354     3.3305    -5.7327 C.3     
   8 C8             6.3917     2.8459    -7.1145 C.3     
   9 C9             7.1901     3.5805    -8.1932 C.3     
  10 C10            6.7464     3.0958    -9.5750 C.3     
  11 C11            7.5449     3.8305   -10.6537 C.3     
  12 C12            7.1012     3.3458   -12.0355 C.3     
  13 N13            7.8678     4.0512   -13.0712 N.4     
  14 C14            7.4418     3.5859   -14.3979 C.3     
  15 C15            8.5027     3.9606   -15.4347 C.3     
  16 N16            8.9135     4.2333   -17.8302 N.am    
  17 O17            6.0880    -0.2117    -0.4857 O.2     
  18 C18            7.8977     3.8745   -16.8374 C.3     
  19 C19            9.7500     3.3565   -18.4143 C.2     
  20 C20           10.6233     4.0923   -19.3529 C.ar    
  21 C21           10.2309     5.4436   -19.2660 C.ar    
  22 C22            9.1286     5.4820   -18.2818 C.2     
  23 C23           11.6481     3.7263   -20.2100 C.ar    
  24 C24           12.2809     4.6927   -20.9769 C.ar    
  25 C25           11.8966     6.0173   -20.8914 C.ar    
  26 C26           10.8720     6.3982   -20.0384 C.ar    
  27 O27            9.7825     2.1606   -18.2052 O.2     
  28 O28            8.5234     6.4758   -17.9339 O.2     
  29 C29            7.6283     5.4962   -12.9590 C.3     
  30 C30            9.2998     3.7768   -12.8927 C.3     
  31 C31            6.3083     1.1802    -4.8093 C.3     
  32 C32            4.6367     2.8995    -4.8756 C.3     
  33 C33            4.5140    -0.0948     1.2254 C.ar    
  34 C34            3.7168     0.7593     2.0210 C.ar    
  35 C35            3.7833     2.1572     1.8226 C.ar    
  36 C36            4.6825     2.6804     0.7836 C.2     
  37 O37            4.7559     3.8797     0.5953 O.2     
  38 C38            4.4421    -1.4649     1.4280 C.ar    
  39 C39            3.5954    -1.9834     2.4010 C.ar    
  40 C40            2.8184    -1.1736     3.1783 C.ar    
  41 C41            2.8614     0.2209     3.0046 C.ar    
  42 C42            2.0811     1.0965     3.7798 C.ar    
  43 C43            2.1572     2.4440     3.5737 C.ar    
  44 C44            2.9972     2.9869     2.6082 C.ar    
  45 C45            8.9875     5.3884   -15.1752 C.3     
  46 C46            9.6836     2.9937   -15.3284 C.3     
  47 C47            5.1005     1.1159    -2.7383 C.3     
  48 C48            4.3528     3.4203    -2.1272 C.3     
  49 C49           12.5957     7.0550   -21.7314 C.3     
  50 H50            6.6535     3.3896    -0.6656 H       
  51 H51            7.1861     1.7480    -1.1009 H       
  52 H52            6.4492     4.1789    -3.3352 H       
  53 H53            7.5173     2.7633    -3.1816 H       
  54 H54            6.6577     4.4027    -5.6494 H       
  55 H55            7.8980     3.1269    -5.6002 H       
  56 H56            6.5694     1.7737    -7.1978 H       
  57 H57            5.3291     3.0494    -7.2470 H       
  58 H58            7.0125     4.6527    -8.1099 H       
  59 H59            8.2527     3.3769    -8.0607 H       
  60 H60            6.9241     2.0237    -9.6583 H       
  61 H61            5.6839     3.2994    -9.7075 H       
  62 H62            7.3672     4.9027   -10.5704 H       
  63 H63            8.6075     3.6269   -10.5212 H       
  64 H64            7.2789     2.2737   -12.1188 H       
  65 H65            6.0386     3.5494   -12.1680 H       
  66 H66            7.3173     2.5031   -14.3805 H       
  67 H67            6.4944     4.0564   -14.6610 H       
  68 H68            7.5523     2.8573   -17.0223 H       
  69 H69            7.0564     4.5633   -16.9132 H       
  70 H70           11.9532     2.6927   -20.2804 H       
  71 H71           13.0800     4.4083   -21.6455 H       
  72 H72           10.5759     7.4349   -19.9756 H       
  73 H73            8.0433     5.8613   -12.0195 H       
  74 H74            8.1081     6.0098   -13.7921 H       
  75 H75            6.5559     5.6896   -12.9820 H       
  76 H76            9.4780     2.7050   -12.9795 H       
  77 H77            9.8689     4.3030   -13.6591 H       
  78 H78            9.6152     4.1189   -11.9069 H       
  79 H79            5.4502     0.6378    -4.4123 H       
  80 H80            6.4521     0.9160    -5.8570 H       
  81 H81            7.2002     0.9145    -4.2419 H       
  82 H82            4.3649     3.7925    -4.3127 H       
  83 H83            4.4264     3.0586    -5.9332 H       
  84 H84            4.0563     2.0510    -4.5133 H       
  85 H85            5.0450    -2.1306     0.8282 H       
  86 H86            3.5509    -3.0528     2.5452 H       
  87 H87            2.1697    -1.6045     3.9267 H       
  88 H88            1.4208     0.7030     4.5385 H       
  89 H89            1.5512     3.1043     4.1764 H       
  90 H90            3.0363     4.0571     2.4683 H       
  91 H91            9.3107     5.4795   -14.1382 H       
  92 H92            9.8232     5.6143   -15.8374 H       
  93 H93            8.1739     6.0885   -15.3650 H       
  94 H94            9.3262     1.9700   -15.4394 H       
  95 H95           10.4054     3.2139   -16.1149 H       
  96 H96           10.1607     3.1085   -14.3550 H       
  97 H97            4.5221     0.6589    -1.9354 H       
  98 H98            4.4788     1.2038    -3.6293 H       
  99 H99            5.9680     0.4945    -2.9605 H       
 100 H100           4.6893     4.4350    -1.9147 H       
 101 H101           3.7609     3.4180    -3.0425 H       
 102 H102           3.7429     3.0588    -1.2993 H       
 103 H103          12.0813     7.1556   -22.6871 H       
 104 H104          12.5844     8.0122   -21.2101 H       
 105 H105          13.6271     6.7477   -21.9044 H       
@<TRIPOS>BOND
   1    1    2 am
   2    1    3 1
   3    1   36 am
   4    2   17 2
   5    2   33 1
   6    3    4 1
   7    3   50 1
   8    3   51 1
   9    4    5 1
  10    4   47 1
  11    4   48 1
  12    5    6 1
  13    5   52 1
  14    5   53 1
  15    6    7 1
  16    6   31 1
  17    6   32 1
  18    7    8 1
  19    7   54 1
  20    7   55 1
  21    8    9 1
  22    8   56 1
  23    8   57 1
  24    9   10 1
  25    9   58 1
  26    9   59 1
  27   10   11 1
  28   10   60 1
  29   10   61 1
  30   11   12 1
  31   11   62 1
  32   11   63 1
  33   12   13 1
  34   12   64 1
  35   12   65 1
  36   13   14 1
  37   13   29 1
  38   13   30 1
  39   14   15 1
  40   14   66 1
  41   14   67 1
  42   15   18 1
  43   15   45 1
  44   15   46 1
  45   16   19 am
  46   16   18 1
  47   16   22 am
  48   18   68 1
  49   18   69 1
  50   19   20 1
  51   19   27 2
  52   20   21 ar
  53   20   23 ar
  54   21   22 1
  55   21   26 ar
  56   22   28 2
  57   23   24 ar
  58   23   70 1
  59   24   25 ar
  60   24   71 1
  61   25   26 ar
  62   25   49 1
  63   26   72 1
  64   29   73 1
  65   29   74 1
  66   29   75 1
  67   30   76 1
  68   30   77 1
  69   30   78 1
  70   31   79 1
  71   31   80 1
  72   31   81 1
  73   32   82 1
  74   32   83 1
  75   32   84 1
  76   33   34 ar
  77   33   38 ar
  78   34   35 ar
  79   34   41 ar
  80   35   36 1
  81   35   44 ar
  82   36   37 2
  83   38   39 ar
  84   38   85 1
  85   39   40 ar
  86   39   86 1
  87   40   41 ar
  88   40   87 1
  89   41   42 ar
  90   42   43 ar
  91   42   88 1
  92   43   44 ar
  93   43   89 1
  94   44   90 1
  95   45   91 1
  96   45   92 1
  97   45   93 1
  98   46   94 1
  99   46   95 1
 100   46   96 1
 101   47   97 1
 102   47   98 1
 103   47   99 1
 104   48  100 1
 105   48  101 1
 106   48  102 1
 107   49  103 1
 108   49  104 1
 109   49  105 1

#	End of record

