#	Name: ASD04170015
#	Creating user name:	WinNT
#	Creation time:	15. 06. 2019 20:48

#	Modifying user name:	WinNT
#	Modification time:	15. 06. 2019 20:48

#	Program:	/corina/corina34_cracker 3.40 0067  02.08.2006

@<TRIPOS>MOLECULE
ASD04170015
  39   41    0    0    0
SMALL
NO_CHARGES


@<TRIPOS>ATOM
   1 O1             0.0021    -0.0041     0.0020 O.2     
   2 C2            -0.0144     1.2113     0.0087 C.2     
   3 C3             1.2558     1.9679     0.0006 C.ar    
   4 C4             2.4755     1.2896    -0.0147 C.ar    
   5 C5             3.6572     2.0016    -0.0221 C.ar    
   6 C6             3.6349     3.3850    -0.0139 C.ar    
   7 C7             2.4292     4.0635     0.0017 C.ar    
   8 C8             1.2403     3.3636     0.0025 C.ar    
   9 C9             4.9296     4.1562    -0.0216 C.3     
  10 N10           -1.1906     1.8693     0.0179 N.am    
  11 C11           -2.4493     1.1196     0.0198 C.3     
  12 C12           -2.8188     0.7414     1.4558 C.3     
  13 N13           -4.1134     1.3272     1.8114 N.4     
  14 C14           -5.1698     0.8133     0.9363 C.3     
  15 C15           -4.8782     1.1946    -0.5168 C.3     
  16 C16           -3.5678     1.9914    -0.5660 C.3     
  17 C17           -3.7250     3.2356     0.3181 C.3     
  18 C18           -4.0537     2.7892     1.7445 C.3     
  19 H19            2.4943     0.2098    -0.0203 H       
  20 H20            4.6017     1.4780    -0.0339 H       
  21 H21            2.4187     5.1434     0.0087 H       
  22 H22            0.2998     3.8944     0.0147 H       
  23 H23            5.2321     4.3480    -1.0510 H       
  24 H24            4.7912     5.1038     0.4990 H       
  25 H25            5.7019     3.5746     0.4817 H       
  26 H26           -1.2038     2.8392     0.0232 H       
  27 H27           -2.3368     0.2155    -0.5786 H       
  28 H28           -2.8773    -0.3437     1.5404 H       
  29 H29           -2.0537     1.1149     2.1365 H       
  30 H30           -4.3314     1.0670     2.7616 H       
  31 H31           -5.2152    -0.2723     1.0232 H       
  32 H32           -6.1272     1.2389     1.2368 H       
  33 H33           -4.7793     0.2913    -1.1187 H       
  34 H34           -5.6927     1.8067    -0.9042 H       
  35 H35           -3.3323     2.2678    -1.5937 H       
  36 H36           -2.7946     3.8034     0.3183 H       
  37 H37           -4.5342     3.8567    -0.0659 H       
  38 H38           -5.0171     3.2045     2.0404 H       
  39 H39           -3.2817     3.1511     2.4236 H       
@<TRIPOS>BOND
   1    1    2 2
   2    2    3 1
   3    2   10 am
   4    3    4 ar
   5    3    8 ar
   6    4    5 ar
   7    4   19 1
   8    5    6 ar
   9    5   20 1
  10    6    7 ar
  11    6    9 1
  12    7    8 ar
  13    7   21 1
  14    8   22 1
  15    9   23 1
  16    9   24 1
  17    9   25 1
  18   10   11 1
  19   10   26 1
  20   11   12 1
  21   11   16 1
  22   11   27 1
  23   12   13 1
  24   12   28 1
  25   12   29 1
  26   13   14 1
  27   13   18 1
  28   13   30 1
  29   14   15 1
  30   14   31 1
  31   14   32 1
  32   15   16 1
  33   15   33 1
  34   15   34 1
  35   16   17 1
  36   16   35 1
  37   17   18 1
  38   17   36 1
  39   17   37 1
  40   18   38 1
  41   18   39 1

#	End of record

