#	Name: ASD03090864
#	Creating user name:	WinNT
#	Creation time:	15. 06. 2019 20:29

#	Modifying user name:	WinNT
#	Modification time:	15. 06. 2019 20:29

#	Program:	/corina/corina34_cracker 3.40 0067  02.08.2006

@<TRIPOS>MOLECULE
ASD03090864
  54   56    0    0    0
SMALL
NO_CHARGES


@<TRIPOS>ATOM
   1 N1            -0.0175     1.3432    -0.0859 N.am    
   2 C2             0.0012    -0.0044    -0.0679 C.2     
   3 O3             1.0649    -0.5993    -0.0775 O.2     
   4 N4            -1.1464    -0.6880    -0.0394 N.2     
   5 S5             0.2595    -3.0387    -0.0301 S.3     
   6 C6            -1.1280    -2.0187    -0.0215 C.2     
   7 N7            -2.1987    -2.8518     0.0077 N.pl3   
   8 C8            -1.9391    -4.1884     0.0221 C.2     
   9 C9            -0.6634    -4.5510     0.0061 C.2     
  10 C10           -0.1141    -5.9543     0.0171 C.3     
  11 O11           -7.4524    -1.1574     0.0453 O.3     
  12 C12           -8.0539    -2.4331     0.3354 C.3     
  13 O13           -7.0845    -3.3848    -0.1417 O.3     
  14 C14           -5.8790    -2.7494    -0.0608 C.ar    
  15 C15           -6.1048    -1.3793     0.0543 C.ar    
  16 C16           -4.5832    -3.2363    -0.0763 C.ar    
  17 C17           -3.5113    -2.3592     0.0230 C.ar    
  18 C18           -3.7393    -0.9949     0.1377 C.ar    
  19 C19           -5.0326    -0.5079     0.1538 C.ar    
  20 F20           -8.2518    -2.5814     1.7124 F       
  21 F21           -9.2627    -2.5748    -0.3544 F       
  22 C22            1.2409     2.0928    -0.1172 C.3     
  23 C23            1.6548     2.3340    -1.5702 C.3     
  24 C24            2.9690     3.1169    -1.6028 C.3     
  25 C25            3.3830     3.3581    -3.0559 C.3     
  26 C26           -1.2961     2.0582    -0.0805 C.3     
  27 C27           -1.7241     2.3267     1.3637 C.3     
  28 C28           -3.0594     3.0735     1.3694 C.3     
  29 C29           -3.4874     3.3420     2.8136 C.3     
  30 H30           -2.7344    -4.9188     0.0454 H       
  31 H31            0.9752    -5.9182    -0.0006 H       
  32 H32           -0.4460    -6.4673     0.9197 H       
  33 H33           -0.4741    -6.4922    -0.8599 H       
  34 H34           -4.4060    -4.2979    -0.1651 H       
  35 H35           -2.9052    -0.3132     0.2149 H       
  36 H36           -5.2076     0.5542     0.2426 H       
  37 H37            1.1060     3.0502     0.3859 H       
  38 H38            2.0170     1.5211     0.3916 H       
  39 H39            1.7897     1.3765    -2.0733 H       
  40 H40            0.8787     2.9056    -2.0790 H       
  41 H41            2.8341     4.0743    -1.0997 H       
  42 H42            3.7452     2.5452    -1.0940 H       
  43 H43            4.3192     3.9158    -3.0791 H       
  44 H44            3.5178     2.4006    -3.5590 H       
  45 H45            2.6068     3.9298    -3.5647 H       
  46 H46           -1.1850     3.0052    -0.6086 H       
  47 H47           -2.0536     1.4519    -0.5771 H       
  48 H48           -1.8351     1.3797     1.8918 H       
  49 H49           -0.9666     2.9330     1.8604 H       
  50 H50           -2.9484     4.0205     0.8413 H       
  51 H51           -3.8169     2.4672     0.8727 H       
  52 H52           -3.5985     2.3950     3.3417 H       
  53 H53           -2.7299     3.9483     3.3103 H       
  54 H54           -4.4388     3.8740     2.8177 H       
@<TRIPOS>BOND
   1    1    2 am
   2    1   22 1
   3    1   26 1
   4    2    3 2
   5    2    4 1
   6    4    6 2
   7    5    6 1
   8    5    9 1
   9    6    7 1
  10    7    8 1
  11    7   17 1
  12    8    9 2
  13    8   30 1
  14    9   10 1
  15   10   31 1
  16   10   32 1
  17   10   33 1
  18   11   12 1
  19   11   15 1
  20   12   13 1
  21   12   20 1
  22   12   21 1
  23   13   14 1
  24   14   15 ar
  25   14   16 ar
  26   15   19 ar
  27   16   17 ar
  28   16   34 1
  29   17   18 ar
  30   18   19 ar
  31   18   35 1
  32   19   36 1
  33   22   23 1
  34   22   37 1
  35   22   38 1
  36   23   24 1
  37   23   39 1
  38   23   40 1
  39   24   25 1
  40   24   41 1
  41   24   42 1
  42   25   43 1
  43   25   44 1
  44   25   45 1
  45   26   27 1
  46   26   46 1
  47   26   47 1
  48   27   28 1
  49   27   48 1
  50   27   49 1
  51   28   29 1
  52   28   50 1
  53   28   51 1
  54   29   52 1
  55   29   53 1
  56   29   54 1

#	End of record

