#	Name: ASD01200109
#	Creating user name:	WinNT
#	Creation time:	15. 06. 2019 19:08

#	Modifying user name:	WinNT
#	Modification time:	15. 06. 2019 19:08

#	Program:	/corina/corina34_cracker 3.40 0067  02.08.2006

@<TRIPOS>MOLECULE
ASD01200109
  59   63    0    0    0
SMALL
NO_CHARGES


@<TRIPOS>ATOM
   1 C1             0.2285     1.2615     1.4297 C.2     
   2 N2             0.2348    -0.0462     1.3535 N.2     
   3 C3             1.4426    -0.4712     0.9120 C.ar    
   4 C4             2.2347     0.6725     0.7030 C.ar    
   5 N5             1.4433     1.7547     1.0378 N.pl3   
   6 C6             1.9795    -1.7370     0.6544 C.ar    
   7 C7             3.2777    -1.8501     0.1989 C.ar    
   8 C8             4.0549    -0.7129    -0.0054 C.ar    
   9 C9             3.5380     0.5400     0.2446 C.ar    
  10 C10            5.4704    -0.8530    -0.5031 C.3     
  11 N11            5.4597    -1.0645    -1.9567 N.3     
  12 C12            6.8212    -0.9691    -2.5146 C.3     
  13 C13            7.1071    -2.2942    -3.2520 C.3     
  14 C14            5.6865    -2.8389    -3.5553 C.3     
  15 C15            4.9045    -2.3924    -2.2948 C.3     
  16 C16           -0.9220     2.0828     1.8679 C.ar    
  17 C17           -2.1139     1.4615     2.2391 C.ar    
  18 C18           -3.1810     2.2433     2.6472 C.ar    
  19 C19           -3.0215     3.6214     2.6708 C.ar    
  20 C20           -1.8105     4.1713     2.2891 C.ar    
  21 N21           -0.8093     3.4050     1.9098 N.ar    
  22 O22            3.8009    -3.0797    -0.0515 O.3     
  23 C23            2.9791    -4.1565     0.0556 C.ar    
  24 C24            2.0601    -4.4319    -0.9469 C.ar    
  25 C25            1.2262    -5.5275    -0.8358 C.ar    
  26 C26            1.3063    -6.3492     0.2734 C.ar    
  27 C27            2.2212    -6.0771     1.2738 C.ar    
  28 C28            3.0614    -4.9860     1.1649 C.ar    
  29 S29            0.2403    -7.7453     0.4125 S.o2    
  30 O30            0.1310    -7.9646     1.8122 O.2     
  31 O31           -0.8966    -7.3970    -0.3655 O.2     
  32 C32            1.1598    -9.0970    -0.3737 C.3     
  33 C33            0.3287   -10.3803    -0.3160 C.3     
  34 H34            1.7006     2.6892     1.0012 H       
  35 H35            1.3809    -2.6221     0.8115 H       
  36 H36            4.1464     1.4177     0.0838 H       
  37 H37            6.0283     0.0545    -0.2721 H       
  38 H38            5.9443    -1.7049    -0.0154 H       
  39 H39            6.8775    -0.1355    -3.2147 H       
  40 H40            7.5428    -0.8295    -1.7097 H       
  41 H41            7.6548    -2.1104    -4.1763 H       
  42 H42            7.6547    -2.9829    -2.6087 H       
  43 H43            5.2752    -2.3782    -4.4535 H       
  44 H44            5.6957    -3.9252    -3.6446 H       
  45 H45            5.0714    -3.0930    -1.4767 H       
  46 H46            3.8402    -2.3134    -2.5167 H       
  47 H47           -2.2034     0.3856     2.2083 H       
  48 H48           -4.1167     1.7907     2.9402 H       
  49 H49           -3.8351     4.2589     2.9839 H       
  50 H50           -1.6835     5.2437     2.3065 H       
  51 H51            1.9966    -3.7900    -1.8131 H       
  52 H52            0.5107    -5.7423    -1.6158 H       
  53 H53            2.2816    -6.7203     2.1393 H       
  54 H54            3.7787    -4.7762     1.9446 H       
  55 H55            1.3624    -8.8418    -1.4138 H       
  56 H56            2.1017    -9.2502     0.1530 H       
  57 H57            0.8811   -11.1925    -0.7884 H       
  58 H58            0.1260   -10.6355     0.7242 H       
  59 H59           -0.6133   -10.2271    -0.8426 H       
@<TRIPOS>BOND
   1    1    2 2
   2    1    5 1
   3    1   16 1
   4    2    3 1
   5    3    4 ar
   6    3    6 ar
   7    4    5 1
   8    4    9 ar
   9    5   34 1
  10    6    7 ar
  11    6   35 1
  12    7    8 ar
  13    7   22 1
  14    8    9 ar
  15    8   10 1
  16    9   36 1
  17   10   11 1
  18   10   37 1
  19   10   38 1
  20   11   12 1
  21   11   15 1
  22   12   13 1
  23   12   39 1
  24   12   40 1
  25   13   14 1
  26   13   41 1
  27   13   42 1
  28   14   15 1
  29   14   43 1
  30   14   44 1
  31   15   45 1
  32   15   46 1
  33   16   17 ar
  34   16   21 ar
  35   17   18 ar
  36   17   47 1
  37   18   19 ar
  38   18   48 1
  39   19   20 ar
  40   19   49 1
  41   20   21 ar
  42   20   50 1
  43   22   23 1
  44   23   24 ar
  45   23   28 ar
  46   24   25 ar
  47   24   51 1
  48   25   26 ar
  49   25   52 1
  50   26   27 ar
  51   26   29 1
  52   27   28 ar
  53   27   53 1
  54   28   54 1
  55   29   30 2
  56   29   31 2
  57   29   32 1
  58   32   33 1
  59   32   55 1
  60   32   56 1
  61   33   57 1
  62   33   58 1
  63   33   59 1

#	End of record

