#	Name: ASD01811008
#	Creating user name:	WinNT
#	Creation time:	15. 06. 2019 19:25

#	Modifying user name:	WinNT
#	Modification time:	15. 06. 2019 19:25

#	Program:	/corina/corina34_cracker 3.40 0067  02.08.2006

@<TRIPOS>MOLECULE
ASD01811008
  70   74    0    0    0
SMALL
NO_CHARGES


@<TRIPOS>ATOM
   1 C1             3.5973    16.4270    -3.7145 C.1     
   2 C2             2.7286    15.3371    -3.3860 C.ar    
   3 C3             2.0450    14.6562    -4.3954 C.ar    
   4 C4             1.2097    13.6072    -4.0718 C.ar    
   5 C5             1.0481    13.2295    -2.7506 C.ar    
   6 C6             1.7220    13.9001    -1.7453 C.ar    
   7 C7             2.5657    14.9466    -2.0553 C.ar    
   8 N8             4.2865    17.2917    -3.9751 N.1     
   9 N9            -1.0528    10.3732    -0.4027 N.3     
  10 C10           -0.0111     9.8504    -1.2959 C.3     
  11 C11            0.9338    10.9849    -1.6987 C.3     
  12 C12            0.1335    12.0828    -2.4048 C.3     
  13 C13           -0.9752    12.5762    -1.4710 C.3     
  14 C14           -1.8648    11.3956    -1.0749 C.3     
  15 C15           -1.8963     9.2874     0.1146 C.3     
  16 C16           -2.6847     9.7844     1.2989 C.ar    
  17 C17           -2.0854     9.8625     2.5436 C.ar    
  18 C18           -2.8023    10.3176     3.6355 C.ar    
  19 C19           -4.1212    10.6964     3.4895 C.ar    
  20 C20           -4.7312    10.6200     2.2373 C.ar    
  21 C21           -4.0007    10.1658     1.1385 C.ar    
  22 N22           -8.1015    11.7272     2.5183 N.2     
  23 N23           -6.9438    11.4734     3.0159 N.2     
  24 C24           -6.1448    11.0245     2.0737 C.2     
  25 N25           -6.8689    11.0024     0.9125 N.pl3   
  26 C26           -8.1087    11.4575     1.2403 C.2     
  27 O27           -9.5836    11.2968    -2.0594 O.3     
  28 C28           -8.7939    12.0220    -1.1096 C.3     
  29 C29           -9.2759    11.6207     0.3011 C.3     
  30 C30           -9.9680    10.2557     0.0370 C.3     
  31 C31          -10.5588    10.4939    -1.3754 C.3     
  32 C32           -4.9011    11.1911     4.6804 C.3     
  33 C33           -5.6840    10.0294     5.2956 C.3     
  34 C34           -0.6457     9.4496     2.7104 C.3     
  35 C35            0.2641    10.6473     2.4303 C.3     
  36 H36            2.1698    14.9505    -5.4270 H       
  37 H37            0.6804    13.0797    -4.8516 H       
  38 H38            1.5911    13.6003    -0.7161 H       
  39 H39            3.0948    15.4661    -1.2701 H       
  40 H40            0.5532     9.0735    -0.7802 H       
  41 H41           -0.4752     9.4303    -2.1883 H       
  42 H42            1.4087    11.3964    -0.8080 H       
  43 H43            1.6977    10.5998    -2.3741 H       
  44 H44           -0.3088    11.6818    -3.3168 H       
  45 H45           -0.5303    13.0127    -0.5768 H       
  46 H46           -1.5752    13.3279    -1.9838 H       
  47 H47           -2.3201    10.9682    -1.9683 H       
  48 H48           -2.6467    11.7409    -0.3986 H       
  49 H49           -2.5820     8.9568    -0.6655 H       
  50 H50           -1.2661     8.4528     0.4220 H       
  51 H51           -2.3289    10.3763     4.6045 H       
  52 H52           -4.4660    10.1085     0.1656 H       
  53 H53           -6.5616    10.7208     0.0366 H       
  54 H54           -7.7419    11.7626    -1.2286 H       
  55 H55           -8.9307    13.0934    -1.2563 H       
  56 H56           -9.9859    12.3503     0.6905 H       
  57 H57           -9.2422     9.4426     0.0273 H       
  58 H58          -10.7563    10.0675     0.7660 H       
  59 H59          -11.5061    11.0284    -1.3041 H       
  60 H60          -10.6972     9.5445    -1.8926 H       
  61 H61           -4.2132    11.5985     5.4214 H       
  62 H62           -5.5952    11.9691     4.3625 H       
  63 H63           -6.2480    10.3872     6.1569 H       
  64 H64           -6.3718     9.6220     4.5546 H       
  65 H65           -4.9899     9.2514     5.6135 H       
  66 H66           -0.4836     9.1009     3.7303 H       
  67 H67           -0.4147     8.6464     2.0108 H       
  68 H68            1.3054    10.3487     2.5510 H       
  69 H69            0.1020    10.9961     1.4104 H       
  70 H70            0.0331    11.4506     3.1300 H       
@<TRIPOS>BOND
   1    1    2 1
   2    1    8 3
   3    2    3 ar
   4    2    7 ar
   5    3    4 ar
   6    3   36 1
   7    4    5 ar
   8    4   37 1
   9    5    6 ar
  10    5   12 1
  11    6    7 ar
  12    6   38 1
  13    7   39 1
  14    9   10 1
  15    9   14 1
  16    9   15 1
  17   10   11 1
  18   10   40 1
  19   10   41 1
  20   11   12 1
  21   11   42 1
  22   11   43 1
  23   12   13 1
  24   12   44 1
  25   13   14 1
  26   13   45 1
  27   13   46 1
  28   14   47 1
  29   14   48 1
  30   15   16 1
  31   15   49 1
  32   15   50 1
  33   16   17 ar
  34   16   21 ar
  35   17   18 ar
  36   17   34 1
  37   18   19 ar
  38   18   51 1
  39   19   20 ar
  40   19   32 1
  41   20   21 ar
  42   20   24 1
  43   21   52 1
  44   22   23 1
  45   22   26 2
  46   23   24 2
  47   24   25 1
  48   25   26 1
  49   25   53 1
  50   26   29 1
  51   27   28 1
  52   27   31 1
  53   28   29 1
  54   28   54 1
  55   28   55 1
  56   29   30 1
  57   29   56 1
  58   30   31 1
  59   30   57 1
  60   30   58 1
  61   31   59 1
  62   31   60 1
  63   32   33 1
  64   32   61 1
  65   32   62 1
  66   33   63 1
  67   33   64 1
  68   33   65 1
  69   34   35 1
  70   34   66 1
  71   34   67 1
  72   35   68 1
  73   35   69 1
  74   35   70 1

#	End of record

