#	Name: ASD07300600
#	Creating user name:	WinNT
#	Creation time:	15. 06. 2019 21:10

#	Modifying user name:	WinNT
#	Modification time:	15. 06. 2019 21:10

#	Program:	/corina/corina34_cracker 3.40 0067  02.08.2006

@<TRIPOS>MOLECULE
ASD07300600
  57   61    0    0    0
SMALL
NO_CHARGES


@<TRIPOS>ATOM
   1 C1            -0.0173     1.4132    -0.0101 C.2     
   2 C2             0.0021    -0.0041     0.0020 C.2     
   3 N3             1.1773     2.0868    -0.0173 N.pl3   
   4 N4             1.1570    -0.6390     0.0061 N.2     
   5 C5             2.3155     0.0276    -0.0010 C.2     
   6 C6             2.3478     1.3755    -0.0129 C.2     
   7 N7            -0.9989     2.3008    -0.0112 N.2     
   8 C8            -0.4887     3.5283    -0.0243 C.2     
   9 C9             0.8861     3.4239    -0.0276 C.2     
  10 C10            2.9647     4.5232     0.8106 C.ar    
  11 C11            1.8561     4.5388    -0.0380 C.ar    
  12 C12            1.6793     5.6282    -0.8992 C.ar    
  13 C13            2.6165     6.6459    -0.8703 C.ar    
  14 C14            3.6877     6.5554     0.0000 C.ar    
  15 N15            3.8289     5.5166     0.8011 N.ar    
  16 C16            4.7102     7.6619     0.0342 C.3     
  17 C17            4.8462     8.1867     1.4649 C.3     
  18 N18            5.8430     9.2653     1.4982 N.3     
  19 C19            5.8320     9.9549     2.8014 C.3     
  20 C20            7.2611     9.8673     3.3771 C.3     
  21 C21            8.1322     9.6309     2.1153 C.3     
  22 C22            7.2027     8.7378     1.2562 C.3     
  23 N23           -1.1861    -0.7177     0.0100 N.pl3   
  24 C24           -1.1896    -2.1845    -0.1073 C.3     
  25 C25           -2.0522    -2.7579     1.0227 C.3     
  26 O26           -3.3301    -2.1170     1.0109 O.3     
  27 C27           -3.2811    -0.7092     1.2547 C.3     
  28 C28           -2.4810    -0.0314     0.1422 C.3     
  29 C29           -1.2771     4.8126    -0.0303 C.3     
  30 H30            3.2438    -0.5242     0.0026 H       
  31 H31            3.2955     1.8936    -0.0187 H       
  32 H32            3.1121     3.6917     1.4838 H       
  33 H33            0.8334     5.6730    -1.5692 H       
  34 H34            2.5128     7.5018    -1.5207 H       
  35 H35            5.6724     7.2781    -0.3050 H       
  36 H36            4.3908     8.4722    -0.6212 H       
  37 H37            3.8841     8.5705     1.8041 H       
  38 H38            5.1656     7.3765     2.1203 H       
  39 H39            5.5500    10.9991     2.6660 H       
  40 H40            5.1301     9.4634     3.4751 H       
  41 H41            7.5373    10.8013     3.8666 H       
  42 H42            7.3476     9.0286     4.0678 H       
  43 H43            8.3482    10.5712     1.6081 H       
  44 H44            9.0529     9.1056     2.3693 H       
  45 H45            7.2698     7.6989     1.5793 H       
  46 H46            7.4615     8.8253     0.2010 H       
  47 H47           -1.6072    -2.4747    -1.0714 H       
  48 H48           -0.1709    -2.5622    -0.0194 H       
  49 H49           -2.1812    -3.8300     0.8742 H       
  50 H50           -1.5637    -2.5785     1.9805 H       
  51 H51           -4.2941    -0.3074     1.2730 H       
  52 H52           -2.7971    -0.5223     2.2133 H       
  53 H53           -2.3172     1.0161     0.3953 H       
  54 H54           -3.0310    -0.1011    -0.7963 H       
  55 H55           -1.4608     5.1309     0.9958 H       
  56 H56           -0.7119     5.5834    -0.5542 H       
  57 H57           -2.2288     4.6523    -0.5369 H       
@<TRIPOS>BOND
   1    1    2 1
   2    1    3 1
   3    1    7 2
   4    2    4 2
   5    2   23 1
   6    3    6 1
   7    3    9 1
   8    4    5 1
   9    5    6 2
  10    5   30 1
  11    6   31 1
  12    7    8 1
  13    8    9 2
  14    8   29 1
  15    9   11 1
  16   10   11 ar
  17   10   15 ar
  18   10   32 1
  19   11   12 ar
  20   12   13 ar
  21   12   33 1
  22   13   14 ar
  23   13   34 1
  24   14   15 ar
  25   14   16 1
  26   16   17 1
  27   16   35 1
  28   16   36 1
  29   17   18 1
  30   17   37 1
  31   17   38 1
  32   18   19 1
  33   18   22 1
  34   19   20 1
  35   19   39 1
  36   19   40 1
  37   20   21 1
  38   20   41 1
  39   20   42 1
  40   21   22 1
  41   21   43 1
  42   21   44 1
  43   22   45 1
  44   22   46 1
  45   23   24 1
  46   23   28 1
  47   24   25 1
  48   24   47 1
  49   24   48 1
  50   25   26 1
  51   25   49 1
  52   25   50 1
  53   26   27 1
  54   27   28 1
  55   27   51 1
  56   27   52 1
  57   28   53 1
  58   28   54 1
  59   29   55 1
  60   29   56 1
  61   29   57 1

#	End of record

