#	Name: ASD03930196
#	Creating user name:	WinNT
#	Creation time:	15. 06. 2019 20:47

#	Modifying user name:	WinNT
#	Modification time:	15. 06. 2019 20:47

#	Program:	/corina/corina34_cracker 3.40 0067  02.08.2006

@<TRIPOS>MOLECULE
ASD03930196
  44   46    0    0    0
SMALL
NO_CHARGES


@<TRIPOS>ATOM
   1 C1            -0.0166     1.3718     0.0096 C.ar    
   2 C2             0.0021    -0.0041     0.0020 C.ar    
   3 C3             1.2214    -0.6861    -0.0133 C.ar    
   4 C4             2.4217     0.0289    -0.0215 C.ar    
   5 C5             2.4031     1.4047    -0.0148 C.ar    
   6 C6             1.1838     2.0868     0.0020 C.ar    
   7 C7             1.2414    -2.1642    -0.0205 C.2     
   8 C8             1.1637     3.5649     0.0086 C.2     
   9 C9             1.6260     4.3369    -1.0334 C.2     
  10 S10            1.4284     6.0377    -0.6414 S.3     
  11 C11            0.7455     5.6735     0.8775 C.2     
  12 C12            0.6677     4.3263     1.0715 C.2     
  13 C13            1.7338    -2.9254    -1.0852 C.2     
  14 C14            1.6608    -4.2725    -0.8896 C.2     
  15 S15            0.9758    -4.6373     0.6283 S.3     
  16 C16            0.7827    -2.9365     1.0228 C.2     
  17 C17            2.1245    -5.3044    -1.8852 C.3     
  18 C18            3.5950    -5.6383    -1.6262 C.3     
  19 C19            2.2679    -2.3403    -2.2782 C.1     
  20 N20            2.6915    -1.8762    -3.2246 N.1     
  21 C21            0.2326    -2.4363     2.2270 C.2     
  22 O22           -0.1539    -3.2124     3.0929 O.co2   
  23 O23            0.1429    -1.2270     2.4038 O.co2   
  24 C24            0.2831     6.7057     1.8734 C.3     
  25 C25            1.4411     7.0707     2.8045 C.3     
  26 C26            0.1328     3.7417     2.2642 C.1     
  27 N27           -0.2915     3.2779     3.2104 N.1     
  28 C28            2.1766     3.8362    -2.2372 C.2     
  29 O29            2.2700     2.6270    -2.4119 O.co2   
  30 O30            2.5599     4.6120    -3.1048 O.co2   
  31 H31           -0.9591     1.8990     0.0169 H       
  32 H32           -0.9258    -0.5567     0.0083 H       
  33 H33            3.3643    -0.4983    -0.0326 H       
  34 H34            3.3309     1.9574    -0.0204 H       
  35 H35            1.5229    -6.2072    -1.7796 H       
  36 H36            2.0139    -4.9101    -2.8953 H       
  37 H37            3.9304    -6.3847    -2.3463 H       
  38 H38            4.1966    -4.7355    -1.7318 H       
  39 H39            3.7056    -6.0326    -0.6161 H       
  40 H40           -0.0518     7.5974     1.3435 H       
  41 H41           -0.5412     6.3007     2.4603 H       
  42 H42            1.7760     6.1790     3.3344 H       
  43 H43            2.2654     7.4757     2.2176 H       
  44 H44            1.1066     7.8173     3.5248 H       
@<TRIPOS>BOND
   1    1    2 ar
   2    1    6 ar
   3    1   31 1
   4    2    3 ar
   5    2   32 1
   6    3    4 ar
   7    3    7 1
   8    4    5 ar
   9    4   33 1
  10    5    6 ar
  11    5   34 1
  12    6    8 1
  13    7   13 1
  14    7   16 2
  15    8    9 2
  16    8   12 1
  17    9   10 1
  18    9   28 1
  19   10   11 1
  20   11   12 2
  21   11   24 1
  22   12   26 1
  23   13   14 2
  24   13   19 1
  25   14   15 1
  26   14   17 1
  27   15   16 1
  28   16   21 1
  29   17   18 1
  30   17   35 1
  31   17   36 1
  32   18   37 1
  33   18   38 1
  34   18   39 1
  35   19   20 3
  36   21   22 ar
  37   21   23 ar
  38   24   25 1
  39   24   40 1
  40   24   41 1
  41   25   42 1
  42   25   43 1
  43   25   44 1
  44   26   27 3
  45   28   29 ar
  46   28   30 ar

#	End of record

