#	Name: ASD01885621
#	Creating user name:	WinNT
#	Creation time:	15. 06. 2019 19:49

#	Modifying user name:	WinNT
#	Modification time:	15. 06. 2019 19:49

#	Program:	/corina/corina34_cracker 3.40 0067  02.08.2006

@<TRIPOS>MOLECULE
ASD01885621
  31   33    0    0    0
SMALL
NO_CHARGES


@<TRIPOS>ATOM
   1 C1            -0.0168     1.3889     0.0097 C.ar    
   2 C2             0.0021    -0.0041     0.0020 C.ar    
   3 C3             1.1815    -0.6871    -0.0124 C.ar    
   4 C4             2.3912     0.0186    -0.0201 C.ar    
   5 C5             2.3773     1.4364    -0.0129 C.ar    
   6 C6             1.1393     2.1066     0.0025 C.ar    
   7 C7             3.6377    -0.6579    -0.0340 C.ar    
   8 C8             4.7942     0.1109    -0.0400 C.ar    
   9 C9             4.6940     1.5063    -0.0322 C.ar    
  10 N10            3.5240     2.1169    -0.0192 N.ar    
  11 C11            3.7038    -2.1361    -0.0414 C.ar    
  12 C12            5.9338     2.3199    -0.0382 C.2     
  13 O13            7.0189     1.7736    -0.0497 O.2     
  14 N14            5.8568     3.6655    -0.0309 N.am    
  15 C15            3.7456    -2.8429     1.1633 C.ar    
  16 C16            3.8068    -4.2234     1.1489 C.ar    
  17 C17            3.8267    -4.9061    -0.0553 C.ar    
  18 C18            3.7860    -4.2123    -1.2526 C.ar    
  19 C19            3.7188    -2.8320    -1.2531 C.ar    
  20 Cl20           3.9036    -6.6404    -0.0640 Cl      
  21 F21            3.7267    -2.1782     2.3393 F       
  22 F22            3.6792    -2.1565    -2.4224 F       
  23 H23           -0.9641     1.9075     0.0169 H       
  24 H24           -0.9299    -0.5498     0.0079 H       
  25 H25            1.1831    -1.7670    -0.0175 H       
  26 H26            1.1073     3.1861     0.0082 H       
  27 H27            5.7637    -0.3649    -0.0502 H       
  28 H28            4.9904     4.1017    -0.0217 H       
  29 H29            6.6677     4.1977    -0.0348 H       
  30 H30            3.8395    -4.7709     2.0793 H       
  31 H31            3.8022    -4.7512    -2.1884 H       
@<TRIPOS>BOND
   1    1    2 ar
   2    1    6 ar
   3    1   23 1
   4    2    3 ar
   5    2   24 1
   6    3    4 ar
   7    3   25 1
   8    4    5 ar
   9    4    7 ar
  10    5    6 ar
  11    5   10 ar
  12    6   26 1
  13    7    8 ar
  14    7   11 1
  15    8    9 ar
  16    8   27 1
  17    9   10 ar
  18    9   12 1
  19   11   15 ar
  20   11   19 ar
  21   12   13 2
  22   12   14 am
  23   14   28 1
  24   14   29 1
  25   15   16 ar
  26   15   21 1
  27   16   17 ar
  28   16   30 1
  29   17   18 ar
  30   17   20 1
  31   18   19 ar
  32   18   31 1
  33   19   22 1

#	End of record

