#	Name: ASD01901096
#	Creating user name:	WinNT
#	Creation time:	15. 06. 2019 19:53

#	Modifying user name:	WinNT
#	Modification time:	15. 06. 2019 19:53

#	Program:	/corina/corina34_cracker 3.40 0067  02.08.2006

@<TRIPOS>MOLECULE
ASD01901096
  33   34    0    0    0
SMALL
NO_CHARGES


@<TRIPOS>ATOM
   1 C1            -0.0180     1.4732     0.0101 C.2     
   2 C2             0.0021    -0.0041     0.0020 C.ar    
   3 C3             1.2187    -0.6881    -0.0133 C.ar    
   4 C4             1.2294    -2.0724    -0.0209 C.ar    
   5 C5             0.0327    -2.7768    -0.0133 C.ar    
   6 C6            -1.1732    -2.1008     0.0019 C.ar    
   7 C7            -1.1958    -0.7211     0.0154 C.ar    
   8 O8             1.0256     2.0948     0.0035 O.2     
   9 O9            -1.1936     2.1308     0.0193 O.3     
  10 O10            2.4118    -2.7424    -0.0362 O.3     
  11 C11            2.3485    -4.1700    -0.0433 C.3     
  12 C12            3.7456    -4.7347    -0.0602 C.2     
  13 O13            4.7012    -3.9883    -0.0656 O.2     
  14 C14            2.8565    -7.0631    -0.0639 C.ar    
  15 C15            3.9500    -6.1913    -0.0701 C.ar    
  16 C16            5.2456    -6.7301    -0.0863 C.ar    
  17 C17            5.3828    -8.1054    -0.0955 C.ar    
  18 C18            4.2482    -8.9007    -0.0885 C.ar    
  19 N19            3.0402    -8.3663    -0.0737 N.ar    
  20 Cl20           4.4169   -10.6284    -0.1001 Cl      
  21 C21           -1.1373     3.5817     0.0269 C.3     
  22 H22            2.1488    -0.1391    -0.0195 H       
  23 H23            0.0441    -3.8567    -0.0196 H       
  24 H24           -2.1005    -2.6544     0.0077 H       
  25 H25           -2.1395    -0.1963     0.0321 H       
  26 H26            1.8279    -4.5150     0.8501 H       
  27 H27            1.8102    -4.5054    -0.9298 H       
  28 H28            1.8532    -6.6637    -0.0470 H       
  29 H29            6.1131    -6.0868    -0.0918 H       
  30 H30            6.3644    -8.5556    -0.1084 H       
  31 H31           -0.6140     3.9297    -0.8637 H       
  32 H32           -2.1501     3.9846     0.0339 H       
  33 H33           -0.6055     3.9200     0.9162 H       
@<TRIPOS>BOND
   1    1    2 1
   2    1    8 2
   3    1    9 1
   4    2    3 ar
   5    2    7 ar
   6    3    4 ar
   7    3   22 1
   8    4    5 ar
   9    4   10 1
  10    5    6 ar
  11    5   23 1
  12    6    7 ar
  13    6   24 1
  14    7   25 1
  15    9   21 1
  16   10   11 1
  17   11   12 1
  18   11   26 1
  19   11   27 1
  20   12   13 2
  21   12   15 1
  22   14   15 ar
  23   14   19 ar
  24   14   28 1
  25   15   16 ar
  26   16   17 ar
  27   16   29 1
  28   17   18 ar
  29   17   30 1
  30   18   19 ar
  31   18   20 1
  32   21   31 1
  33   21   32 1
  34   21   33 1

#	End of record

