#	Name: ASD03200007
#	Creating user name:	WinNT
#	Creation time:	15. 06. 2019 20:34

#	Modifying user name:	WinNT
#	Modification time:	15. 06. 2019 20:34

#	Program:	/corina/corina34_cracker 3.40 0067  02.08.2006

@<TRIPOS>MOLECULE
ASD03200007
  50   53    0    0    0
SMALL
NO_CHARGES


@<TRIPOS>ATOM
   1 C1             0.9674    -1.0244    -0.1637 C.3     
   2 N2            -0.0324     0.0396    -0.0055 N.3     
   3 C3             0.2984     0.9150     1.1262 C.3     
   4 C4             1.6452     1.5951     0.8700 C.3     
   5 C5             2.7266     0.5252     0.6951 C.3     
   6 C6             2.3341    -0.4022    -0.4583 C.3     
   7 C7            -1.3125    -0.4945     0.1336 C.ar    
   8 C8            -2.0171    -0.3609     1.3275 C.ar    
   9 C9            -3.2824    -0.9033     1.4255 C.ar    
  10 N10           -3.8280    -1.5427     0.4083 N.ar    
  11 C11           -3.1974    -1.6933    -0.7414 C.ar    
  12 C12           -1.9265    -1.1743    -0.9251 C.ar    
  13 N13           -1.2612    -1.3369    -2.1478 N.am    
  14 C14           -1.4456    -2.4589    -2.8714 C.2     
  15 C15           -0.8510    -2.5763    -4.2054 C.2     
  16 O16           -2.1061    -3.3749    -2.4165 O.2     
  17 C17           -1.0867    -3.6508    -5.0352 C.2     
  18 S18           -0.1872    -3.3934    -6.5281 S.3     
  19 C19            0.4259    -1.8656    -5.9058 C.2     
  20 N20           -0.0420    -1.6499    -4.7189 N.2     
  21 C21            1.3375    -0.9584    -6.6350 C.ar    
  22 C22            1.6946    -1.2364    -7.9548 C.ar    
  23 C23            2.5465    -0.3850    -8.6301 C.ar    
  24 C24            3.0455     0.7420    -8.0000 C.ar    
  25 C25            2.6951     1.0224    -6.6912 C.ar    
  26 C26            1.8400     0.1830    -6.0078 C.ar    
  27 N27            1.9857     2.4544     2.0117 N.3     
  28 N28           -1.8870    -4.7378    -4.7474 N.pl3   
  29 Br29           3.0328    -0.7595   -10.4187 Br      
  30 H30            1.0246    -1.6084     0.7548 H       
  31 H31            0.6785    -1.6742    -0.9897 H       
  32 H32           -0.4763     1.6737     1.2370 H       
  33 H33            0.3588     0.3218     2.0387 H       
  34 H34            1.5815     2.1994    -0.0348 H       
  35 H35            3.6795     1.0040     0.4694 H       
  36 H36            2.8176    -0.0544     1.6137 H       
  37 H37            3.0789    -1.1915    -0.5603 H       
  38 H38            2.2812     0.1708    -1.3841 H       
  39 H39           -1.5788     0.1600     2.1659 H       
  40 H40           -3.8341    -0.8032     2.3486 H       
  41 H41           -3.6795    -2.2235    -1.5494 H       
  42 H42           -0.6680    -0.6419    -2.4733 H       
  43 H43            1.3060    -2.1156    -8.4470 H       
  44 H44            3.7115     1.4050    -8.5322 H       
  45 H45            3.0882     1.9031    -6.2051 H       
  46 H46            1.5674     0.4032    -4.9862 H       
  47 H47            2.8717     2.9149     1.8662 H       
  48 H48            1.2540     3.1261     2.1896 H       
  49 H49           -2.3445    -4.7908    -3.8937 H       
  50 H50           -1.9920    -5.4488    -5.3988 H       
@<TRIPOS>BOND
   1    1    2 1
   2    1    6 1
   3    1   30 1
   4    1   31 1
   5    2    3 1
   6    2    7 1
   7    3    4 1
   8    3   32 1
   9    3   33 1
  10    4    5 1
  11    4   27 1
  12    4   34 1
  13    5    6 1
  14    5   35 1
  15    5   36 1
  16    6   37 1
  17    6   38 1
  18    7    8 ar
  19    7   12 ar
  20    8    9 ar
  21    8   39 1
  22    9   10 ar
  23    9   40 1
  24   10   11 ar
  25   11   12 ar
  26   11   41 1
  27   12   13 1
  28   13   14 am
  29   13   42 1
  30   14   15 1
  31   14   16 2
  32   15   17 2
  33   15   20 1
  34   17   18 1
  35   17   28 1
  36   18   19 1
  37   19   20 2
  38   19   21 1
  39   21   22 ar
  40   21   26 ar
  41   22   23 ar
  42   22   43 1
  43   23   24 ar
  44   23   29 1
  45   24   25 ar
  46   24   44 1
  47   25   26 ar
  48   25   45 1
  49   26   46 1
  50   27   47 1
  51   27   48 1
  52   28   49 1
  53   28   50 1

#	End of record

