#	Name: ASD01708044
#	Creating user name:	WinNT
#	Creation time:	15. 06. 2019 19:22

#	Modifying user name:	WinNT
#	Modification time:	15. 06. 2019 19:22

#	Program:	/corina/corina34_cracker 3.40 0067  02.08.2006

@<TRIPOS>MOLECULE
ASD01708044
  63   67    0    0    0
SMALL
NO_CHARGES


@<TRIPOS>ATOM
   1 C1            -0.0162     1.3436     0.0094 C.2     
   2 N2            -0.0088    -0.0042     0.0040 N.am    
   3 O3             1.0334     1.9572     0.0192 O.2     
   4 C4             1.2468    -0.7628    -0.1211 C.3     
   5 C5            -1.2507    -0.7745     0.1287 C.3     
   6 C6            -1.0500    -1.9084     1.1035 C.ar    
   7 C7             0.1964    -2.2656     1.5706 C.ar    
   8 C8             1.4516    -1.5476     1.1736 C.3     
   9 C9            -2.1781    -2.6004     1.5279 C.ar    
  10 C10           -2.0687    -3.6522     2.4112 C.ar    
  11 C11           -0.8077    -4.0268     2.8838 C.ar    
  12 C12            0.3200    -3.3269     2.4575 C.ar    
  13 Cl13           1.8901    -3.7858     3.0389 Cl      
  14 Cl14          -3.4870    -4.5060     2.9338 Cl      
  15 C15           -0.6712    -5.1548     3.8273 C.2     
  16 N16           -0.7266    -4.9329     5.1555 N.am    
  17 O17           -0.5088    -6.2835     3.4058 O.2     
  18 C18           -0.5913    -6.0519     6.0913 C.3     
  19 C19           -1.9344    -6.7055     6.2905 C.2     
  20 O20           -2.0524    -7.7601     7.1125 O.3     
  21 O21           -2.9052    -6.2803     5.7103 O.2     
  22 C22           -1.2984     2.0746    -0.0027 C.ar    
  23 C23           -0.0721    -5.5338     7.4341 C.3     
  24 C24            1.3225    -4.9906     7.2576 C.ar    
  25 C25            1.5102    -3.6596     6.9341 C.ar    
  26 C26           -1.4174     3.2843     0.6942 C.ar    
  27 C27           -2.5977     3.9672     0.6891 C.ar    
  28 C28           -3.6927     3.4600    -0.0135 C.ar    
  29 C29           -3.5860     2.2463    -0.7179 C.ar    
  30 C30           -2.3827     1.5608    -0.7121 C.ar    
  31 C31           -5.0692     3.9163    -0.2274 C.2     
  32 C32           -5.6545     2.9910    -1.0033 C.2     
  33 O33           -4.7836     2.0098    -1.2917 O.3     
  34 C34            2.4141    -5.8217     7.4249 C.ar    
  35 C35            3.6936    -5.3234     7.2630 C.ar    
  36 C36            3.8810    -3.9942     6.9336 C.ar    
  37 C37            2.7892    -3.1615     6.7722 C.ar    
  38 C38            4.8838    -6.2293     7.4463 C.3     
  39 O39            5.2188    -6.8346     6.1959 O.3     
  40 H40            1.1793    -1.4516    -0.9632 H       
  41 H41            2.0795    -0.0757    -0.2716 H       
  42 H42           -2.0469    -0.1231     0.4890 H       
  43 H43           -1.5263    -1.1782    -0.8456 H       
  44 H44            2.2485    -2.2758     1.0225 H       
  45 H45            1.7398    -0.8622     1.9706 H       
  46 H46           -3.1517    -2.3102     1.1614 H       
  47 H47           -0.8562    -4.0324     5.4918 H       
  48 H48            0.1111    -6.7808     5.6870 H       
  49 H49           -2.9340    -8.1457     7.2082 H       
  50 H50           -0.7275    -4.7415     7.7958 H       
  51 H51           -0.0555    -6.3498     8.1565 H       
  52 H52            0.6573    -3.0092     6.8074 H       
  53 H53           -0.5710     3.6772     1.2378 H       
  54 H54           -2.6855     4.8989     1.2281 H       
  55 H55           -2.2870     0.6284    -1.2487 H       
  56 H56           -5.5216     4.8165     0.1617 H       
  57 H57           -6.6780     3.0295    -1.3460 H       
  58 H58            2.2677    -6.8603     7.6823 H       
  59 H59            4.8804    -3.6049     6.8075 H       
  60 H60            2.9357    -2.1229     6.5148 H       
  61 H61            5.7317    -5.6468     7.8067 H       
  62 H62            4.6414    -7.0054     8.1723 H       
  63 H63            5.9778    -7.4322     6.2391 H       
@<TRIPOS>BOND
   1    1    2 am
   2    1    3 2
   3    1   22 1
   4    2    4 1
   5    2    5 1
   6    4    8 1
   7    4   40 1
   8    4   41 1
   9    5    6 1
  10    5   42 1
  11    5   43 1
  12    6    7 ar
  13    6    9 ar
  14    7    8 1
  15    7   12 ar
  16    8   44 1
  17    8   45 1
  18    9   10 ar
  19    9   46 1
  20   10   11 ar
  21   10   14 1
  22   11   12 ar
  23   11   15 1
  24   12   13 1
  25   15   16 am
  26   15   17 2
  27   16   18 1
  28   16   47 1
  29   18   19 1
  30   18   23 1
  31   18   48 1
  32   19   20 1
  33   19   21 2
  34   20   49 1
  35   22   26 ar
  36   22   30 ar
  37   23   24 1
  38   23   50 1
  39   23   51 1
  40   24   25 ar
  41   24   34 ar
  42   25   37 ar
  43   25   52 1
  44   26   27 ar
  45   26   53 1
  46   27   28 ar
  47   27   54 1
  48   28   29 ar
  49   28   31 1
  50   29   30 ar
  51   29   33 1
  52   30   55 1
  53   31   32 2
  54   31   56 1
  55   32   33 1
  56   32   57 1
  57   34   35 ar
  58   34   58 1
  59   35   36 ar
  60   35   38 1
  61   36   37 ar
  62   36   59 1
  63   37   60 1
  64   38   39 1
  65   38   61 1
  66   38   62 1
  67   39   63 1

#	End of record

