#	Name: ASD01884376
#	Creating user name:	WinNT
#	Creation time:	15. 06. 2019 19:48

#	Modifying user name:	WinNT
#	Modification time:	15. 06. 2019 19:48

#	Program:	/corina/corina34_cracker 3.40 0067  02.08.2006

@<TRIPOS>MOLECULE
ASD01884376
  48   50    0    0    0
SMALL
NO_CHARGES


@<TRIPOS>ATOM
   1 C1             3.0783     2.5302     1.2110 C.ar    
   2 C2             3.6129     2.1297     2.4183 C.ar    
   3 N3             2.9067     2.2091     3.5302 N.ar    
   4 C4             1.6703     2.6700     3.5388 C.ar    
   5 C5             1.0641     3.0899     2.3726 C.ar    
   6 C6             1.7759     3.0228     1.1773 C.ar    
   7 O7             1.2144     3.4263     0.0093 O.3     
   8 C8            -0.0165     3.9951     0.0573 C.ar    
   9 C9            -0.1392     5.3669     0.2384 C.ar    
  10 C10           -1.1523     3.2036    -0.0808 C.ar    
  11 C11           -2.4031     3.7757    -0.0328 C.ar    
  12 C12           -2.5332     5.1531     0.1547 C.ar    
  13 C13           -1.3901     5.9481     0.2876 C.ar    
  14 C14            0.9106     2.7381     4.8385 C.3     
  15 F15           -1.5103     7.2814     0.4697 F       
  16 B16           -3.9587     5.8088     0.2093 Du      
  17 C17            5.0208     1.5945     2.4676 C.3     
  18 O18           -4.2768     7.1956     0.3934 O.3     
  19 O19           -5.2283     5.1533     0.0799 O.3     
  20 C20           -6.0763     5.8051     1.0488 C.3     
  21 C21           -5.4293     7.1938     1.2619 C.3     
  22 C22           -7.4954     5.9585     0.4976 C.3     
  23 C23           -6.0945     5.0147     2.3587 C.3     
  24 C24           -4.9994     7.3634     2.7205 C.3     
  25 C25           -6.4033     8.3031     0.8596 C.3     
  26 H26            3.6632     2.4668     0.3054 H       
  27 H27            0.0516     3.4654     2.3865 H       
  28 H28            0.7447     5.9789     0.3412 H       
  29 H29           -1.0522     2.1382    -0.2262 H       
  30 H30           -3.2835     3.1595    -0.1406 H       
  31 H31            1.0831     3.7056     5.3099 H       
  32 H32           -0.1546     2.6136     4.6438 H       
  33 H33            1.2538     1.9443     5.5020 H       
  34 H34            5.7163     2.4165     2.6374 H       
  35 H35            5.1068     0.8724     3.2796 H       
  36 H36            5.2578     1.1076     1.5217 H       
  37 H37           -7.9153     4.9731     0.2959 H       
  38 H38           -8.1158     6.4748     1.2301 H       
  39 H39           -7.4659     6.5369    -0.4258 H       
  40 H40           -5.0789     4.9287     2.7452 H       
  41 H41           -6.7179     5.5330     3.0872 H       
  42 H42           -6.4995     4.0192     2.1767 H       
  43 H43           -4.2748     6.5909     2.9778 H       
  44 H44           -4.5460     8.3457     2.8537 H       
  45 H45           -5.8710     7.2745     3.3689 H       
  46 H46           -7.3045     8.2340     1.4688 H       
  47 H47           -5.9328     9.2739     1.0156 H       
  48 H48           -6.6664     8.1917    -0.1923 H       
@<TRIPOS>BOND
   1    1    2 ar
   2    1    6 ar
   3    1   26 1
   4    2    3 ar
   5    2   17 1
   6    3    4 ar
   7    4    5 ar
   8    4   14 1
   9    5    6 ar
  10    5   27 1
  11    6    7 1
  12    7    8 1
  13    8    9 ar
  14    8   10 ar
  15    9   13 ar
  16    9   28 1
  17   10   11 ar
  18   10   29 1
  19   11   12 ar
  20   11   30 1
  21   12   13 ar
  22   12   16 1
  23   13   15 1
  24   14   31 1
  25   14   32 1
  26   14   33 1
  27   16   18 1
  28   16   19 1
  29   17   34 1
  30   17   35 1
  31   17   36 1
  32   18   21 1
  33   19   20 1
  34   20   21 1
  35   20   22 1
  36   20   23 1
  37   21   24 1
  38   21   25 1
  39   22   37 1
  40   22   38 1
  41   22   39 1
  42   23   40 1
  43   23   41 1
  44   23   42 1
  45   24   43 1
  46   24   44 1
  47   24   45 1
  48   25   46 1
  49   25   47 1
  50   25   48 1

#	End of record

