#	Name: ASD01884308
#	Creating user name:	WinNT
#	Creation time:	15. 06. 2019 19:47

#	Modifying user name:	WinNT
#	Modification time:	15. 06. 2019 19:47

#	Program:	/corina/corina34_cracker 3.40 0067  02.08.2006

@<TRIPOS>MOLECULE
ASD01884308
  28   29    0    0    0
SMALL
NO_CHARGES


@<TRIPOS>ATOM
   1 C1             0.4234     1.2080    -0.4093 C.ar    
   2 C2             0.6302    -0.1516    -0.2987 C.ar    
   3 N3             1.7181    -0.6254     0.2786 N.ar    
   4 C4             2.6484     0.1704     0.7713 C.ar    
   5 C5             2.5156     1.5418     0.7005 C.ar    
   6 C6             1.3817     2.0822     0.0984 C.ar    
   7 C7            -0.3996    -1.1075    -0.8436 C.3     
   8 C8             3.8708    -0.4263     1.4200 C.3     
   9 O9             1.2146     3.4261     0.0093 O.3     
  10 C10            1.7230     4.0618    -1.0797 C.ar    
  11 C11            1.6780     5.4480    -1.1602 C.ar    
  12 C12            2.2924     3.3278    -2.1094 C.ar    
  13 C13            2.8086     3.9755    -3.2153 C.ar    
  14 C14            2.7586     5.3556    -3.2969 C.ar    
  15 C15            2.1962     6.0917    -2.2695 C.ar    
  16 F16            1.1286     6.1663    -0.1565 F       
  17 Br17           3.4674     6.2379    -4.8119 Br      
  18 H18           -0.4671     1.5893    -0.8868 H       
  19 H19            3.2803     2.1875     1.1064 H       
  20 H20           -0.1667    -1.3387    -1.8830 H       
  21 H21           -0.3898    -2.0257    -0.2562 H       
  22 H22           -1.3870    -0.6496    -0.7856 H       
  23 H23            4.6470    -0.5708     0.6685 H       
  24 H24            4.2363     0.2474     2.1950 H       
  25 H25            3.6132    -1.3871     1.8656 H       
  26 H26            2.3327     2.2504    -2.0466 H       
  27 H27            3.2520     3.4036    -4.0170 H       
  28 H28            2.1582     7.1690    -2.3353 H       
@<TRIPOS>BOND
   1    1    2 ar
   2    1    6 ar
   3    1   18 1
   4    2    3 ar
   5    2    7 1
   6    3    4 ar
   7    4    5 ar
   8    4    8 1
   9    5    6 ar
  10    5   19 1
  11    6    9 1
  12    7   20 1
  13    7   21 1
  14    7   22 1
  15    8   23 1
  16    8   24 1
  17    8   25 1
  18    9   10 1
  19   10   11 ar
  20   10   12 ar
  21   11   16 1
  22   11   15 ar
  23   12   13 ar
  24   12   26 1
  25   13   14 ar
  26   13   27 1
  27   14   15 ar
  28   14   17 1
  29   15   28 1

#	End of record

