#	Name: ASD00310330
#	Creating user name:	WinNT
#	Creation time:	15. 06. 2019 18:34

#	Modifying user name:	WinNT
#	Modification time:	15. 06. 2019 18:34

#	Program:	/corina/corina34_cracker 3.40 0067  02.08.2006

@<TRIPOS>MOLECULE
ASD00310330
  40   42    0    0    0
SMALL
NO_CHARGES


@<TRIPOS>ATOM
   1 C1            -0.0169     1.3952     0.0097 C.ar    
   2 C2             0.0021    -0.0041     0.0020 C.ar    
   3 C3             1.2143    -0.6751    -0.0132 C.ar    
   4 C4             2.3993     0.0359    -0.0207 C.ar    
   5 C5             2.3840     1.4197    -0.0131 C.ar    
   6 C6             1.1845     2.1017     0.0020 C.ar    
   7 C7            -1.3078     2.1221     0.0198 C.ar    
   8 C8            -1.5303     3.1365     0.9524 C.ar    
   9 C9            -2.7296     3.8117     0.9617 C.ar    
  10 C10           -3.7233     3.4821     0.0387 C.ar    
  11 C11           -3.5008     2.4678    -0.8939 C.ar    
  12 C12           -2.2994     1.7964    -0.9070 C.ar    
  13 O13           -1.1631    -0.7016     0.0098 O.3     
  14 O14           -6.1218     3.9325    -0.8840 O.3     
  15 B15           -5.0915     4.2520     0.0497 Du      
  16 O16           -5.3418     5.2917     0.9940 O.3     
  17 C17           -6.6004     5.1389     1.6620 C.3     
  18 C18           -7.7045     4.9719     0.6138 C.3     
  19 C19           -7.3973     3.7501    -0.2571 C.3     
  20 C20           -9.0492     4.7731     1.3162 C.3     
  21 C21           -7.7673     6.2226    -0.2652 C.3     
  22 H22            1.2331    -1.7549    -0.0188 H       
  23 H23            3.3420    -0.4909    -0.0321 H       
  24 H24            3.3144     1.9680    -0.0187 H       
  25 H25            1.1766     3.1816     0.0079 H       
  26 H26           -0.7616     3.3914     1.6668 H       
  27 H27           -2.9020     4.5964     1.6835 H       
  28 H28           -4.2698     2.2127    -1.6081 H       
  29 H29           -2.1256     1.0145    -1.6315 H       
  30 H30           -1.5093    -0.8989    -0.8712 H       
  31 H31           -6.5689     4.2573     2.3022 H       
  32 H32           -6.8021     6.0233     2.2664 H       
  33 H33           -8.1674     3.6440    -1.0211 H       
  34 H34           -7.3733     2.8555     0.3652 H       
  35 H35           -9.2666     5.6419     1.9374 H       
  36 H36           -9.8348     4.6542     0.5700 H       
  37 H37           -9.0041     3.8814     1.9415 H       
  38 H38           -6.8094     6.3631    -0.7661 H       
  39 H39           -8.5532     6.1034    -1.0111 H       
  40 H40           -7.9840     7.0922     0.3551 H       
@<TRIPOS>BOND
   1    1    2 ar
   2    1    6 ar
   3    1    7 1
   4    2    3 ar
   5    2   13 1
   6    3    4 ar
   7    3   22 1
   8    4    5 ar
   9    4   23 1
  10    5    6 ar
  11    5   24 1
  12    6   25 1
  13    7    8 ar
  14    7   12 ar
  15    8    9 ar
  16    8   26 1
  17    9   10 ar
  18    9   27 1
  19   10   11 ar
  20   10   15 1
  21   11   12 ar
  22   11   28 1
  23   12   29 1
  24   13   30 1
  25   14   15 1
  26   14   19 1
  27   15   16 1
  28   16   17 1
  29   17   18 1
  30   17   31 1
  31   17   32 1
  32   18   19 1
  33   18   20 1
  34   18   21 1
  35   19   33 1
  36   19   34 1
  37   20   35 1
  38   20   36 1
  39   20   37 1
  40   21   38 1
  41   21   39 1
  42   21   40 1

#	End of record

