#	Name: ASD01870290
#	Creating user name:	WinNT
#	Creation time:	15. 06. 2019 19:38

#	Modifying user name:	WinNT
#	Modification time:	15. 06. 2019 19:38

#	Program:	/corina/corina34_cracker 3.40 0067  02.08.2006

@<TRIPOS>MOLECULE
ASD01870290
  40   43    0    0    0
SMALL
NO_CHARGES


@<TRIPOS>ATOM
   1 C1            -0.0305     1.4002    -0.2324 C.ar    
   2 C2            -0.0275     0.0162    -0.1043 C.ar    
   3 C3             1.1507    -0.6609     0.1405 C.ar    
   4 C4             2.3476     0.0295     0.2622 C.ar    
   5 C5             2.3623     1.4086     0.1373 C.ar    
   6 C6             1.1606     2.1035    -0.1129 C.ar    
   7 C7             3.4185     2.4403     0.2052 C.2     
   8 N8             2.8535     3.6449     0.0064 N.am    
   9 C9             1.5272     3.5314    -0.1873 C.2     
  10 O10            0.7595     4.4505    -0.3912 O.2     
  11 O11            4.5984     2.2350     0.4070 O.2     
  12 C12            3.5553     4.8603     0.0029 C.ar    
  13 C13            4.0858     5.3521    -1.1820 C.ar    
  14 C14            4.7762     6.5475    -1.1858 C.ar    
  15 C15            4.9405     7.2589    -0.0041 C.ar    
  16 C16            4.4097     6.7678     1.1814 C.ar    
  17 C17            3.7142     5.5740     1.1842 C.ar    
  18 N18            5.6413     8.4704    -0.0082 N.am    
  19 C19            6.4140     8.8055     1.0440 C.2     
  20 C20            7.2277    10.0244     0.9973 C.2     
  21 O21            6.4364     8.0964     2.0329 O.2     
  22 C22            8.0505    10.4784     1.9882 C.2     
  23 C23            8.6274    11.6691     1.5197 C.2     
  24 C24            8.1378    11.8871     0.2792 C.2     
  25 O25            7.2992    10.8908    -0.0343 O.3     
  26 C26            8.2917     9.8275     3.3258 C.3     
  27 F27           -1.1854     2.0571    -0.4775 F       
  28 Cl28           3.0446     4.9627     2.6646 Cl      
  29 H29           -0.9528    -0.5331    -0.1966 H       
  30 H30            1.1402    -1.7364     0.2385 H       
  31 H31            3.2652    -0.5068     0.4541 H       
  32 H32            3.9586     4.7991    -2.1009 H       
  33 H33            5.1890     6.9295    -2.1078 H       
  34 H34            4.5376     7.3206     2.1004 H       
  35 H35            5.5709     9.0689    -0.7683 H       
  36 H36            9.3305    12.2937     2.0508 H       
  37 H37            8.3851    12.7245    -0.3564 H       
  38 H38            9.1292     9.1343     3.2469 H       
  39 H39            8.5226    10.5934     4.0662 H       
  40 H40            7.3978     9.2840     3.6319 H       
@<TRIPOS>BOND
   1    1    2 ar
   2    1    6 ar
   3    1   27 1
   4    2    3 ar
   5    2   29 1
   6    3    4 ar
   7    3   30 1
   8    4    5 ar
   9    4   31 1
  10    5    7 1
  11    5    6 ar
  12    6    9 1
  13    7    8 am
  14    7   11 2
  15    8    9 am
  16    8   12 1
  17    9   10 2
  18   12   13 ar
  19   12   17 ar
  20   13   14 ar
  21   13   32 1
  22   14   15 ar
  23   14   33 1
  24   15   16 ar
  25   15   18 1
  26   16   17 ar
  27   16   34 1
  28   17   28 1
  29   18   19 am
  30   18   35 1
  31   19   20 1
  32   19   21 2
  33   20   22 2
  34   20   25 1
  35   22   23 1
  36   22   26 1
  37   23   24 2
  38   23   36 1
  39   24   25 1
  40   24   37 1
  41   26   38 1
  42   26   39 1
  43   26   40 1

#	End of record

