#	Name: ASD01880599
#	Creating user name:	WinNT
#	Creation time:	15. 06. 2019 19:41

#	Modifying user name:	WinNT
#	Modification time:	15. 06. 2019 19:41

#	Program:	/corina/corina34_cracker 3.40 0067  02.08.2006

@<TRIPOS>MOLECULE
ASD01880599
  45   47    0    0    0
SMALL
NO_CHARGES


@<TRIPOS>ATOM
   1 N1            -0.0158     1.3134     0.0093 N.ar    
   2 C2             0.0021    -0.0041     0.0020 C.ar    
   3 N3             1.1311    -0.6837    -0.0120 N.ar    
   4 C4             2.3015    -0.0611    -0.0198 C.ar    
   5 C5             2.3292     1.3225    -0.0131 C.ar    
   6 C6             1.1166     2.0081     0.0022 C.ar    
   7 C7             3.6384     2.0688    -0.0211 C.3     
   8 O8             4.0401     2.3115    -1.3708 O.3     
   9 C9             5.2073     2.9787    -1.5557 C.ar    
  10 C10            5.6571     3.2483    -2.8446 C.ar    
  11 C11            6.8377     3.9237    -3.0303 C.ar    
  12 C12            7.5934     4.3438    -1.9306 C.ar    
  13 C13            7.1368     4.0708    -0.6382 C.ar    
  14 C14            5.9492     3.3972    -0.4576 C.ar    
  15 C15            7.5921     4.3663    -4.2593 C.3     
  16 N16            8.7976     5.0492    -3.7762 N.am    
  17 C17            8.7943     5.0339    -2.4322 C.2     
  18 O18            9.6594     5.5209    -1.7302 O.2     
  19 Br19           3.9126    -1.0509    -0.0392 Br      
  20 C20           -0.0185     5.5091     0.0300 C.3     
  21 F21            0.6782     5.9031    -1.1174 F       
  22 F22            0.7009     5.8923     1.1670 F       
  23 F23           -1.2761     6.1219     0.0453 F       
  24 C24           10.5636     7.7364    -5.7828 C.3     
  25 C25            9.4808     7.1103    -4.9016 C.3     
  26 C26            9.8344     5.6487    -4.6199 C.3     
  27 O27            1.0925     3.3631     0.0088 O.3     
  28 C28           -0.1920     3.9890     0.0245 C.3     
  29 H29           -0.9345    -0.5419     0.0081 H       
  30 H30            3.5179     3.0193     0.4987 H       
  31 H31            4.3993     1.4730     0.4829 H       
  32 H32            5.0785     2.9262    -3.6977 H       
  33 H33            7.7128     4.3904     0.2176 H       
  34 H34            5.5967     3.1869     0.5413 H       
  35 H35            7.8678     3.5008    -4.8617 H       
  36 H36            6.9822     5.0531    -4.8462 H       
  37 H37           10.6270     7.1900    -6.7239 H       
  38 H38           10.3116     8.7777    -5.9835 H       
  39 H39           11.5235     7.6874    -5.2688 H       
  40 H40            9.4173     7.6567    -3.9606 H       
  41 H41            8.5208     7.1593    -5.4156 H       
  42 H42           10.7944     5.5997    -4.1060 H       
  43 H43            9.8979     5.1023    -5.5610 H       
  44 H44           -0.7348     3.6820     0.9185 H       
  45 H45           -0.7525     3.6904    -0.8614 H       
@<TRIPOS>BOND
   1    1    2 ar
   2    1    6 ar
   3    2    3 ar
   4    2   29 1
   5    3    4 ar
   6    4    5 ar
   7    4   19 1
   8    5    6 ar
   9    5    7 1
  10    6   27 1
  11    7    8 1
  12    7   30 1
  13    7   31 1
  14    8    9 1
  15    9   10 ar
  16    9   14 ar
  17   10   11 ar
  18   10   32 1
  19   11   12 ar
  20   11   15 1
  21   12   13 ar
  22   12   17 1
  23   13   14 ar
  24   13   33 1
  25   14   34 1
  26   15   16 1
  27   15   35 1
  28   15   36 1
  29   16   17 am
  30   16   26 1
  31   17   18 2
  32   20   21 1
  33   20   22 1
  34   20   23 1
  35   20   28 1
  36   24   25 1
  37   24   37 1
  38   24   38 1
  39   24   39 1
  40   25   26 1
  41   25   40 1
  42   25   41 1
  43   26   42 1
  44   26   43 1
  45   27   28 1
  46   28   44 1
  47   28   45 1

#	End of record

