#	Name: ASD00841944
#	Creating user name:	WinNT
#	Creation time:	15. 06. 2019 18:43

#	Modifying user name:	WinNT
#	Modification time:	15. 06. 2019 18:43

#	Program:	/corina/corina34_cracker 3.40 0067  02.08.2006

@<TRIPOS>MOLECULE
ASD00841944
  85   90    0    0    0
SMALL
NO_CHARGES


@<TRIPOS>ATOM
   1 C1             0.9808     1.5572    -0.3566 C.ar    
   2 C2             1.2953     0.2308    -0.6135 C.ar    
   3 C3             1.2390    -0.7040     0.4103 C.ar    
   4 C4             0.8702    -0.3119     1.6823 C.ar    
   5 C5             0.5567     1.0109     1.9358 C.ar    
   6 C6             0.6125     1.9443     0.9175 C.ar    
   7 C7             1.5795    -2.1459     0.1346 C.3     
   8 C8             1.3247    -2.9950     1.3617 C.2     
   9 C9             0.7719    -2.6678    -1.0555 C.3     
  10 C10           -0.6972    -2.4508    -0.7996 C.2     
  11 N11           -1.6101    -2.9226    -1.6717 N.am    
  12 O12           -1.0581    -1.8515     0.1911 O.2     
  13 C13           -3.0377    -2.6226    -1.4966 C.3     
  14 C14           -3.8218    -3.9386    -1.4969 C.3     
  15 C15           -3.4957    -4.7217    -2.7707 C.3     
  16 C16           -2.0012    -5.0499    -2.8014 C.3     
  17 C17           -1.1959    -3.7418    -2.8189 C.3     
  18 C18           -4.3034    -6.0210    -2.7911 C.3     
  19 C19           -5.7990    -5.6943    -2.7623 C.3     
  20 C20           -6.6019    -6.9945    -2.8443 C.3     
  21 N21           -6.2615    -7.7041    -4.0840 N.3     
  22 C22           -4.8397    -8.0701    -4.1131 C.3     
  23 C23           -3.9842    -6.8019    -4.0689 C.3     
  24 C24           -7.1134    -8.8872    -4.2643 C.3     
  25 O25            0.2583    -3.1583     1.9159 O.2     
  26 N26            2.5019    -3.5334     1.7218 N.am    
  27 C27            3.0615    -2.3009    -0.1186 C.ar    
  28 C28            3.5413    -3.1464     0.8742 C.ar    
  29 C29            3.9056    -1.7871    -1.0772 C.ar    
  30 C30            5.2516    -2.1123    -1.0587 C.ar    
  31 C31            5.7427    -2.9545    -0.0738 C.ar    
  32 C32            4.8959    -3.4705     0.8885 C.ar    
  33 Cl33           6.3200    -1.4675    -2.2655 Cl      
  34 F34            7.0556    -3.2727    -0.0545 F       
  35 C35            2.4523    -6.1879     2.4468 C.ar    
  36 C36            3.5248    -6.9227     1.9769 C.ar    
  37 C37            1.1885    -6.7475     2.4708 C.ar    
  38 C38            0.9972    -8.0420     2.0250 C.ar    
  39 C39            2.0696    -8.7766     1.5548 C.ar    
  40 C40            3.3334    -8.2170     1.5307 C.ar    
  41 H41            1.9202    -9.7880     1.2065 H       
  42 H42            4.5121    -6.4855     1.9581 H       
  43 S43            2.6973    -4.5405     3.0217 S.o2    
  44 O44            4.0638    -4.4467     3.4002 O.2     
  45 O45            1.6239    -4.2617     3.9102 O.2     
  46 O46            1.6574    -0.1525    -1.8660 O.3     
  47 C47            2.1222     0.2544    -4.2025 C.3     
  48 C48            1.5850     0.8376    -2.8939 C.3     
  49 H49            1.0282     2.2875    -1.1508 H       
  50 H50            0.8262    -1.0391     2.4796 H       
  51 H51            0.2679     1.3154     2.9309 H       
  52 H52            0.3672     2.9768     1.1180 H       
  53 H53            1.0667    -2.1317    -1.9577 H       
  54 H54            0.9646    -3.7326    -1.1864 H       
  55 H55           -3.1891    -2.1073    -0.5481 H       
  56 H56           -3.3818    -1.9920    -2.3164 H       
  57 H57           -3.5414    -4.5294    -0.6249 H       
  58 H58           -4.8902    -3.7255    -1.4643 H       
  59 H59           -3.7534    -4.1205    -3.6426 H       
  60 H60           -1.7380    -5.6302    -1.9170 H       
  61 H61           -1.7739    -5.6277    -3.6972 H       
  62 H62           -1.3909    -3.2050    -3.7473 H       
  63 H63           -0.1322    -3.9665    -2.7409 H       
  64 H64           -4.0454    -6.6240    -1.9205 H       
  65 H65           -6.0403    -5.1755    -1.8345 H       
  66 H66           -6.0490    -5.0580    -3.6113 H       
  67 H67           -6.3618    -7.6243    -1.9877 H       
  68 H68           -7.6674    -6.7644    -2.8383 H       
  69 H69           -4.6078    -8.6948    -3.2505 H       
  70 H70           -4.6252    -8.6212    -5.0287 H       
  71 H71           -4.2056    -6.1832    -4.9385 H       
  72 H72           -2.9288    -7.0745    -4.0747 H       
  73 H73           -8.1577    -8.5789    -4.3136 H       
  74 H74           -6.8402    -9.3940    -5.1898 H       
  75 H75           -6.9745    -9.5666    -3.4233 H       
  76 H76            3.5184    -1.1314    -1.8430 H       
  77 H77            5.2851    -4.1260     1.6535 H       
  78 H78            0.3507    -6.1736     2.8381 H       
  79 H79            0.0100    -8.4795     2.0444 H       
  80 H80            4.1713    -8.7911     1.1637 H       
  81 H81            1.4715    -0.5549    -4.5337 H       
  82 H82            2.1486     1.0340    -4.9638 H       
  83 H83            3.1290    -0.1312    -4.0422 H       
  84 H84            0.5479     1.1436    -3.0312 H       
  85 H85            2.1843     1.7022    -2.6084 H       
@<TRIPOS>BOND
   1    1    2 ar
   2    1    6 ar
   3    1   49 1
   4    2    3 ar
   5    2   46 1
   6    3    4 ar
   7    3    7 1
   8    4    5 ar
   9    4   50 1
  10    5    6 ar
  11    5   51 1
  12    6   52 1
  13    7    8 1
  14    7    9 1
  15    7   27 1
  16    8   25 2
  17    8   26 am
  18    9   10 1
  19    9   53 1
  20    9   54 1
  21   10   11 am
  22   10   12 2
  23   11   13 1
  24   11   17 1
  25   13   14 1
  26   13   55 1
  27   13   56 1
  28   14   15 1
  29   14   57 1
  30   14   58 1
  31   15   16 1
  32   15   18 1
  33   15   59 1
  34   16   17 1
  35   16   60 1
  36   16   61 1
  37   17   62 1
  38   17   63 1
  39   18   19 1
  40   18   23 1
  41   18   64 1
  42   19   20 1
  43   19   65 1
  44   19   66 1
  45   20   21 1
  46   20   67 1
  47   20   68 1
  48   21   22 1
  49   21   24 1
  50   22   23 1
  51   22   69 1
  52   22   70 1
  53   23   71 1
  54   23   72 1
  55   24   73 1
  56   24   74 1
  57   24   75 1
  58   26   43 am
  59   26   28 1
  60   27   28 ar
  61   27   29 ar
  62   28   32 ar
  63   29   30 ar
  64   29   76 1
  65   30   31 ar
  66   30   33 1
  67   31   32 ar
  68   31   34 1
  69   32   77 1
  70   35   36 ar
  71   35   37 ar
  72   35   43 1
  73   36   42 1
  74   36   40 ar
  75   37   38 ar
  76   37   78 1
  77   38   39 ar
  78   38   79 1
  79   39   40 ar
  80   39   41 1
  81   40   80 1
  82   43   44 2
  83   43   45 2
  84   46   48 1
  85   47   48 1
  86   47   81 1
  87   47   82 1
  88   47   83 1
  89   48   84 1
  90   48   85 1

#	End of record

