#	Name: ASD08178097
#	Creating user name:	WinNT
#	Creation time:	15. 06. 2019 21:18

#	Modifying user name:	WinNT
#	Modification time:	15. 06. 2019 21:18

#	Program:	/corina/corina34_cracker 3.40 0067  02.08.2006

@<TRIPOS>MOLECULE
ASD08178097
  67   70    0    0    0
SMALL
NO_CHARGES


@<TRIPOS>ATOM
   1 C1            -0.0184     1.5028     0.0103 C.2     
   2 C2             0.0021    -0.0041     0.0020 C.3     
   3 C3             0.0221    -0.5218     1.4416 C.3     
   4 C4             0.0906    -4.2741     3.3609 C.3     
   5 C5             0.1086    -4.6210     4.8273 C.2     
   6 N6            -0.9281    -4.8115     5.5801 N.2     
   7 N7            -0.7035    -5.0951     6.7896 N.2     
   8 C8             0.5358    -5.1706     7.1711 C.2     
   9 S9             1.5453    -4.8479     5.8252 S.3     
  10 N10            0.9711    -5.4695     8.4577 N.am    
  11 N11            1.0171     2.2809     0.0046 N.2     
  12 C12            0.0736    -5.7112     9.4337 C.2     
  13 O13           -1.1137    -5.6681     9.1899 O.2     
  14 C14            0.5452    -6.0351    10.8278 C.3     
  15 C15           -0.6469    -6.2610    11.7217 C.ar    
  16 N16            0.7904     3.5228     0.0134 N.2     
  17 C17           -0.4495     3.9094     0.0274 C.2     
  18 S18           -1.4568     2.5237     0.0218 S.3     
  19 N19           -0.8870     5.2295     0.0390 N.am    
  20 C20            0.0089     6.2364     0.0358 C.2     
  21 O21            1.1967     5.9912     0.0228 O.2     
  22 C22           -0.4651     7.6668     0.0485 C.3     
  23 C23            0.7256     8.5906     0.0419 C.ar    
  24 C24            0.0684    -2.7531     3.1968 C.3     
  25 S25            0.0467    -2.3356     1.4317 S.3     
  26 C26            1.3263     8.9401    -1.1585 C.ar    
  27 C27            2.4221     9.7913    -1.1612 C.ar    
  28 C28            2.9120    10.2884     0.0307 C.ar    
  29 C29            2.3115     9.9381     1.2262 C.ar    
  30 C30            1.2161     9.0948     1.2311 C.ar    
  31 O31            0.8428     8.4494    -2.3299 O.3     
  32 C32            1.5112     8.8518    -3.5271 C.3     
  33 C33           -1.2457    -7.5110    11.7773 C.ar    
  34 C34           -2.3429    -7.7159    12.6016 C.ar    
  35 C35           -2.8360    -6.6754    13.3645 C.ar    
  36 C36           -2.2374    -5.4301    13.3069 C.ar    
  37 C37           -1.1407    -5.2248    12.4907 C.ar    
  38 O38           -0.7590    -8.5330    11.0254 O.3     
  39 C39           -1.4256    -9.7924    11.1332 C.3     
  40 H40           -0.8875    -0.3767    -0.5057 H       
  41 H41            0.8922    -0.3525    -0.5218 H       
  42 H42            0.9118    -0.1491     1.9494 H       
  43 H43           -0.8680    -0.1733     1.9655 H       
  44 H44            0.9818    -4.6784     2.8810 H       
  45 H45           -0.7979    -4.7026     2.8970 H       
  46 H46            1.9207    -5.5040     8.6527 H       
  47 H47            1.1575    -6.9366    10.8040 H       
  48 H48            1.1363    -5.2045    11.2136 H       
  49 H49           -1.8369     5.4256     0.0495 H       
  50 H50           -1.0758     7.8550    -0.8345 H       
  51 H51           -1.0583     7.8451     0.9454 H       
  52 H52           -0.8229    -2.3488     3.6768 H       
  53 H53            0.9569    -2.3246     3.6607 H       
  54 H54            2.8918    10.0646    -2.0945 H       
  55 H55            3.7649    10.9510     0.0291 H       
  56 H56            2.6965    10.3273     2.1572 H       
  57 H57            0.7489     8.8226     2.1660 H       
  58 H58            2.5535     8.5356    -3.4851 H       
  59 H59            1.0259     8.3902    -4.3870 H       
  60 H60            1.4642     9.9366    -3.6224 H       
  61 H61           -2.8111    -8.6881    12.6465 H       
  62 H62           -3.6899    -6.8344    14.0063 H       
  63 H63           -2.6249    -4.6176    13.9036 H       
  64 H64           -0.6750    -4.2514    12.4474 H       
  65 H65           -0.9377   -10.5185    10.4829 H       
  66 H66           -1.3801   -10.1405    12.1651 H       
  67 H67           -2.4675    -9.6788    10.8336 H       
@<TRIPOS>BOND
   1    1    2 1
   2    1   11 2
   3    1   18 1
   4    2    3 1
   5    2   40 1
   6    2   41 1
   7    3   25 1
   8    3   42 1
   9    3   43 1
  10    4    5 1
  11    4   24 1
  12    4   44 1
  13    4   45 1
  14    5    6 2
  15    5    9 1
  16    6    7 1
  17    7    8 2
  18    8    9 1
  19    8   10 1
  20   10   12 am
  21   10   46 1
  22   11   16 1
  23   12   13 2
  24   12   14 1
  25   14   15 1
  26   14   47 1
  27   14   48 1
  28   15   33 ar
  29   15   37 ar
  30   16   17 2
  31   17   18 1
  32   17   19 1
  33   19   20 am
  34   19   49 1
  35   20   21 2
  36   20   22 1
  37   22   23 1
  38   22   50 1
  39   22   51 1
  40   23   26 ar
  41   23   30 ar
  42   24   25 1
  43   24   52 1
  44   24   53 1
  45   26   27 ar
  46   26   31 1
  47   27   28 ar
  48   27   54 1
  49   28   29 ar
  50   28   55 1
  51   29   30 ar
  52   29   56 1
  53   30   57 1
  54   31   32 1
  55   32   58 1
  56   32   59 1
  57   32   60 1
  58   33   34 ar
  59   33   38 1
  60   34   35 ar
  61   34   61 1
  62   35   36 ar
  63   35   62 1
  64   36   37 ar
  65   36   63 1
  66   37   64 1
  67   38   39 1
  68   39   65 1
  69   39   66 1
  70   39   67 1

#	End of record

