#	Name: ASD03092311
#	Creating user name:	WinNT
#	Creation time:	15. 06. 2019 20:32

#	Modifying user name:	WinNT
#	Modification time:	15. 06. 2019 20:32

#	Program:	/corina/corina34_cracker 3.40 0067  02.08.2006

@<TRIPOS>MOLECULE
ASD03092311
  61   64    0    0    0
SMALL
NO_CHARGES


@<TRIPOS>ATOM
   1 C1             0.0771     1.1540    -0.1544 C.ar    
   2 C2             0.1739    -0.2346    -0.0537 C.ar    
   3 C3             1.4424    -0.8187     0.0423 C.ar    
   4 C4             2.5494     0.0120     0.0330 C.ar    
   5 C5             2.3688     1.3793    -0.0698 C.ar    
   6 N6             1.1605     1.9021    -0.1590 N.ar    
   7 C7            -1.0428    -1.0745    -0.0482 C.2     
   8 O8            -2.1408    -0.5536    -0.0248 O.2     
   9 N9            -0.9344    -2.4177    -0.0690 N.am    
  10 C10           -1.2789     1.8022    -0.2650 C.3     
  11 C11           -2.1400    -3.2500    -0.0635 C.3     
  12 S12           -1.1817    -7.0608    -0.8099 S.3     
  13 C13           -1.1212    -6.6308     0.8434 C.2     
  14 N14           -1.4451    -5.3819     0.9964 N.2     
  15 C15           -1.7465    -4.7045    -0.0901 C.2     
  16 C16           -1.6734    -5.4222    -1.2305 C.2     
  17 C17           -3.0271    -5.1311    -4.7215 C.ar    
  18 C18           -2.7906    -5.6352    -3.4610 C.ar    
  19 C19           -1.9553    -4.9225    -2.5903 C.ar    
  20 C20           -1.3956    -3.7217    -3.0469 C.ar    
  21 C21           -1.6862    -3.2924    -4.3237 C.ar    
  22 N22           -2.4791    -3.9951    -5.1115 N.ar    
  23 C23           -1.0910    -2.0029    -4.8277 C.3     
  24 C24           -3.9184    -5.8903    -5.6703 C.3     
  25 N25           -0.7771    -7.4896     1.8714 N.3     
  26 C26           -0.4668    -8.8309     1.3557 C.3     
  27 C27           -0.1503    -9.7622     2.5289 C.3     
  28 O28            0.9281    -9.2120     3.2902 O.3     
  29 C29            0.6597    -7.9063     3.8083 C.3     
  30 C30            0.3514    -6.9562     2.6481 C.3     
  31 C31            1.8838    -7.3985     4.5730 C.3     
  32 C32            0.2515   -11.1385     1.9947 C.3     
  33 H33            1.5544    -1.8899     0.1219 H       
  34 H34            3.5437    -0.4032     0.1057 H       
  35 H35            3.2309     2.0299    -0.0772 H       
  36 H36           -0.0582    -2.8334    -0.0877 H       
  37 H37           -1.7086     1.9179     0.7300 H       
  38 H38           -1.1764     2.7815    -0.7326 H       
  39 H39           -1.9324     1.1762    -0.8725 H       
  40 H40           -2.7180    -3.0464     0.8380 H       
  41 H41           -2.7438    -3.0209    -0.9416 H       
  42 H42           -3.2426    -6.5650    -3.1486 H       
  43 H43           -0.7466    -3.1413    -2.4078 H       
  44 H44           -0.1340    -2.2075    -5.3076 H       
  45 H45           -1.7692    -1.5472    -5.5491 H       
  46 H46           -0.9394    -1.3212    -3.9907 H       
  47 H47           -4.9497    -5.5621    -5.5413 H       
  48 H48           -3.6023    -5.7007    -6.6961 H       
  49 H49           -3.8477    -6.9575    -5.4597 H       
  50 H50           -1.3251    -9.2170     0.8058 H       
  51 H51            0.3962    -8.7751     0.6922 H       
  52 H52           -1.0310    -9.8603     3.1636 H       
  53 H53           -0.1975    -7.9504     4.4802 H       
  54 H54            1.2275    -6.8704     2.0052 H       
  55 H55            0.0903    -5.9738     3.0416 H       
  56 H56            2.7397    -7.3530     3.8996 H       
  57 H57            1.6786    -6.4033     4.9676 H       
  58 H58            2.1051    -8.0774     5.3965 H       
  59 H59            1.1333   -11.0393     1.3618 H       
  60 H60            0.4767   -11.8010     2.8304 H       
  61 H61           -0.5694   -11.5556     1.4113 H       
@<TRIPOS>BOND
   1    1    2 ar
   2    1    6 ar
   3    1   10 1
   4    2    3 ar
   5    2    7 1
   6    3    4 ar
   7    3   33 1
   8    4    5 ar
   9    4   34 1
  10    5    6 ar
  11    5   35 1
  12    7    8 2
  13    7    9 am
  14    9   11 1
  15    9   36 1
  16   10   37 1
  17   10   38 1
  18   10   39 1
  19   11   15 1
  20   11   40 1
  21   11   41 1
  22   12   13 1
  23   12   16 1
  24   13   14 2
  25   13   25 1
  26   14   15 1
  27   15   16 2
  28   16   19 1
  29   17   18 ar
  30   17   22 ar
  31   17   24 1
  32   18   19 ar
  33   18   42 1
  34   19   20 ar
  35   20   21 ar
  36   20   43 1
  37   21   22 ar
  38   21   23 1
  39   23   44 1
  40   23   45 1
  41   23   46 1
  42   24   47 1
  43   24   48 1
  44   24   49 1
  45   25   26 1
  46   25   30 1
  47   26   27 1
  48   26   50 1
  49   26   51 1
  50   27   28 1
  51   27   32 1
  52   27   52 1
  53   28   29 1
  54   29   30 1
  55   29   31 1
  56   29   53 1
  57   30   54 1
  58   30   55 1
  59   31   56 1
  60   31   57 1
  61   31   58 1
  62   32   59 1
  63   32   60 1
  64   32   61 1

#	End of record

