#	Name: ASD01881773
#	Creating user name:	WinNT
#	Creation time:	15. 06. 2019 19:43

#	Modifying user name:	WinNT
#	Modification time:	15. 06. 2019 19:43

#	Program:	/corina/corina34_cracker 3.40 0067  02.08.2006

@<TRIPOS>MOLECULE
ASD01881773
  39   41    0    0    0
SMALL
NO_CHARGES


@<TRIPOS>ATOM
   1 C1            -0.0187     1.5258     0.0104 C.3     
   2 C2             0.0021    -0.0041     0.0020 C.3     
   3 C3            -1.4266    -0.5342     0.1385 C.3     
   4 C4            -1.3956    -2.0595     0.2555 C.3     
   5 O5             1.3220     2.0204     0.0003 O.3     
   6 O6             0.5662    -0.4660    -1.2270 O.3     
   7 O7            -2.7300    -2.5546     0.3830 O.3     
   8 N8            -3.6097    -7.9400     0.8612 N.pl3   
   9 N9            -5.0074    -7.8610     0.9488 N.2     
  10 N10           -5.3720    -6.6295     0.8775 N.2     
  11 C11           -4.2956    -5.8292     0.7432 C.ar    
  12 C12           -3.1532    -6.6482     0.7302 C.ar    
  13 C13           -4.1438    -4.4409     0.6243 C.ar    
  14 C14           -2.8804    -3.9013     0.4981 C.ar    
  15 C15           -1.7579    -4.7257     0.4871 C.ar    
  16 C16           -1.8905    -6.0810     0.6007 C.ar    
  17 C17           -2.7957    -9.1571     0.9066 C.3     
  18 C18           -2.6083    -9.6987    -0.5120 C.3     
  19 C19           -1.6856   -10.9058    -0.6913 C.3     
  20 C20           -3.2002   -11.0739    -0.8271 C.3     
  21 Br21          -5.6621    -3.3137     0.6379 Br      
  22 H22           -0.5459     1.8868    -0.8726 H       
  23 H23           -0.5289     1.8773     0.9072 H       
  24 H24            0.6044    -0.3639     0.8362 H       
  25 H25           -1.8876    -0.1107     1.0309 H       
  26 H26           -2.0055    -0.2489    -0.7398 H       
  27 H27           -0.9346    -2.4830    -0.6369 H       
  28 H28           -0.8167    -2.3448     1.1338 H       
  29 H29            1.3852     2.9853     0.0049 H       
  30 H30            0.0804    -0.1829    -2.0137 H       
  31 H31           -0.7746    -4.2903     0.3873 H       
  32 H32           -1.0139    -6.7117     0.5909 H       
  33 H33           -1.8220    -8.9271     1.3392 H       
  34 H34           -3.2971    -9.9070     1.5185 H       
  35 H35           -2.6197    -8.9517    -1.3057 H       
  36 H36           -1.0902   -10.9532    -1.6030 H       
  37 H37           -1.2119   -11.3142     0.2015 H       
  38 H38           -3.7231   -11.5929    -0.0237 H       
  39 H39           -3.6013   -11.2319    -1.8282 H       
@<TRIPOS>BOND
   1    1    2 1
   2    1    5 1
   3    1   22 1
   4    1   23 1
   5    2    3 1
   6    2    6 1
   7    2   24 1
   8    3    4 1
   9    3   25 1
  10    3   26 1
  11    4    7 1
  12    4   27 1
  13    4   28 1
  14    5   29 1
  15    6   30 1
  16    7   14 1
  17    8    9 1
  18    8   12 1
  19    8   17 1
  20    9   10 2
  21   10   11 1
  22   11   12 ar
  23   11   13 ar
  24   12   16 ar
  25   13   14 ar
  26   13   21 1
  27   14   15 ar
  28   15   16 ar
  29   15   31 1
  30   16   32 1
  31   17   18 1
  32   17   33 1
  33   17   34 1
  34   18   19 1
  35   18   20 1
  36   18   35 1
  37   19   20 1
  38   19   36 1
  39   19   37 1
  40   20   38 1
  41   20   39 1

#	End of record

