#	Name: ASD00841179
#	Creating user name:	WinNT
#	Creation time:	15. 06. 2019 18:41

#	Modifying user name:	WinNT
#	Modification time:	15. 06. 2019 18:41

#	Program:	/corina/corina34_cracker 3.40 0067  02.08.2006

@<TRIPOS>MOLECULE
ASD00841179
  82   87    0    0    0
SMALL
NO_CHARGES


@<TRIPOS>ATOM
   1 F1            -0.1145    -3.1353     4.7190 F       
   2 N2            -0.0159     1.3183     0.0093 N.ar    
   3 C3             0.0021    -0.0041     0.0020 C.ar    
   4 C4             1.2069    -0.6955    -0.0132 C.ar    
   5 C5             2.3925     0.0180    -0.0207 C.ar    
   6 C6             2.3308     1.4049    -0.0127 C.ar    
   7 C7             1.0980     2.0259     0.0025 C.ar    
   8 C8             1.2224    -2.2024    -0.0209 C.3     
   9 C9             0.4763    -2.7343    -1.2260 C.2     
  10 O10            2.5880    -2.6958    -0.0097 O.3     
  11 C11            3.3814    -2.3221    -1.0313 C.2     
  12 N12            4.6600    -2.7452    -1.0812 N.am    
  13 O13            2.9446    -1.6033    -1.9082 O.2     
  14 C14            5.5437    -2.3488    -2.1881 C.3     
  15 C15            6.8406    -1.7851    -1.5976 C.3     
  16 N16            7.4151    -2.7627    -0.6637 N.3     
  17 C17            6.5188    -3.0021     0.4752 C.3     
  18 C18            5.2104    -3.6107    -0.0270 C.3     
  19 C19            8.7444    -2.3360    -0.2068 C.3     
  20 C20            9.2576    -3.3113     0.8562 C.3     
  21 C21           10.6672    -2.8966     1.2840 C.3     
  22 N22           11.5570    -2.9051     0.1158 N.3     
  23 C23           11.1108    -1.9417    -0.8986 C.3     
  24 C24            9.7145    -2.3278    -1.3915 C.3     
  25 H25           12.5124    -2.7276     0.3877 H       
  26 O26            0.7563    -2.5400    -2.3901 O.2     
  27 N27           -0.5539    -3.4626    -0.7639 N.am    
  28 C28            0.4503    -2.7460     1.1592 C.ar    
  29 C29           -0.5978    -3.4898     0.6316 C.ar    
  30 C30            0.6150    -2.6254     2.5206 C.ar    
  31 C31           -0.2720    -3.2512     3.3822 C.ar    
  32 C32           -1.3212    -3.9958     2.8677 C.ar    
  33 C33           -1.4864    -4.1167     1.5022 C.ar    
  34 Cl34          -2.4334    -4.7805     3.9451 Cl      
  35 C35           -1.0184    -5.8562    -2.0403 C.ar    
  36 C36           -1.3484    -6.8952    -1.1897 C.ar    
  37 C37           -0.2011    -6.0861    -3.1315 C.ar    
  38 C38            0.2880    -7.3551    -3.3746 C.ar    
  39 C39           -0.0417    -8.3992    -2.5226 C.ar    
  40 C40           -0.8616    -8.1658    -1.4281 C.ar    
  41 O41            0.4378    -9.6485    -2.7598 O.3     
  42 H42           -1.9871    -6.7131    -0.3380 H       
  43 C43            0.0572   -10.6747    -1.8411 C.3     
  44 O44           -1.1673    -0.6919     0.0099 O.3     
  45 C45           -3.5777    -0.8652     0.0330 C.3     
  46 C46           -2.3720     0.0766     0.0260 C.3     
  47 S47           -1.6464    -4.2381    -1.7372 S.o2    
  48 O48           -2.8264    -4.4041    -0.9631 O.2     
  49 O49           -1.6248    -3.5590    -2.9853 O.2     
  50 H50            3.3442    -0.4925    -0.0322 H       
  51 H51            3.2375     1.9916    -0.0178 H       
  52 H52            1.0444     3.1046     0.0084 H       
  53 H53            5.7699    -3.2182    -2.8053 H       
  54 H54            5.0540    -1.5849    -2.7920 H       
  55 H55            7.5507    -1.5887    -2.4009 H       
  56 H56            6.6256    -0.8577    -1.0668 H       
  57 H57            6.9954    -3.6883     1.1753 H       
  58 H58            6.3083    -2.0578     0.9772 H       
  59 H59            4.5005    -3.6837     0.7968 H       
  60 H60            5.4017    -4.6019    -0.4381 H       
  61 H61            8.6793    -1.3346     0.2187 H       
  62 H62            8.5939    -3.2898     1.7205 H       
  63 H63            9.2846    -4.3194     0.4424 H       
  64 H64           10.6371    -1.8939     1.7103 H       
  65 H65           11.0411    -3.5974     2.0305 H       
  66 H66           11.0787    -0.9434    -0.4620 H       
  67 H67           11.8069    -1.9488    -1.7373 H       
  68 H68            9.7487    -3.3204    -1.8407 H       
  69 H69            9.3771    -1.6037    -2.1331 H       
  70 H70            1.4346    -2.0442     2.9168 H       
  71 H71           -2.3064    -4.6986     1.1081 H       
  72 H72            0.0550    -5.2731    -3.7947 H       
  73 H73            0.9261    -7.5342    -4.2273 H       
  74 H74           -1.1199    -8.9770    -0.7636 H       
  75 H75            0.4028   -10.4133    -0.8409 H       
  76 H76           -1.0283   -10.7736    -1.8361 H       
  77 H77            0.5068   -11.6198    -2.1454 H       
  78 H78           -3.5390    -1.4986     0.9192 H       
  79 H79           -4.4966    -0.2790     0.0452 H       
  80 H80           -3.5566    -1.4891    -0.8606 H       
  81 H81           -2.3931     0.7004     0.9196 H       
  82 H82           -2.4108     0.7099    -0.8602 H       
@<TRIPOS>BOND
   1    1   31 1
   2    2    3 ar
   3    2    7 ar
   4    3    4 ar
   5    3   44 1
   6    4    5 ar
   7    4    8 1
   8    5    6 ar
   9    5   50 1
  10    6    7 ar
  11    6   51 1
  12    7   52 1
  13    8    9 1
  14    8   10 1
  15    8   28 1
  16    9   26 2
  17    9   27 am
  18   10   11 1
  19   11   12 am
  20   11   13 2
  21   12   14 1
  22   12   18 1
  23   14   15 1
  24   14   53 1
  25   14   54 1
  26   15   16 1
  27   15   55 1
  28   15   56 1
  29   16   17 1
  30   16   19 1
  31   17   18 1
  32   17   57 1
  33   17   58 1
  34   18   59 1
  35   18   60 1
  36   19   20 1
  37   19   24 1
  38   19   61 1
  39   20   21 1
  40   20   62 1
  41   20   63 1
  42   21   22 1
  43   21   64 1
  44   21   65 1
  45   22   23 1
  46   22   25 1
  47   23   24 1
  48   23   66 1
  49   23   67 1
  50   24   68 1
  51   24   69 1
  52   27   47 am
  53   27   29 1
  54   28   29 ar
  55   28   30 ar
  56   29   33 ar
  57   30   31 ar
  58   30   70 1
  59   31   32 ar
  60   32   33 ar
  61   32   34 1
  62   33   71 1
  63   35   36 ar
  64   35   37 ar
  65   35   47 1
  66   36   42 1
  67   36   40 ar
  68   37   38 ar
  69   37   72 1
  70   38   39 ar
  71   38   73 1
  72   39   40 ar
  73   39   41 1
  74   40   74 1
  75   41   43 1
  76   43   75 1
  77   43   76 1
  78   43   77 1
  79   44   46 1
  80   45   46 1
  81   45   78 1
  82   45   79 1
  83   45   80 1
  84   46   81 1
  85   46   82 1
  86   47   48 2
  87   47   49 2

#	End of record

