#	Name: ASD01810584
#	Creating user name:	WinNT
#	Creation time:	15. 06. 2019 19:24

#	Modifying user name:	WinNT
#	Modification time:	15. 06. 2019 19:24

#	Program:	/corina/corina34_cracker 3.40 0067  02.08.2006

@<TRIPOS>MOLECULE
ASD01810584
  68   72    0    0    0
SMALL
NO_CHARGES


@<TRIPOS>ATOM
   1 C1            -0.1921     1.6813    -1.1628 C.2     
   2 C2            -0.1589     0.2296    -1.4222 C.ar    
   3 C3             0.8650    -0.3311    -2.2016 C.ar    
   4 C4             0.8563    -1.6826    -2.4165 C.ar    
   5 C5            -0.1603    -2.4571    -1.8600 C.ar    
   6 N6            -1.1162    -1.9023    -1.1272 N.ar    
   7 C7            -1.1418    -0.6071    -0.8913 C.ar    
   8 O8             0.6715     2.4016    -1.6254 O.2     
   9 N9            -1.1828     2.2102    -0.4176 N.am    
  10 C10           -1.1611     3.5696    -0.0885 C.ar    
  11 C11           -2.3536     4.2703     0.0500 C.ar    
  12 C12           -2.3375     5.6134     0.3754 C.ar    
  13 C13           -1.1372     6.2680     0.5652 C.ar    
  14 C14            0.0657     5.5734     0.4284 C.ar    
  15 C15            0.0494     4.2166     0.1051 C.ar    
  16 C16           -3.6684     3.5633    -0.1560 C.3     
  17 C17           -4.0887     2.8786     1.1461 C.3     
  18 C18            1.3529     6.2724     0.6306 C.2     
  19 O19            2.2227     5.7603     1.3079 O.2     
  20 N20            1.5618     7.4772     0.0638 N.am    
  21 C21            2.8685     8.1399     0.1740 C.3     
  22 C22            3.3575     8.5026    -1.2318 C.3     
  23 C23            2.2876     9.3366    -1.9403 C.3     
  24 C24            1.0030     8.5153    -2.0727 C.3     
  25 C25            0.4891     8.1501    -0.6813 C.3     
  26 F26            2.0276    10.4916    -1.1949 F       
  27 C27            2.7793     9.7241    -3.3111 C.ar    
  28 C28            2.1349    10.7250    -4.0163 C.ar    
  29 C29            2.5796    11.0847    -5.2716 C.ar    
  30 C30            3.6831    10.4365    -5.8300 C.ar    
  31 C31            4.3289     9.4276    -5.1126 C.ar    
  32 C32            3.8765     9.0812    -3.8563 C.ar    
  33 C33            4.1500    10.8044    -7.1328 C.1     
  34 N34            4.5205    11.0963    -8.1663 N.1     
  35 N35           -0.1725    -3.8247    -2.0757 N.3     
  36 C36           -1.3245    -4.4554    -1.4047 C.3     
  37 C37           -1.5061    -5.3257    -2.6562 C.3     
  38 C38           -0.8148    -4.1511    -3.3626 C.3     
  39 H39            1.6418     0.2901    -2.6225 H       
  40 H40            1.6297    -2.1447    -3.0121 H       
  41 H41           -1.9321    -0.1883    -0.2860 H       
  42 H42           -1.9109     1.6482    -0.1095 H       
  43 H43           -3.2672     6.1527     0.4813 H       
  44 H44           -1.1288     7.3177     0.8191 H       
  45 H45            0.9769     3.6730     0.0019 H       
  46 H46           -4.4288     4.2878    -0.4474 H       
  47 H47           -3.5595     2.8151    -0.9411 H       
  48 H48           -4.1976     3.6268     1.9313 H       
  49 H49           -5.0397     2.3672     0.9972 H       
  50 H50           -3.3283     2.1541     1.4376 H       
  51 H51            2.7694     9.0460     0.7716 H       
  52 H52            3.5821     7.4645     0.6461 H       
  53 H53            4.2793     9.0798    -1.1586 H       
  54 H54            3.5428     7.5906    -1.7992 H       
  55 H55            0.2490     9.1014    -2.5981 H       
  56 H56            1.2105     7.6031    -2.6322 H       
  57 H57           -0.3669     7.4815    -0.7732 H       
  58 H58            0.1920     9.0571    -0.1548 H       
  59 H59            1.2815    11.2255    -3.5832 H       
  60 H60            2.0753    11.8657    -5.8213 H       
  61 H61            5.1830     8.9222    -5.5387 H       
  62 H62            4.3776     8.3039    -3.2986 H       
  63 H63           -1.0512    -5.0244    -0.5161 H       
  64 H64           -2.1532    -3.7697    -1.2286 H       
  65 H65           -0.9235    -6.2468    -2.6477 H       
  66 H66           -2.5454    -5.4738    -2.9498 H       
  67 H67           -1.5075    -3.3841    -3.7090 H       
  68 H68           -0.1096    -4.4622    -4.1333 H       
@<TRIPOS>BOND
   1    1    2 1
   2    1    8 2
   3    1    9 am
   4    2    3 ar
   5    2    7 ar
   6    3    4 ar
   7    3   39 1
   8    4    5 ar
   9    4   40 1
  10    5    6 ar
  11    5   35 1
  12    6    7 ar
  13    7   41 1
  14    9   10 1
  15    9   42 1
  16   10   11 ar
  17   10   15 ar
  18   11   12 ar
  19   11   16 1
  20   12   13 ar
  21   12   43 1
  22   13   14 ar
  23   13   44 1
  24   14   15 ar
  25   14   18 1
  26   15   45 1
  27   16   17 1
  28   16   46 1
  29   16   47 1
  30   17   48 1
  31   17   49 1
  32   17   50 1
  33   18   19 2
  34   18   20 am
  35   20   21 1
  36   20   25 1
  37   21   22 1
  38   21   51 1
  39   21   52 1
  40   22   23 1
  41   22   53 1
  42   22   54 1
  43   23   24 1
  44   23   26 1
  45   23   27 1
  46   24   25 1
  47   24   55 1
  48   24   56 1
  49   25   57 1
  50   25   58 1
  51   27   28 ar
  52   27   32 ar
  53   28   29 ar
  54   28   59 1
  55   29   30 ar
  56   29   60 1
  57   30   31 ar
  58   30   33 1
  59   31   32 ar
  60   31   61 1
  61   32   62 1
  62   33   34 3
  63   35   36 1
  64   35   38 1
  65   36   37 1
  66   36   63 1
  67   36   64 1
  68   37   38 1
  69   37   65 1
  70   37   66 1
  71   38   67 1
  72   38   68 1

#	End of record

