#	Name: ASD01810414
#	Creating user name:	WinNT
#	Creation time:	15. 06. 2019 19:24

#	Modifying user name:	WinNT
#	Modification time:	15. 06. 2019 19:24

#	Program:	/corina/corina34_cracker 3.40 0067  02.08.2006

@<TRIPOS>MOLECULE
ASD01810414
  28   29    0    0    0
SMALL
NO_CHARGES


@<TRIPOS>ATOM
   1 C1            -0.0167     1.3786     0.0096 C.ar    
   2 C2             0.0021    -0.0041     0.0020 C.ar    
   3 C3            -1.1837    -0.7122     0.0091 C.ar    
   4 C4            -2.3953    -0.0345     0.0243 C.ar    
   5 C5            -2.4109     1.3538     0.0324 C.ar    
   6 C6            -1.2218     2.0564     0.0305 C.ar    
   7 C7             1.2789     2.1483     0.0014 C.3     
   8 N8             1.6867     2.4058    -1.3862 N.3     
   9 N9            -3.6005    -0.7504     0.0310 N.pl3   
  10 C10           -4.8430    -0.2170     0.0456 C.2     
  11 C11           -5.7299    -1.2391     0.0476 C.2     
  12 C12           -5.0068    -2.4369     0.0338 C.2     
  13 N13           -3.7311    -2.1451     0.0177 N.2     
  14 C14           -7.2313    -1.1100     0.0622 C.3     
  15 S15           -7.8494    -1.0479    -1.6421 S.3     
  16 H16            0.9449    -0.5307    -0.0098 H       
  17 H17           -1.1685    -1.7921     0.0024 H       
  18 H18           -3.3519     1.8837     0.0438 H       
  19 H19           -1.2333     3.1363     0.0368 H       
  20 H20            1.1417     3.0962     0.5216 H       
  21 H21            2.0507     1.5659     0.5047 H       
  22 H22            2.5536     2.9211    -1.4186 H       
  23 H23            1.7579     1.5450    -1.9078 H       
  24 H24           -5.0843     0.8357     0.0547 H       
  25 H25           -5.4288    -3.4310     0.0320 H       
  26 H26           -7.6648    -1.9687     0.5748 H       
  27 H27           -7.5123    -0.1953     0.5841 H       
  28 H28           -9.1795    -0.9344    -1.4776 H       
@<TRIPOS>BOND
   1    1    2 ar
   2    1    7 1
   3    1    6 ar
   4    2    3 ar
   5    2   16 1
   6    3    4 ar
   7    3   17 1
   8    4    5 ar
   9    4    9 1
  10    5    6 ar
  11    5   18 1
  12    6   19 1
  13    7    8 1
  14    7   20 1
  15    7   21 1
  16    8   22 1
  17    8   23 1
  18    9   10 1
  19    9   13 1
  20   10   11 2
  21   10   24 1
  22   11   12 1
  23   11   14 1
  24   12   13 2
  25   12   25 1
  26   14   15 1
  27   14   26 1
  28   14   27 1
  29   15   28 1

#	End of record

