#	Name: ASD03090885
#	Creating user name:	WinNT
#	Creation time:	15. 06. 2019 20:29

#	Modifying user name:	WinNT
#	Modification time:	15. 06. 2019 20:29

#	Program:	/corina/corina34_cracker 3.40 0067  02.08.2006

@<TRIPOS>MOLECULE
ASD03090885
  49   52    0    0    0
SMALL
NO_CHARGES


@<TRIPOS>ATOM
   1 N1            -0.0153     1.3320     0.0571 N.2     
   2 C2             0.0031    -0.0039     0.0706 C.2     
   3 O3             1.0668    -0.5989     0.0536 O.2     
   4 N4            -1.1544    -0.6935     0.1029 N.am    
   5 C5            -1.1341    -2.1583     0.1177 C.3     
   6 C6            -0.9701    -2.6516     1.5566 C.3     
   7 C7             0.3982    -2.2226     2.0900 C.3     
   8 C8            -2.4275    -2.6843    -0.4493 C.ar    
   9 C9            -2.4191    -3.7877    -1.2819 C.ar    
  10 C10           -3.6056    -4.2702    -1.8021 C.ar    
  11 C11           -4.8004    -3.6494    -1.4893 C.ar    
  12 C12           -4.8089    -2.5465    -0.6559 C.ar    
  13 C13           -3.6230    -2.0667    -0.1323 C.ar    
  14 S14            2.7229     1.3646    -0.0035 S.3     
  15 C15            1.1278     2.0130     0.0251 C.2     
  16 N16            1.2769     3.3616     0.0079 N.pl3   
  17 C17            2.5513     3.8402    -0.0253 C.2     
  18 C18            3.5279     2.9428    -0.0376 C.2     
  19 C19            5.0107     3.2094    -0.0732 C.3     
  20 O20           -3.2352     6.5418     0.0475 O.3     
  21 C21           -4.1880     5.5034     0.3424 C.3     
  22 O22           -3.5467     4.3053    -0.1334 O.3     
  23 C23           -2.2066     4.5537    -0.0563 C.ar    
  24 C24           -2.0144     5.9293     0.0550 C.ar    
  25 C25           -1.1141     3.7035    -0.0723 C.ar    
  26 C26            0.1702     4.2224     0.0231 C.ar    
  27 C27            0.3585     5.5931     0.1339 C.ar    
  28 C28           -0.7313     6.4428     0.1494 C.ar    
  29 F29           -4.4178     5.4239     1.7201 F       
  30 F30           -5.3860     5.7259    -0.3450 F       
  31 H31           -2.0008    -0.2200     0.1165 H       
  32 H32           -0.3004    -2.5163    -0.4864 H       
  33 H33           -1.7542    -2.2215     2.1798 H       
  34 H34           -1.0440    -3.7389     1.5786 H       
  35 H35            0.4721    -1.1353     2.0681 H       
  36 H36            0.5150    -2.5740     3.1152 H       
  37 H37            1.1823    -2.6527     1.4669 H       
  38 H38           -1.4856    -4.2727    -1.5264 H       
  39 H39           -3.5989    -5.1318    -2.4532 H       
  40 H40           -5.7273    -4.0259    -1.8962 H       
  41 H41           -5.7424    -2.0614    -0.4118 H       
  42 H42           -3.6300    -1.2073     0.5217 H       
  43 H43            2.7571     4.9003    -0.0411 H       
  44 H44            5.5502     2.2623    -0.0758 H       
  45 H45            5.2575     3.7706    -0.9745 H       
  46 H46            5.2970     3.7882     0.8050 H       
  47 H47           -1.2609     2.6370    -0.1581 H       
  48 H48            1.3578     5.9960     0.2083 H       
  49 H49           -0.5824     7.5090     0.2357 H       
@<TRIPOS>BOND
   1    1    2 1
   2    1   15 2
   3    2    3 2
   4    2    4 am
   5    4    5 1
   6    4   31 1
   7    5    6 1
   8    5    8 1
   9    5   32 1
  10    6    7 1
  11    6   33 1
  12    6   34 1
  13    7   35 1
  14    7   36 1
  15    7   37 1
  16    8    9 ar
  17    8   13 ar
  18    9   10 ar
  19    9   38 1
  20   10   11 ar
  21   10   39 1
  22   11   12 ar
  23   11   40 1
  24   12   13 ar
  25   12   41 1
  26   13   42 1
  27   14   15 1
  28   14   18 1
  29   15   16 1
  30   16   17 1
  31   16   26 1
  32   17   18 2
  33   17   43 1
  34   18   19 1
  35   19   44 1
  36   19   45 1
  37   19   46 1
  38   20   21 1
  39   20   24 1
  40   21   22 1
  41   21   29 1
  42   21   30 1
  43   22   23 1
  44   23   24 ar
  45   23   25 ar
  46   24   28 ar
  47   25   26 ar
  48   25   47 1
  49   26   27 ar
  50   27   28 ar
  51   27   48 1
  52   28   49 1

#	End of record

