#	Name: ASD03090675
#	Creating user name:	WinNT
#	Creation time:	15. 06. 2019 20:29

#	Modifying user name:	WinNT
#	Modification time:	15. 06. 2019 20:29

#	Program:	/corina/corina34_cracker 3.40 0067  02.08.2006

@<TRIPOS>MOLECULE
ASD03090675
  34   35    0    0    0
SMALL
NO_CHARGES


@<TRIPOS>ATOM
   1 N1            -0.0162     1.3436     0.0094 N.am    
   2 C2            -0.3011     0.3999     0.9285 C.2     
   3 S3             0.8942    -0.0889     2.0524 S.2     
   4 N4            -1.5271    -0.1590     0.9628 N.am    
   5 S5            -3.3639    -1.9678     2.1018 S.3     
   6 C6            -1.8209    -1.1323     1.9107 C.2     
   7 N7            -1.0076    -1.5918     2.8176 N.2     
   8 N8            -1.4447    -2.4789     3.5999 N.2     
   9 C9            -2.6683    -2.8712     3.4488 C.2     
  10 C10           -3.3744    -3.9141     4.2765 C.3     
  11 F11           -2.5388    -4.3250     5.3207 F       
  12 F12           -4.5502    -3.3716     4.8060 F       
  13 F13           -3.6895    -5.0137     3.4711 F       
  14 C14            1.2281     1.9913     0.0316 C.ar    
  15 C15            1.2930     3.3798    -0.0609 C.ar    
  16 C16            2.5224     4.0167    -0.0383 C.ar    
  17 C17            3.6867     3.2718     0.0764 C.ar    
  18 C18            3.6209     1.8887     0.1680 C.ar    
  19 C19            2.3942     1.2504     0.1514 C.ar    
  20 O20            4.8940     3.8975     0.0986 O.3     
  21 C21            4.8879     5.3230    -0.0003 C.3     
  22 O22            0.1505     4.1088    -0.1737 O.3     
  23 C23            0.2926     5.5278    -0.2641 C.3     
  24 Cl24           5.0800     0.9590     0.3108 Cl      
  25 H25           -0.6699     1.5720    -0.6698 H       
  26 H26           -2.2043     0.1179     0.3260 H       
  27 H27            2.5746     5.0930    -0.1102 H       
  28 H28            2.3445     0.1742     0.2273 H       
  29 H29            4.4213     5.6201    -0.9396 H       
  30 H30            4.3252     5.7427     0.8335 H       
  31 H31            5.9125     5.6937     0.0296 H       
  32 H32            0.8877     5.7782    -1.1423 H       
  33 H33           -0.6923     5.9869    -0.3496 H       
  34 H34            0.7909     5.9008     0.6308 H       
@<TRIPOS>BOND
   1    1    2 am
   2    1   14 1
   3    1   25 1
   4    2    3 2
   5    2    4 am
   6    4    6 1
   7    4   26 1
   8    5    6 1
   9    5    9 1
  10    6    7 2
  11    7    8 1
  12    8    9 2
  13    9   10 1
  14   10   11 1
  15   10   12 1
  16   10   13 1
  17   14   15 ar
  18   14   19 ar
  19   15   16 ar
  20   15   22 1
  21   16   17 ar
  22   16   27 1
  23   17   18 ar
  24   17   20 1
  25   18   19 ar
  26   18   24 1
  27   19   28 1
  28   20   21 1
  29   21   29 1
  30   21   30 1
  31   21   31 1
  32   22   23 1
  33   23   32 1
  34   23   33 1
  35   23   34 1

#	End of record

