#	Name: ASD01811360
#	Creating user name:	WinNT
#	Creation time:	15. 06. 2019 19:26

#	Modifying user name:	WinNT
#	Modification time:	15. 06. 2019 19:26

#	Program:	/corina/corina34_cracker 3.40 0067  02.08.2006

@<TRIPOS>MOLECULE
ASD01811360
  73   76    0    0    0
SMALL
NO_CHARGES


@<TRIPOS>ATOM
   1 C1             0.0078     1.4725    -0.5286 C.2     
   2 C2             0.0818    -0.0007    -0.5218 C.ar    
   3 C3             1.1685    -0.6616    -1.1154 C.ar    
   4 C4             1.1963    -2.0296    -1.0853 C.ar    
   5 C5             0.1534    -2.7214    -0.4713 C.ar    
   6 N6            -0.8620    -2.0726     0.0823 N.ar    
   7 C7            -0.9248    -0.7574     0.0800 C.ar    
   8 O8             0.8922     2.1233    -1.0510 O.2     
   9 N9            -1.0429     2.0970     0.0394 N.am    
  10 N10            0.1779    -4.1054    -0.4394 N.pl3   
  11 C11            1.2945    -4.8325    -1.0483 C.3     
  12 C12            2.4444    -4.9352    -0.0442 C.3     
  13 C13            0.8342    -6.2375    -1.4419 C.3     
  14 C14           -1.0602     3.4927     0.1325 C.ar    
  15 C15           -2.2627     4.1816     0.0247 C.ar    
  16 C16           -2.2850     5.5605     0.1160 C.ar    
  17 C17           -1.1135     6.2627     0.3148 C.ar    
  18 C18            0.0991     5.5803     0.4249 C.ar    
  19 C19            0.1211     4.1883     0.3379 C.ar    
  20 C20           -1.1436     7.7663     0.4127 C.3     
  21 C21           -3.5462     3.4225    -0.1930 C.3     
  22 C22           -4.1001     2.9597     1.1560 C.3     
  23 C23            1.3555     6.3302     0.6379 C.2     
  24 O24            1.6781     7.2086    -0.1378 O.2     
  25 N25            2.1432     6.0396     1.6923 N.am    
  26 C26            3.3487     6.8332     1.9674 C.3     
  27 C27            3.2912     7.3317     3.4148 C.3     
  28 C28            3.0962     6.1389     4.3535 C.3     
  29 C29            1.7721     5.4435     4.0292 C.3     
  30 C30            1.8093     4.9271     2.5920 C.3     
  31 F31            4.1508     5.2354     4.1844 F       
  32 C32            3.0732     6.6219     5.7809 C.ar    
  33 C33            3.2203     5.7164     6.8166 C.ar    
  34 C34            3.2003     6.1515     8.1255 C.ar    
  35 C35            3.0315     7.5094     8.4038 C.ar    
  36 C36            2.8842     8.4178     7.3537 C.ar    
  37 C37            2.9109     7.9694     6.0493 C.ar    
  38 C38            3.0093     7.9682     9.7602 C.1     
  39 N39            2.9916     8.3322    10.8361 N.1     
  40 H40            1.9646    -0.1033    -1.5856 H       
  41 H41            2.0182    -2.5681    -1.5335 H       
  42 H42           -1.7639    -0.2603     0.5440 H       
  43 H43           -1.7871     1.5787     0.3835 H       
  44 H44           -0.5442    -4.5936    -0.0139 H       
  45 H45            1.6341    -4.2994    -1.9363 H       
  46 H46            2.1047    -5.4683     0.8438 H       
  47 H47            3.2751    -5.4761    -0.4972 H       
  48 H48            2.7723    -3.9342     0.2362 H       
  49 H49            0.0150    -6.1644    -2.1573 H       
  50 H50            1.6650    -6.7785    -1.8950 H       
  51 H51            0.4946    -6.7707    -0.5539 H       
  52 H52           -3.2223     6.0903     0.0311 H       
  53 H53            1.0558     3.6546     0.4264 H       
  54 H54           -1.3683     8.0592     1.4383 H       
  55 H55           -0.1725     8.1686     0.1243 H       
  56 H56           -1.9118     8.1584    -0.2538 H       
  57 H57           -4.2736     4.0711    -0.6812 H       
  58 H58           -3.3526     2.5546    -0.8233 H       
  59 H59           -4.2937     3.8277     1.7864 H       
  60 H60           -5.0284     2.4107     0.9986 H       
  61 H61           -3.3727     2.3111     1.6442 H       
  62 H62            4.2341     6.2126     1.8295 H       
  63 H63            3.3879     7.6853     1.2887 H       
  64 H64            4.2230     7.8405     3.6616 H       
  65 H65            2.4570     8.0241     3.5282 H       
  66 H66            1.6227     4.6082     4.7134 H       
  67 H67            0.9522     6.1537     4.1369 H       
  68 H68            0.8332     4.5218     2.3254 H       
  69 H69            2.5666     4.1478     2.5062 H       
  70 H70            3.3507     4.6664     6.5999 H       
  71 H71            3.3145     5.4436     8.9331 H       
  72 H72            2.7533     9.4694     7.5620 H       
  73 H73            2.8012     8.6714     5.2360 H       
@<TRIPOS>BOND
   1    1    2 1
   2    1    8 2
   3    1    9 am
   4    2    3 ar
   5    2    7 ar
   6    3    4 ar
   7    3   40 1
   8    4    5 ar
   9    4   41 1
  10    5    6 ar
  11    5   10 1
  12    6    7 ar
  13    7   42 1
  14    9   14 1
  15    9   43 1
  16   10   11 1
  17   10   44 1
  18   11   12 1
  19   11   13 1
  20   11   45 1
  21   12   46 1
  22   12   47 1
  23   12   48 1
  24   13   49 1
  25   13   50 1
  26   13   51 1
  27   14   15 ar
  28   14   19 ar
  29   15   16 ar
  30   15   21 1
  31   16   17 ar
  32   16   52 1
  33   17   18 ar
  34   17   20 1
  35   18   19 ar
  36   18   23 1
  37   19   53 1
  38   20   54 1
  39   20   55 1
  40   20   56 1
  41   21   22 1
  42   21   57 1
  43   21   58 1
  44   22   59 1
  45   22   60 1
  46   22   61 1
  47   23   24 2
  48   23   25 am
  49   25   26 1
  50   25   30 1
  51   26   27 1
  52   26   62 1
  53   26   63 1
  54   27   28 1
  55   27   64 1
  56   27   65 1
  57   28   29 1
  58   28   31 1
  59   28   32 1
  60   29   30 1
  61   29   66 1
  62   29   67 1
  63   30   68 1
  64   30   69 1
  65   32   33 ar
  66   32   37 ar
  67   33   34 ar
  68   33   70 1
  69   34   35 ar
  70   34   71 1
  71   35   36 ar
  72   35   38 1
  73   36   37 ar
  74   36   72 1
  75   37   73 1
  76   38   39 3

#	End of record

