#	Name: ASD00170342
#	Creating user name:	WinNT
#	Creation time:	15. 06. 2019 18:31

#	Modifying user name:	WinNT
#	Modification time:	15. 06. 2019 18:31

#	Program:	/corina/corina34_cracker 3.40 0067  02.08.2006

@<TRIPOS>MOLECULE
ASD00170342
  24   25    0    0    0
SMALL
NO_CHARGES


@<TRIPOS>ATOM
   1 C1            -0.0185     1.5118     0.0104 C.3     
   2 C2             0.0021    -0.0041     0.0020 C.2     
   3 C3             1.0779    -0.7305    -0.3286 C.2     
   4 C4             2.4000    -0.0978    -0.7343 C.3     
   5 C5             2.1392     1.3710    -1.0835 C.3     
   6 N6             1.3688     1.9993    -0.0003 N.3     
   7 C7             0.8284    -2.1564    -0.2533 C.2     
   8 C8            -0.4469    -2.4621     0.1370 C.2     
   9 S9            -1.3488    -1.0444     0.4145 S.3     
  10 C10            1.4113     3.4639    -0.1050 C.3     
  11 N11           -0.9370    -3.7477     0.2859 N.pl3   
  12 C12            1.8176    -3.1461    -0.5575 C.1     
  13 N13            2.6023    -3.9313    -0.7988 N.1     
  14 H14           -0.5410     1.8755    -0.8743 H       
  15 H15           -0.5240     1.8660     0.9087 H       
  16 H16            3.1066    -0.1593     0.0933 H       
  17 H17            2.8046    -0.6163    -1.6036 H       
  18 H18            3.0898     1.8909    -1.2025 H       
  19 H19            1.5736     1.4289    -2.0135 H       
  20 H20            0.8332     3.9032     0.7079 H       
  21 H21            2.4452     3.8030    -0.0401 H       
  22 H22            0.9871     3.7723    -1.0606 H       
  23 H23           -0.3626    -4.5092     0.1093 H       
  24 H24           -1.8548    -3.8874     0.5668 H       
@<TRIPOS>BOND
   1    1    2 1
   2    1    6 1
   3    1   14 1
   4    1   15 1
   5    2    3 2
   6    2    9 1
   7    3    4 1
   8    3    7 1
   9    4    5 1
  10    4   16 1
  11    4   17 1
  12    5    6 1
  13    5   18 1
  14    5   19 1
  15    6   10 1
  16    7    8 2
  17    7   12 1
  18    8    9 1
  19    8   11 1
  20   10   20 1
  21   10   21 1
  22   10   22 1
  23   11   23 1
  24   11   24 1
  25   12   13 3

#	End of record

