#	Name: ASD02270027
#	Creating user name:	WinNT
#	Creation time:	15. 06. 2019 20:20

#	Modifying user name:	WinNT
#	Modification time:	15. 06. 2019 20:20

#	Program:	/corina/corina34_cracker 3.40 0067  02.08.2006

@<TRIPOS>MOLECULE
ASD02270027
  62   66    0    0    0
SMALL
NO_CHARGES


@<TRIPOS>ATOM
   1 N1            -0.0178     1.4608     0.0101 N.am    
   2 C2             0.0021    -0.0041     0.0020 C.3     
   3 C3            -1.4333    -0.5336     0.0129 C.3     
   4 N4            -1.9351    -6.1272    -0.7472 N.3     
   5 C5            -3.1971    -6.6310    -1.3379 C.3     
   6 N6            -3.6339    -5.6117    -2.3005 N.am    
   7 C7            -2.9958    -4.4492    -2.0488 C.2     
   8 C8            -2.0661    -4.6613    -0.8796 C.3     
   9 C9            -2.6670    -4.0707     0.3931 C.3     
  10 C10           -2.7540    -2.5484     0.2528 C.3     
  11 N11           -1.4134    -2.0025     0.0048 N.3     
  12 C12           -0.8532    -2.5143    -1.2524 C.3     
  13 C13           -0.7030    -4.0355    -1.1622 C.3     
  14 O14           -3.1447    -3.4112    -2.6582 O.2     
  15 C15           -1.8205    -6.5203     0.6636 C.3     
  16 C16            1.1401     2.1505     0.0027 C.2     
  17 O17            2.2010     1.5571    -0.0106 O.2     
  18 C18            1.1201     3.6281     0.0108 C.ar    
  19 C19           -0.1101     4.3091     0.0263 C.ar    
  20 C20           -0.1545     5.6659     0.0339 C.ar    
  21 C21            1.0397     6.4092     0.0265 C.ar    
  22 C22            2.2869     5.7340     0.0115 C.ar    
  23 C23            2.3133     4.3316     0.0090 C.ar    
  24 C24            1.0189     7.8140     0.0332 C.ar    
  25 C25            2.1910     8.5063     0.0253 C.ar    
  26 C26            3.4167     7.8431     0.0102 C.ar    
  27 C27            3.4771     6.4837     0.0037 C.ar    
  28 C28           -1.5936    -8.0074     0.7539 C.ar    
  29 C29           -0.3104    -8.5212     0.7494 C.ar    
  30 C30           -2.6691    -8.8770     0.8483 C.ar    
  31 C31           -2.4127   -10.2374     0.9292 C.ar    
  32 C32           -1.1031   -10.6779     0.9131 C.ar    
  33 N33           -0.1041    -9.8211     0.8281 N.ar    
  34 H34           -0.8643     1.9343     0.0167 H       
  35 H35            0.5123    -0.3556    -0.8948 H       
  36 H36            0.5293    -0.3651     0.8851 H       
  37 H37           -1.9435    -0.1821     0.9097 H       
  38 H38           -1.9605    -0.1726    -0.8702 H       
  39 H39           -3.0203    -7.5775    -1.8487 H       
  40 H40           -3.9500    -6.7591    -0.5602 H       
  41 H41           -4.2815    -5.7523    -3.0089 H       
  42 H42           -3.6655    -4.4795     0.5477 H       
  43 H43           -2.0346    -4.3221     1.2446 H       
  44 H44           -3.4086    -2.2972    -0.5818 H       
  45 H45           -3.1561    -2.1212     1.1714 H       
  46 H46           -1.5210    -2.2633    -2.0766 H       
  47 H47            0.1235    -2.0624    -1.4256 H       
  48 H48           -0.0135    -4.2859    -0.3560 H       
  49 H49           -0.3150    -4.4194    -2.1057 H       
  50 H50           -0.9805    -5.9963     1.1196 H       
  51 H51           -2.7394    -6.2603     1.1890 H       
  52 H52           -1.0313     3.7455     0.0317 H       
  53 H53           -1.1071     6.1747     0.0454 H       
  54 H54            3.2560     3.8048    -0.0024 H       
  55 H55            0.0770     8.3423     0.0442 H       
  56 H56            2.1707     9.5861     0.0305 H       
  57 H57            4.3319     8.4165     0.0038 H       
  58 H58            4.4339     5.9829    -0.0080 H       
  59 H59            0.5330    -7.8501     0.6803 H       
  60 H60           -3.6825    -8.5038     0.8589 H       
  61 H61           -3.2263   -10.9437     1.0041 H       
  62 H62           -0.8950   -11.7358     0.9761 H       
@<TRIPOS>BOND
   1    1    2 1
   2    1   16 am
   3    1   34 1
   4    2    3 1
   5    2   35 1
   6    2   36 1
   7    3   11 1
   8    3   37 1
   9    3   38 1
  10    4    5 1
  11    4    8 1
  12    4   15 1
  13    5    6 1
  14    5   39 1
  15    5   40 1
  16    6    7 am
  17    6   41 1
  18    7   14 2
  19    7    8 1
  20    8    9 1
  21    8   13 1
  22    9   10 1
  23    9   42 1
  24    9   43 1
  25   10   11 1
  26   10   44 1
  27   10   45 1
  28   11   12 1
  29   12   13 1
  30   12   46 1
  31   12   47 1
  32   13   48 1
  33   13   49 1
  34   15   28 1
  35   15   50 1
  36   15   51 1
  37   16   17 2
  38   16   18 1
  39   18   19 ar
  40   18   23 ar
  41   19   20 ar
  42   19   52 1
  43   20   21 ar
  44   20   53 1
  45   21   22 ar
  46   21   24 ar
  47   22   23 ar
  48   22   27 ar
  49   23   54 1
  50   24   25 ar
  51   24   55 1
  52   25   26 ar
  53   25   56 1
  54   26   27 ar
  55   26   57 1
  56   27   58 1
  57   28   29 ar
  58   28   30 ar
  59   29   33 ar
  60   29   59 1
  61   30   31 ar
  62   30   60 1
  63   31   32 ar
  64   31   61 1
  65   32   33 ar
  66   32   62 1

#	End of record

