#	Name: ASD07930773
#	Creating user name:	WinNT
#	Creation time:	15. 06. 2019 21:13

#	Modifying user name:	WinNT
#	Modification time:	15. 06. 2019 21:13

#	Program:	/corina/corina34_cracker 3.40 0067  02.08.2006

@<TRIPOS>MOLECULE
ASD07930773
  49   51    0    0    0
SMALL
NO_CHARGES


@<TRIPOS>ATOM
   1 C1             1.8971    -1.4627     2.8293 C.3     
   2 N2            -0.7104    -0.2155     2.0835 N.2     
   3 N3            -1.1419    -2.2826     1.0825 N.pl3   
   4 C4            -0.9005    -2.8248    -0.2586 C.3     
   5 C5             0.4790    -3.4972    -0.2919 C.3     
   6 S6             1.7239    -2.2722     0.2218 S.o2    
   7 N7             1.0780    -1.6613     1.6311 N.am    
   8 C8            -0.2743    -1.3504     1.6139 C.2     
   9 C9            -0.9403    -1.6895    -1.2835 C.3     
  10 O10            2.9252    -2.9137     0.6277 O.2     
  11 O11            1.7426    -1.1671    -0.6713 O.2     
  12 C12           -1.9634    -3.8404    -0.5898 C.ar    
  13 C13           -2.1047    -4.9743     0.1926 C.ar    
  14 C14           -2.7996    -3.6369    -1.6698 C.ar    
  15 C15           -3.7795    -4.5731    -1.9743 C.ar    
  16 C16           -3.9159    -5.7119    -1.1916 C.ar    
  17 C17           -3.0806    -5.9088    -0.1090 C.ar    
  18 F18           -1.2886    -5.1691     1.2515 F       
  19 N19           -4.6275    -4.3688    -3.0670 N.pl3   
  20 C20           -5.6606    -5.3570    -3.3872 C.3     
  21 C21           -6.7801    -4.6869    -4.1415 C.ar    
  22 C22           -8.0499    -5.2307    -4.1044 C.ar    
  23 C23           -9.0730    -4.6064    -4.8019 C.ar    
  24 C24           -8.7787    -3.4537    -5.5135 C.ar    
  25 C25           -7.4845    -2.9683    -5.5042 C.ar    
  26 N26           -6.5377    -3.5854    -4.8250 N.ar    
  27 C27           -5.0558    -6.4657    -4.2508 C.3     
  28 F28           -4.0166    -7.0877    -3.5506 F       
  29 F29           -6.0423    -7.4093    -4.5566 F       
  30 F30           -4.5554    -5.9138    -5.4350 F       
  31 H31            2.3238    -0.4598     2.8156 H       
  32 H32            1.2765    -1.5813     3.7175 H       
  33 H33            2.7005    -2.1991     2.8464 H       
  34 H34           -0.0861     0.4284     2.4531 H       
  35 H35           -1.9125    -2.5759     1.5936 H       
  36 H36            0.4917    -4.3439     0.3944 H       
  37 H37            0.6964    -3.8400    -1.3034 H       
  38 H38           -0.1697    -0.9566    -1.0440 H       
  39 H39           -0.7607    -2.0930    -2.2800 H       
  40 H40           -1.9187    -1.2099    -1.2566 H       
  41 H41           -2.6920    -2.7502    -2.2770 H       
  42 H42           -4.6770    -6.4411    -1.4266 H       
  43 H43           -3.1863    -6.7944     0.5000 H       
  44 H44           -4.5318    -3.5729    -3.6131 H       
  45 H45           -6.0505    -5.7870    -2.4646 H       
  46 H46           -8.2430    -6.1307    -3.5395 H       
  47 H47          -10.0751    -5.0089    -4.7913 H       
  48 H48           -9.5508    -2.9415    -6.0684 H       
  49 H49           -7.2470    -2.0710    -6.0563 H       
@<TRIPOS>BOND
   1    1    7 1
   2    1   31 1
   3    1   32 1
   4    1   33 1
   5    2    8 2
   6    2   34 1
   7    3    4 1
   8    3    8 1
   9    3   35 1
  10    4    5 1
  11    4    9 1
  12    4   12 1
  13    5    6 1
  14    5   36 1
  15    5   37 1
  16    6    7 am
  17    6   10 2
  18    6   11 2
  19    7    8 1
  20    9   38 1
  21    9   39 1
  22    9   40 1
  23   12   14 ar
  24   12   13 ar
  25   13   18 1
  26   13   17 ar
  27   14   15 ar
  28   14   41 1
  29   15   16 ar
  30   15   19 1
  31   16   17 ar
  32   16   42 1
  33   17   43 1
  34   19   20 1
  35   19   44 1
  36   20   21 1
  37   20   27 1
  38   20   45 1
  39   21   22 ar
  40   21   26 ar
  41   22   23 ar
  42   22   46 1
  43   23   24 ar
  44   23   47 1
  45   24   25 ar
  46   24   48 1
  47   25   26 ar
  48   25   49 1
  49   27   28 1
  50   27   29 1
  51   27   30 1

#	End of record

