#	Name: ASD00190004
#	Creating user name:	WinNT
#	Creation time:	15. 06. 2019 18:33

#	Modifying user name:	WinNT
#	Modification time:	15. 06. 2019 18:33

#	Program:	/corina/corina34_cracker 3.40 0067  02.08.2006

@<TRIPOS>MOLECULE
ASD00190004
  41   45    0    0    0
SMALL
NO_CHARGES


@<TRIPOS>ATOM
   1 C1            -0.0154     1.3888     0.0325 C.ar    
   2 C2             0.0026    -0.0011     0.0110 C.ar    
   3 C3             1.1803    -0.6878    -0.0110 C.ar    
   4 C4             2.3965     0.0124    -0.0122 C.ar    
   5 C5             2.3715     1.4267     0.0097 C.ar    
   6 C6             1.1500     2.1009     0.0320 C.ar    
   7 N7             3.5675    -0.6413    -0.0332 N.ar    
   8 C8             4.7280    -0.0215    -0.0347 C.ar    
   9 C9             4.8212     1.3786    -0.0142 C.ar    
  10 C10            3.6486     2.1455     0.0082 C.ar    
  11 N11            5.8675     2.2770    -0.0106 N.pl3   
  12 C12            5.3193     3.5317     0.0135 C.2     
  13 N13            4.0041     3.4340     0.0243 N.2     
  14 N14            5.8936    -0.7740    -0.0567 N.pl3   
  15 C15            5.8283    -2.1670     0.0424 C.ar    
  16 C16            6.0755     4.7863     0.0248 C.2     
  17 C17            6.7390    -2.9568    -0.6470 C.ar    
  18 C18            6.6720    -4.3338    -0.5470 C.ar    
  19 C19            5.6977    -4.9251     0.2397 C.ar    
  20 C20            4.7891    -4.1396     0.9270 C.ar    
  21 C21            4.8557    -2.7633     0.8354 C.ar    
  22 C22            7.4183     4.9191     0.0131 C.2     
  23 C23            7.7894     6.3289     0.0301 C.2     
  24 C24            6.7065     7.1031     0.0526 C.2     
  25 C25            5.5038     6.1867     0.0453 C.3     
  26 Cl26           5.6157    -6.6548     0.3635 Cl      
  27 Cl27           7.8094    -5.3226    -1.4086 Cl      
  28 H28           -0.9608     1.9109     0.0452 H       
  29 H29           -0.9304    -0.5452     0.0122 H       
  30 H30            1.1772    -1.7677    -0.0272 H       
  31 H31            1.1263     3.1805     0.0492 H       
  32 H32            6.8131     2.0610    -0.0227 H       
  33 H33            6.7537    -0.3335    -0.1409 H       
  34 H34            7.4986    -2.4956    -1.2608 H       
  35 H35            4.0301    -4.6033     1.5396 H       
  36 H36            4.1462    -2.1511     1.3721 H       
  37 H37            8.1189     4.0974    -0.0057 H       
  38 H38            8.8052     6.6957     0.0252 H       
  39 H39            6.6902     8.1829     0.0691 H       
  40 H40            4.8964     6.3666    -0.8418 H       
  41 H41            4.9103     6.3340     0.9476 H       
@<TRIPOS>BOND
   1    1    2 ar
   2    1    6 ar
   3    1   28 1
   4    2    3 ar
   5    2   29 1
   6    3    4 ar
   7    3   30 1
   8    4    5 ar
   9    4    7 ar
  10    5    6 ar
  11    5   10 ar
  12    6   31 1
  13    7    8 ar
  14    8    9 ar
  15    8   14 1
  16    9   10 ar
  17    9   11 1
  18   10   13 1
  19   11   12 1
  20   11   32 1
  21   12   13 2
  22   12   16 1
  23   14   15 1
  24   14   33 1
  25   15   17 ar
  26   15   21 ar
  27   16   22 2
  28   16   25 1
  29   17   18 ar
  30   17   34 1
  31   18   19 ar
  32   18   27 1
  33   19   20 ar
  34   19   26 1
  35   20   21 ar
  36   20   35 1
  37   21   36 1
  38   22   23 1
  39   22   37 1
  40   23   24 2
  41   23   38 1
  42   24   25 1
  43   24   39 1
  44   25   40 1
  45   25   41 1

#	End of record

