#	Name: ASD08150460
#	Creating user name:	WinNT
#	Creation time:	15. 06. 2019 21:16

#	Modifying user name:	WinNT
#	Modification time:	15. 06. 2019 21:16

#	Program:	/corina/corina34_cracker 3.40 0067  02.08.2006

@<TRIPOS>MOLECULE
ASD08150460
  80   86    0    0    0
SMALL
NO_CHARGES


@<TRIPOS>ATOM
   1 N1            -0.1335     1.9669    -2.5508 N.am    
   2 C2             0.5548     1.2155    -1.6696 C.2     
   3 C3             1.6363     0.4154    -2.0904 C.2     
   4 C4             2.0003     0.3914    -3.3979 C.2     
   5 C5             1.2781     1.1803    -4.3278 C.ar    
   6 C6             1.6138     1.1915    -5.6952 C.ar    
   7 N7             0.9459     1.9202    -6.5507 N.ar    
   8 C8            -0.0880     2.6923    -6.1826 C.ar    
   9 C9            -0.4960     2.7423    -4.8270 C.ar    
  10 C10            0.2067     1.9661    -3.8758 C.ar    
  11 C11           -1.5743     3.5509    -4.4536 C.ar    
  12 C12           -2.2334     4.2962    -5.4168 C.ar    
  13 C13           -1.8242     4.2417    -6.7560 C.ar    
  14 C14           -0.7777     3.4599    -7.1351 C.ar    
  15 O15            0.2382     1.2279    -0.4922 O.2     
  16 C16           -3.3792     5.1567    -5.0289 C.2     
  17 C17           -1.2081     2.7496    -2.1084 C.ar    
  18 C18           -2.4787     2.1966    -2.0177 C.ar    
  19 C19           -3.5376     2.9677    -1.5818 C.ar    
  20 C20           -3.3320     4.2966    -1.2340 C.ar    
  21 C21           -2.0606     4.8497    -1.3248 C.ar    
  22 C22           -1.0013     4.0770    -1.7551 C.ar    
  23 N23           -4.4043     5.0777    -0.7930 N.3     
  24 C24           -3.5140     6.4882    -5.2948 C.2     
  25 C25           -5.2852     5.4411    -1.9103 C.3     
  26 C26           -3.9285     6.2713    -0.0820 C.3     
  27 C27           -5.1224     7.0236     0.5102 C.3     
  28 C28           -6.0769     7.4251    -0.6177 C.3     
  29 C29           -6.5196     6.1686    -1.3726 C.3     
  30 C30           -7.2840     8.1138    -0.0347 C.2     
  31 N31           -8.2643     8.5573    -0.8464 N.am    
  32 O32           -7.3732     8.2689     1.1648 O.2     
  33 C33           -9.4376     9.2268    -0.2797 C.3     
  34 C34          -10.0577    10.1505    -1.3318 C.3     
  35 C35          -10.4715     8.1786     0.1408 C.3     
  36 C36          -11.7191     8.8855     0.6754 C.3     
  37 N37          -12.2750     9.7562    -0.3682 N.3     
  38 C38          -11.3173    10.8002    -0.7545 C.3     
  39 C39          -13.5505    10.3448     0.0615 C.3     
  40 C40           -4.5278     4.7457    -4.3247 C.2     
  41 N41           -5.3055     5.7851    -4.1747 N.2     
  42 N42           -4.6912     6.8908    -4.7749 N.pl3   
  43 C43           -4.9165     2.3677    -1.4839 C.3     
  44 F44           -4.8124     0.9794    -1.3462 F       
  45 F45           -5.5780     2.8984    -0.3712 F       
  46 F46           -5.6393     2.6684    -2.6434 F       
  47 H47            2.1774    -0.1802    -1.3701 H       
  48 H48            2.8285    -0.2198    -3.7249 H       
  49 H49            2.4384     0.5873    -6.0436 H       
  50 H50           -1.8907     3.5934    -3.4219 H       
  51 H51           -2.3471     4.8281    -7.4971 H       
  52 H52           -0.4756     3.4302    -8.1716 H       
  53 H53           -2.6386     1.1634    -2.2885 H       
  54 H54           -1.9006     5.8830    -1.0543 H       
  55 H55           -0.0130     4.5069    -1.8257 H       
  56 H56           -2.8059     7.1076    -5.8253 H       
  57 H57           -4.7489     6.0952    -2.5977 H       
  58 H58           -5.5961     4.5383    -2.4361 H       
  59 H59           -3.2540     5.9715     0.7200 H       
  60 H60           -3.3986     6.9215    -0.7781 H       
  61 H61           -5.6448     6.3787     1.2168 H       
  62 H62           -4.7703     7.9178     1.0245 H       
  63 H63           -5.5665     8.1012    -1.3035 H       
  64 H64           -7.1656     6.4520    -2.2035 H       
  65 H65           -7.0640     5.5102    -0.6957 H       
  66 H66           -8.1929     8.4333    -1.8058 H       
  67 H67           -9.1383     9.8134     0.5889 H       
  68 H68           -9.3407    10.9251    -1.6039 H       
  69 H69          -10.3203     9.5700    -2.2162 H       
  70 H70          -10.7407     7.5671    -0.7204 H       
  71 H71          -10.0502     7.5443     0.9208 H       
  72 H72          -12.4629     8.1421     0.9624 H       
  73 H73          -11.4518     9.4859     1.5450 H       
  74 H74          -11.0518    11.3917     0.1218 H       
  75 H75          -11.7691    11.4475    -1.5061 H       
  76 H76          -13.3921    10.9369     0.9628 H       
  77 H77          -13.9401    10.9850    -0.7300 H       
  78 H78          -14.2657     9.5492     0.2704 H       
  79 H79           -4.7306     3.7457    -3.9707 H       
  80 H80           -5.0506     7.7911    -4.8109 H       
@<TRIPOS>BOND
   1    1    2 am
   2    1   10 1
   3    1   17 1
   4    2    3 1
   5    2   15 2
   6    3    4 2
   7    3   47 1
   8    4    5 1
   9    4   48 1
  10    5    6 ar
  11    5   10 ar
  12    6    7 ar
  13    6   49 1
  14    7    8 ar
  15    8    9 ar
  16    8   14 ar
  17    9   10 ar
  18    9   11 ar
  19   11   12 ar
  20   11   50 1
  21   12   13 ar
  22   12   16 1
  23   13   14 ar
  24   13   51 1
  25   14   52 1
  26   16   24 2
  27   16   40 1
  28   17   18 ar
  29   17   22 ar
  30   18   19 ar
  31   18   53 1
  32   19   20 ar
  33   19   43 1
  34   20   21 ar
  35   20   23 1
  36   21   22 ar
  37   21   54 1
  38   22   55 1
  39   23   25 1
  40   23   26 1
  41   24   42 1
  42   24   56 1
  43   25   29 1
  44   25   57 1
  45   25   58 1
  46   26   27 1
  47   26   59 1
  48   26   60 1
  49   27   28 1
  50   27   61 1
  51   27   62 1
  52   28   29 1
  53   28   30 1
  54   28   63 1
  55   29   64 1
  56   29   65 1
  57   30   31 am
  58   30   32 2
  59   31   33 1
  60   31   66 1
  61   33   34 1
  62   33   35 1
  63   33   67 1
  64   34   38 1
  65   34   68 1
  66   34   69 1
  67   35   36 1
  68   35   70 1
  69   35   71 1
  70   36   37 1
  71   36   72 1
  72   36   73 1
  73   37   38 1
  74   37   39 1
  75   38   74 1
  76   38   75 1
  77   39   76 1
  78   39   77 1
  79   39   78 1
  80   40   41 2
  81   40   79 1
  82   41   42 1
  83   42   80 1
  84   43   44 1
  85   43   45 1
  86   43   46 1

#	End of record

