#	Name: ASD03430249
#	Creating user name:	WinNT
#	Creation time:	15. 06. 2019 20:40

#	Modifying user name:	WinNT
#	Modification time:	15. 06. 2019 20:40

#	Program:	/corina/corina34_cracker 3.40 0067  02.08.2006

@<TRIPOS>MOLECULE
ASD03430249
  44   48    0    0    0
SMALL
NO_CHARGES


@<TRIPOS>ATOM
   1 C1            -0.3571     1.1170     1.1586 C.ar    
   2 C2            -0.2351    -0.2359     0.8813 C.ar    
   3 C3             0.9980    -0.7740     0.5792 C.ar    
   4 C4             2.1353     0.0277     0.5589 C.ar    
   5 C5             2.0088     1.3855     0.8344 C.ar    
   6 C6             0.7709     1.9290     1.1338 C.ar    
   7 O7             3.2495    -0.7025     0.2667 O.3     
   8 C8             1.4470    -2.1647     0.2184 C.3     
   9 C9             2.8563    -1.9444    -0.3482 C.3     
  10 C10            0.6200    -4.1466     1.0606 C.ar    
  11 C11            1.4565    -3.0863     1.4017 C.ar    
  12 C12            0.5378    -2.8143    -0.7849 C.2     
  13 N13            0.0997    -3.9581    -0.2220 N.am    
  14 O14            0.2530    -2.3922    -1.8857 O.2     
  15 C15            2.0848    -3.0557     2.6262 C.ar    
  16 C16            1.8890    -4.0837     3.5317 C.ar    
  17 C17            1.0612    -5.1413     3.2036 C.ar    
  18 C18            0.4294    -5.1769     1.9776 C.ar    
  19 O19           -1.5835     1.6336     1.4465 O.3     
  20 C20           -1.6087     2.9188     2.0769 C.3     
  21 C21           -0.6325     3.8386     1.3311 C.3     
  22 O22            0.6746     3.2599     1.4051 O.3     
  23 C23           -0.8150    -4.8949    -0.8792 C.3     
  24 C24           -0.0228    -6.0090    -1.5135 C.2     
  25 N25            1.2683    -5.9662    -1.5107 N.2     
  26 N26           -0.6754    -7.0727    -2.0961 N.pl3   
  27 O27            1.9371    -4.8002    -1.0656 O.3     
  28 H28           -1.1088    -0.8705     0.9023 H       
  29 H29            2.8824     2.0201     0.8150 H       
  30 H30            2.8262    -1.8464    -1.4334 H       
  31 H31            3.5241    -2.7525    -0.0499 H       
  32 H32            2.7314    -2.2287     2.8803 H       
  33 H33            2.3821    -4.0601     4.4923 H       
  34 H34            0.9086    -5.9437     3.9103 H       
  35 H35           -0.2156    -6.0066     1.7284 H       
  36 H36           -2.6155     3.3333     2.0268 H       
  37 H37           -1.3012     2.8236     3.1183 H       
  38 H38           -0.9358     3.9279     0.2879 H       
  39 H39           -0.6257     4.8234     1.7981 H       
  40 H40           -1.5008    -5.3111    -0.1413 H       
  41 H41           -1.3828    -4.3698    -1.6474 H       
  42 H42           -1.6448    -7.1048    -2.0982 H       
  43 H43           -0.1655    -7.7898    -2.5044 H       
  44 H44            2.8982    -4.8355    -1.1662 H       
@<TRIPOS>BOND
   1    1    2 ar
   2    1    6 ar
   3    1   19 1
   4    2    3 ar
   5    2   28 1
   6    3    4 ar
   7    3    8 1
   8    4    5 ar
   9    4    7 1
  10    5    6 ar
  11    5   29 1
  12    6   22 1
  13    7    9 1
  14    8    9 1
  15    8   11 1
  16    8   12 1
  17    9   30 1
  18    9   31 1
  19   10   11 ar
  20   10   13 1
  21   10   18 ar
  22   11   15 ar
  23   12   13 am
  24   12   14 2
  25   13   23 1
  26   15   16 ar
  27   15   32 1
  28   16   17 ar
  29   16   33 1
  30   17   18 ar
  31   17   34 1
  32   18   35 1
  33   19   20 1
  34   20   21 1
  35   20   36 1
  36   20   37 1
  37   21   22 1
  38   21   38 1
  39   21   39 1
  40   23   24 1
  41   23   40 1
  42   23   41 1
  43   24   25 2
  44   24   26 1
  45   25   27 1
  46   26   42 1
  47   26   43 1
  48   27   44 1

#	End of record

