#	Name: ASD02198371
#	Creating user name:	WinNT
#	Creation time:	15. 06. 2019 20:19

#	Modifying user name:	WinNT
#	Modification time:	15. 06. 2019 20:19

#	Program:	/corina/corina34_cracker 3.40 0067  02.08.2006

@<TRIPOS>MOLECULE
ASD02198371
  38   40    0    0    0
SMALL
NO_CHARGES


@<TRIPOS>ATOM
   1 C1             0.0009     1.4010     0.2319 C.2     
   2 C2             0.0119     0.0156     0.2293 C.2     
   3 S3             1.6707     1.9490     0.1090 S.3     
   4 C4             2.2165     0.3305     0.0664 C.2     
   5 N5             1.2151    -0.4989     0.1394 N.2     
   6 N6            -1.1368    -0.7522     0.3138 N.pl3   
   7 C7            -1.1308     2.2164     0.3116 C.2     
   8 C8            -0.9811     3.7160     0.3033 C.3     
   9 O9            -2.2370     1.7160     0.3878 O.2     
  10 N10            3.5371    -0.0461    -0.0324 N.pl3   
  11 C11            3.8880    -1.3963     0.0626 C.ar    
  12 C12            3.1334    -2.2550     0.8467 C.ar    
  13 C13            3.4877    -3.6016     0.9377 C.ar    
  14 C14            4.5998    -4.0747     0.2382 C.ar    
  15 C15            5.3443    -3.2113    -0.5397 C.ar    
  16 C16            4.9902    -1.8787    -0.6340 C.ar    
  17 C17           -2.2717     4.3716    -0.2186 C.3     
  18 C18           -2.8037     5.2655     0.9206 C.3     
  19 C19           -1.5512     5.5736     1.7781 C.3     
  20 C20           -0.7739     4.2344     1.7414 C.3     
  21 C21            2.7137    -4.4951     1.7460 C.1     
  22 N22            2.0997    -5.2039     2.3871 N.1     
  23 H23           -2.0038    -0.3222     0.3789 H       
  24 H24           -1.0747    -1.7202     0.3079 H       
  25 H25           -0.1367     4.0032    -0.3232 H       
  26 H26            4.2241     0.6252    -0.1678 H       
  27 H27            2.2746    -1.8830     1.3856 H       
  28 H28            4.8775    -5.1162     0.3062 H       
  29 H29            6.2042    -3.5791    -1.0796 H       
  30 H30            5.5766    -1.2081    -1.2446 H       
  31 H31           -2.0534     4.9777    -1.0979 H       
  32 H32           -3.0062     3.6052    -0.4658 H       
  33 H33           -3.2260     6.1860     0.5176 H       
  34 H34           -3.5474     4.7297     1.5103 H       
  35 H35           -0.9630     6.3740     1.3292 H       
  36 H36           -1.8351     5.8276     2.7994 H       
  37 H37           -1.1898     3.5320     2.4637 H       
  38 H38            0.2851     4.4024     1.9375 H       
@<TRIPOS>BOND
   1    1    2 2
   2    1    3 1
   3    1    7 1
   4    2    6 1
   5    2    5 1
   6    3    4 1
   7    4    5 2
   8    4   10 1
   9    6   23 1
  10    6   24 1
  11    7    8 1
  12    7    9 2
  13    8   17 1
  14    8   20 1
  15    8   25 1
  16   10   11 1
  17   10   26 1
  18   11   12 ar
  19   11   16 ar
  20   12   13 ar
  21   12   27 1
  22   13   14 ar
  23   13   21 1
  24   14   15 ar
  25   14   28 1
  26   15   16 ar
  27   15   29 1
  28   16   30 1
  29   17   18 1
  30   17   31 1
  31   17   32 1
  32   18   19 1
  33   18   33 1
  34   18   34 1
  35   19   20 1
  36   19   35 1
  37   19   36 1
  38   20   37 1
  39   20   38 1
  40   21   22 3

#	End of record

