#	Name: ASD06170154
#	Creating user name:	WinNT
#	Creation time:	15. 06. 2019 21:05

#	Modifying user name:	WinNT
#	Modification time:	15. 06. 2019 21:05

#	Program:	/corina/corina34_cracker 3.40 0067  02.08.2006

@<TRIPOS>MOLECULE
ASD06170154
  66   70    0    0    0
SMALL
NO_CHARGES


@<TRIPOS>ATOM
   1 N1            -2.0681    -1.9526    -2.4131 N.am    
   2 C2            -1.1492    -2.3183    -1.3235 C.3     
   3 C3            -1.1977    -3.8395    -1.1403 C.3     
   4 O4            -0.9708    -4.4730    -2.4017 O.3     
   5 C5            -1.9631    -4.1829    -3.3891 C.3     
   6 C6            -1.9539    -2.6793    -3.6875 C.3     
   7 C7            -2.9908    -0.9844    -2.2469 C.2     
   8 O8            -3.1322    -0.4597    -1.1594 O.2     
   9 N9            -3.7569    -0.5979    -3.2862 N.am    
  10 C10           -6.2966     1.8305    -3.9446 C.ar    
  11 N11           -5.3217     0.9622    -4.1225 N.ar    
  12 C12           -4.7853     0.3173    -3.0896 C.ar    
  13 C13           -5.2688     0.5719    -1.8098 C.ar    
  14 C14           -6.2979     1.4949    -1.6660 C.ar    
  15 N15           -6.7807     2.0980    -2.7489 N.ar    
  16 O16           -6.8023     1.7766    -0.4400 O.3     
  17 C17           -7.8775     2.6064    -0.3671 C.ar    
  18 C18           -9.1605     2.0965    -0.5253 C.ar    
  19 C19          -10.2530     2.9401    -0.4507 C.ar    
  20 C20          -10.0672     4.2966    -0.2176 C.ar    
  21 C21           -8.7847     4.8042    -0.0598 C.ar    
  22 C22           -7.6936     3.9597    -0.1292 C.ar    
  23 F23           -9.3400     0.7769    -0.7525 F       
  24 C24          -12.3514     4.6912     0.3224 C.2     
  25 O25          -12.4295     3.5617     0.7687 O.2     
  26 N26          -11.1732     5.1522    -0.1423 N.am    
  27 N27          -15.6166     6.2832     0.5263 N.pl3   
  28 N28          -14.8929     7.3316    -0.0494 N.am    
  29 C29          -13.6148     6.9319    -0.2140 C.2     
  30 C30          -13.5403     5.5514     0.2901 C.2     
  31 C31          -14.8090     5.2245     0.7275 C.2     
  32 C32          -15.4076     8.5848    -0.3970 C.ar    
  33 C33          -14.6572     9.7319    -0.1732 C.ar    
  34 C34          -15.1684    10.9678    -0.5175 C.ar    
  35 C35          -16.4261    11.0640    -1.0842 C.ar    
  36 C36          -17.1760     9.9239    -1.3080 C.ar    
  37 C37          -16.6679     8.6844    -0.9720 C.ar    
  38 O38          -12.7029     7.5846    -0.6865 O.2     
  39 C39          -15.2201     3.9054     1.3292 C.3     
  40 C40          -17.0408     6.3313     0.8661 C.3     
  41 H41           -0.1352    -2.0116    -1.5800 H       
  42 H42           -1.4596    -1.8274    -0.4012 H       
  43 H43           -0.4254    -4.1461    -0.4349 H       
  44 H44           -2.1765    -4.1292    -0.7582 H       
  45 H45           -1.7415    -4.7366    -4.3016 H       
  46 H46           -2.9448    -4.4739    -3.0152 H       
  47 H47           -2.7971    -2.4275    -4.3306 H       
  48 H48           -1.0208    -2.4089    -4.1820 H       
  49 H49           -3.5909    -0.9582    -4.1714 H       
  50 H50           -6.7076     2.3408    -4.8031 H       
  51 H51           -4.8553     0.0649    -0.9505 H       
  52 H52          -11.2504     2.5447    -0.5739 H       
  53 H53           -8.6402     5.8591     0.1215 H       
  54 H54           -6.6964     4.3547    -0.0022 H       
  55 H55          -11.0914     6.0766    -0.4245 H       
  56 H56          -13.6751     9.6574     0.2700 H       
  57 H57          -14.5853    11.8601    -0.3437 H       
  58 H58          -16.8237    12.0317    -1.3522 H       
  59 H59          -18.1582    10.0025    -1.7501 H       
  60 H60          -17.2520     7.7939    -1.1518 H       
  61 H61          -15.5511     3.2326     0.5381 H       
  62 H62          -14.3709     3.4634     1.8504 H       
  63 H63          -16.0356     4.0661     2.0344 H       
  64 H64          -17.6247     5.9178     0.0438 H       
  65 H65          -17.2190     5.7463     1.7684 H       
  66 H66          -17.3384     7.3655     1.0390 H       
@<TRIPOS>BOND
   1    1    2 1
   2    1    6 1
   3    1    7 am
   4    2    3 1
   5    2   41 1
   6    2   42 1
   7    3    4 1
   8    3   43 1
   9    3   44 1
  10    4    5 1
  11    5    6 1
  12    5   45 1
  13    5   46 1
  14    6   47 1
  15    6   48 1
  16    7    8 2
  17    7    9 am
  18    9   12 1
  19    9   49 1
  20   10   11 ar
  21   10   15 ar
  22   10   50 1
  23   11   12 ar
  24   12   13 ar
  25   13   14 ar
  26   13   51 1
  27   14   15 ar
  28   14   16 1
  29   16   17 1
  30   17   18 ar
  31   17   22 ar
  32   18   19 ar
  33   18   23 1
  34   19   20 ar
  35   19   52 1
  36   20   21 ar
  37   20   26 1
  38   21   22 ar
  39   21   53 1
  40   22   54 1
  41   24   25 2
  42   24   26 am
  43   24   30 1
  44   26   55 1
  45   27   28 1
  46   27   31 1
  47   27   40 1
  48   28   29 am
  49   28   32 1
  50   29   30 1
  51   29   38 2
  52   30   31 2
  53   31   39 1
  54   32   33 ar
  55   32   37 ar
  56   33   34 ar
  57   33   56 1
  58   34   35 ar
  59   34   57 1
  60   35   36 ar
  61   35   58 1
  62   36   37 ar
  63   36   59 1
  64   37   60 1
  65   39   61 1
  66   39   62 1
  67   39   63 1
  68   40   64 1
  69   40   65 1
  70   40   66 1

#	End of record

