#	Name: ASD03240055
#	Creating user name:	WinNT
#	Creation time:	15. 06. 2019 20:34

#	Modifying user name:	WinNT
#	Modification time:	15. 06. 2019 20:34

#	Program:	/corina/corina34_cracker 3.40 0067  02.08.2006

@<TRIPOS>MOLECULE
ASD03240055
  70   76    0    0    0
SMALL
NO_CHARGES


@<TRIPOS>ATOM
   1 C1            -0.0169     1.3921     0.0097 C.ar    
   2 C2             0.0021    -0.0041     0.0020 C.ar    
   3 C3             1.1939     2.0911     0.0019 C.ar    
   4 C4             2.3787     1.3586    -0.0134 C.ar    
   5 C5             2.3111    -0.0448    -0.0202 C.ar    
   6 N6             1.1390    -0.6657    -0.0120 N.ar    
   7 C7             3.5611    -0.8389    -0.0364 C.ar    
   8 C8             3.6907     2.0492    -0.0227 C.ar    
   9 C9             3.9399     3.0655    -0.9436 C.ar    
  10 C10            5.1629     3.7048    -0.9476 C.ar    
  11 C11            6.1407     3.3387    -0.0401 C.ar    
  12 C12            5.8992     2.3306     0.8758 C.ar    
  13 C13            4.6777     1.6885     0.8932 C.ar    
  14 C14            3.6289    -2.0521     0.6483 C.ar    
  15 C15            4.7964    -2.7874     0.6295 C.ar    
  16 C16            5.8984    -2.3232    -0.0663 C.ar    
  17 C17            5.8374    -1.1204    -0.7471 C.ar    
  18 C18            4.6735    -0.3793    -0.7413 C.ar    
  19 C19            7.1705    -3.1310    -0.0823 C.3     
  20 N20            7.1476    -4.0580    -1.2217 N.3     
  21 C21            8.4590    -4.6910    -1.4115 C.3     
  22 C22            8.4396    -5.5347    -2.6881 C.3     
  23 C23            7.3485    -6.6027    -2.5718 C.3     
  24 C24            6.0005    -5.9192    -2.3263 C.3     
  25 C25            6.0905    -5.0644    -1.0602 C.3     
  26 C26           -1.3030     2.1231     0.0198 C.2     
  27 C27            7.2844    -7.3984    -3.8500 C.2     
  28 N28            7.8954    -8.5285    -4.0559 N.2     
  29 C29            7.6236    -8.9725    -5.3100 C.ar    
  30 C30            6.7754    -8.0236    -5.9051 C.ar    
  31 N31            6.5744    -7.0428    -4.9545 N.pl3   
  32 N32           -1.4605     3.4302     0.0272 N.2     
  33 N33           -2.7085     3.7326     0.0345 N.2     
  34 N34           -3.4298     2.6643     0.0323 N.2     
  35 N35           -2.5430     1.5735     0.0172 N.pl3   
  36 C36            8.0076   -10.1027    -6.0365 C.ar    
  37 C37            7.5573   -10.2757    -7.3145 C.ar    
  38 C38            6.7195    -9.3388    -7.9028 C.ar    
  39 C39            6.3277    -8.2163    -7.2051 C.ar    
  40 C40            6.2351    -9.5496    -9.3142 C.3     
  41 H41           -0.9305    -0.5488     0.0080 H       
  42 H42            1.2102     3.1709     0.0072 H       
  43 H43            3.1774     3.3519    -1.6528 H       
  44 H44            5.3573     4.4921    -1.6609 H       
  45 H45            7.0964     3.8417    -0.0469 H       
  46 H46            6.6665     2.0485     1.5816 H       
  47 H47            4.4903     0.9016     1.6088 H       
  48 H48            2.7695    -2.4151     1.1924 H       
  49 H49            4.8501    -3.7269     1.1594 H       
  50 H50            6.7011    -0.7631    -1.2882 H       
  51 H51            4.6270     0.5593    -1.2734 H       
  52 H52            8.0251    -2.4610    -0.1761 H       
  53 H53            7.2530    -3.6974     0.8453 H       
  54 H54            9.2252    -3.9205    -1.4969 H       
  55 H55            8.6807    -5.3303    -0.5570 H       
  56 H56            8.2316    -4.8937    -3.5448 H       
  57 H57            9.4082    -6.0169    -2.8204 H       
  58 H58            7.5769    -7.2675    -1.7388 H       
  59 H59            5.7541    -5.2843    -3.1773 H       
  60 H60            5.2264    -6.6762    -2.2000 H       
  61 H61            6.3234    -5.7019    -0.2073 H       
  62 H62            5.1366    -4.5651    -0.8904 H       
  63 H63            6.0327    -6.2448    -5.0575 H       
  64 H64           -2.7694     0.6303     0.0121 H       
  65 H65            8.6596   -10.8380    -5.5885 H       
  66 H66            7.8566   -11.1504    -7.8729 H       
  67 H67            5.6756    -7.4901    -7.6676 H       
  68 H68            5.2995   -10.1085    -9.2975 H       
  69 H69            6.0724    -8.5829    -9.7907 H       
  70 H70            6.9831   -10.1099    -9.8752 H       
@<TRIPOS>BOND
   1    1    2 ar
   2    1    3 ar
   3    1   26 1
   4    2    6 ar
   5    2   41 1
   6    3    4 ar
   7    3   42 1
   8    4    5 ar
   9    4    8 1
  10    5    6 ar
  11    5    7 1
  12    7   14 ar
  13    7   18 ar
  14    8    9 ar
  15    8   13 ar
  16    9   10 ar
  17    9   43 1
  18   10   11 ar
  19   10   44 1
  20   11   12 ar
  21   11   45 1
  22   12   13 ar
  23   12   46 1
  24   13   47 1
  25   14   15 ar
  26   14   48 1
  27   15   16 ar
  28   15   49 1
  29   16   17 ar
  30   16   19 1
  31   17   18 ar
  32   17   50 1
  33   18   51 1
  34   19   20 1
  35   19   52 1
  36   19   53 1
  37   20   21 1
  38   20   25 1
  39   21   22 1
  40   21   54 1
  41   21   55 1
  42   22   23 1
  43   22   56 1
  44   22   57 1
  45   23   24 1
  46   23   27 1
  47   23   58 1
  48   24   25 1
  49   24   59 1
  50   24   60 1
  51   25   61 1
  52   25   62 1
  53   26   32 2
  54   26   35 1
  55   27   28 2
  56   27   31 1
  57   28   29 1
  58   29   30 ar
  59   29   36 ar
  60   30   31 1
  61   30   39 ar
  62   31   63 1
  63   32   33 1
  64   33   34 2
  65   34   35 1
  66   35   64 1
  67   36   37 ar
  68   36   65 1
  69   37   38 ar
  70   37   66 1
  71   38   39 ar
  72   38   40 1
  73   39   67 1
  74   40   68 1
  75   40   69 1
  76   40   70 1

#	End of record

