#	Name: ASD01148802
#	Creating user name:	WinNT
#	Creation time:	15. 06. 2019 19:03

#	Modifying user name:	WinNT
#	Modification time:	15. 06. 2019 19:03

#	Program:	/corina/corina34_cracker 3.40 0067  02.08.2006

@<TRIPOS>MOLECULE
ASD01148802
  76   80    0    0    0
SMALL
NO_CHARGES


@<TRIPOS>ATOM
   1 N1             0.2524     2.4476    -0.3722 N.pl3   
   2 C2            -0.1432     1.1673    -0.5642 C.2     
   3 C3             0.9095     0.3266    -0.2759 C.2     
   4 C4             2.0314     1.1923     0.1237 C.2     
   5 C5             1.5602     2.4878     0.0428 C.2     
   6 C6             0.9120    -1.1413    -0.3516 C.2     
   7 O7             1.2298    -1.6961    -1.3856 O.2     
   8 O8             0.5619    -1.8724     0.7255 O.3     
   9 C9            -0.5570     3.5731    -0.5743 C.ar    
  10 C10           -1.6490     3.8021     0.2522 C.ar    
  11 C11           -2.4448     4.9129     0.0507 C.ar    
  12 C12           -2.1549     5.7964    -0.9728 C.ar    
  13 C13           -1.0684     5.5707    -1.7979 C.ar    
  14 C14           -0.2655     4.4649    -1.5979 C.ar    
  15 S15           -3.1725     7.2122    -1.2266 S.o2    
  16 O16           -3.0023     7.5903    -2.5858 O.2     
  17 O17           -4.4379     6.9040    -0.6583 O.2     
  18 N18           -2.5380     8.4415    -0.3163 N.am    
  19 C19            3.3883     0.7616     0.5299 C.ar    
  20 C20            4.2337     0.1536    -0.3952 C.ar    
  21 C21            5.5093    -0.2484    -0.0050 C.ar    
  22 C22            5.9321    -0.0396     1.3098 C.ar    
  23 C23            5.0888     0.5632     2.2216 C.ar    
  24 C24            3.8252     0.9691     1.8393 C.ar    
  25 C25            6.4133    -0.8950    -0.9802 C.2     
  26 O26            5.9711    -1.6957    -1.7807 O.2     
  27 N27            7.7276    -0.5965    -0.9816 N.am    
  28 C28            8.6309    -1.1698    -1.9909 C.3     
  29 C29            9.4292    -0.0303    -2.6331 C.3     
  30 N30           10.0905     0.7534    -1.5812 N.3     
  31 C31            9.1081     1.3924    -0.6954 C.3     
  32 C32            8.2956     0.3160     0.0224 C.3     
  33 C33           11.0025     1.7486    -2.1608 C.3     
  34 C34           -1.5125     0.7322    -1.0188 C.3     
  35 C35            2.3319     3.7085     0.3500 C.ar    
  36 C36            1.8371     4.6389     1.2666 C.ar    
  37 C37            2.5630     5.7769     1.5495 C.ar    
  38 C38            3.7800     5.9982     0.9266 C.ar    
  39 C39            4.2761     5.0795     0.0168 C.ar    
  40 C40            3.5626     3.9348    -0.2705 C.ar    
  41 Cl41           4.6871     7.4337     1.2874 Cl      
  42 C42            0.5872    -3.3167     0.5784 C.3     
  43 C43            0.1628    -3.9709     1.8948 C.3     
  44 H44           -1.8761     3.1123     1.0516 H       
  45 H45           -3.2945     5.0914     0.6930 H       
  46 H46           -0.8450     6.2622    -2.5969 H       
  47 H47            0.5858     4.2917    -2.2396 H       
  48 H48           -2.6372     9.3615    -0.6073 H       
  49 H49           -2.0672     8.2415     0.5078 H       
  50 H50            3.9017    -0.0058    -1.4105 H       
  51 H51            6.9206    -0.3507     1.6139 H       
  52 H52            5.4201     0.7217     3.2372 H       
  53 H53            3.1721     1.4444     2.5563 H       
  54 H54            9.3144    -1.8722    -1.5138 H       
  55 H55            8.0474    -1.6838    -2.7547 H       
  56 H56           10.1810    -0.4460    -3.3040 H       
  57 H57            8.7544     0.6139    -3.1968 H       
  58 H58            9.6271     2.0085     0.0389 H       
  59 H59            8.4378     2.0168    -1.2861 H       
  60 H60            7.4905     0.7837     0.5891 H       
  61 H61            8.9462    -0.2409     0.6968 H       
  62 H62           10.4396     2.4278    -2.8010 H       
  63 H63           11.4787     2.3147    -1.3603 H       
  64 H64           11.7658     1.2417    -2.7511 H       
  65 H65           -1.5340     0.6788    -2.1073 H       
  66 H66           -1.7388    -0.2493    -0.6023 H       
  67 H67           -2.2551     1.4525    -0.6757 H       
  68 H68            0.8879     4.4677     1.7524 H       
  69 H69            2.1815     6.4971     2.2581 H       
  70 H70            5.2258     5.2579    -0.4656 H       
  71 H71            3.9527     3.2169    -0.9768 H       
  72 H72           -0.1009    -3.6134    -0.2132 H       
  73 H73            1.5966    -3.6382     0.3218 H       
  74 H74           -0.8467    -3.6495     2.1514 H       
  75 H75            0.1818    -5.0552     1.7844 H       
  76 H76            0.8508    -3.6742     2.6864 H       
@<TRIPOS>BOND
   1    1    2 1
   2    1    5 1
   3    1    9 1
   4    2    3 2
   5    2   34 1
   6    3    4 1
   7    3    6 1
   8    4    5 2
   9    4   19 1
  10    5   35 1
  11    6    7 2
  12    6    8 1
  13    8   42 1
  14    9   10 ar
  15    9   14 ar
  16   10   11 ar
  17   10   44 1
  18   11   12 ar
  19   11   45 1
  20   12   13 ar
  21   12   15 1
  22   13   14 ar
  23   13   46 1
  24   14   47 1
  25   15   16 2
  26   15   17 2
  27   15   18 am
  28   18   48 1
  29   18   49 1
  30   19   20 ar
  31   19   24 ar
  32   20   21 ar
  33   20   50 1
  34   21   22 ar
  35   21   25 1
  36   22   23 ar
  37   22   51 1
  38   23   24 ar
  39   23   52 1
  40   24   53 1
  41   25   26 2
  42   25   27 am
  43   27   28 1
  44   27   32 1
  45   28   29 1
  46   28   54 1
  47   28   55 1
  48   29   30 1
  49   29   56 1
  50   29   57 1
  51   30   31 1
  52   30   33 1
  53   31   32 1
  54   31   58 1
  55   31   59 1
  56   32   60 1
  57   32   61 1
  58   33   62 1
  59   33   63 1
  60   33   64 1
  61   34   65 1
  62   34   66 1
  63   34   67 1
  64   35   36 ar
  65   35   40 ar
  66   36   37 ar
  67   36   68 1
  68   37   38 ar
  69   37   69 1
  70   38   39 ar
  71   38   41 1
  72   39   40 ar
  73   39   70 1
  74   40   71 1
  75   42   43 1
  76   42   72 1
  77   42   73 1
  78   43   74 1
  79   43   75 1
  80   43   76 1

#	End of record

