#	Name: ASD04230014
#	Creating user name:	WinNT
#	Creation time:	15. 06. 2019 20:48

#	Modifying user name:	WinNT
#	Modification time:	15. 06. 2019 20:48

#	Program:	/corina/corina34_cracker 3.40 0067  02.08.2006

@<TRIPOS>MOLECULE
ASD04230014
  37   40    0    0    0
SMALL
NO_CHARGES


@<TRIPOS>ATOM
   1 C1            -0.0187     1.4652     0.1034 C.2     
   2 C2             0.0012    -0.0046     0.0959 C.ar    
   3 C3            -1.2154    -0.7177     0.0564 C.ar    
   4 C4            -2.4544    -0.0374     0.0235 C.ar    
   5 C5            -2.4936     1.4224     0.0300 C.2     
   6 C6            -1.3083     2.1606     0.0758 C.2     
   7 C7             1.2085    -0.7021     0.1278 C.ar    
   8 C8             1.2158    -2.0857     0.1203 C.ar    
   9 C9             0.0371    -2.8010     0.0814 C.ar    
  10 C10           -1.1920    -2.1310     0.0492 C.ar    
  11 C11           -2.4147    -2.8451     0.0095 C.ar    
  12 C12           -3.6202    -2.1518    -0.0217 C.ar    
  13 C13           -3.6468    -0.7757    -0.0159 C.ar    
  14 O14            1.0237     2.0973     0.1372 O.2     
  15 N15           -2.4100    -4.2233     0.0014 N.3     
  16 C16           -1.8419    -4.7389    -1.2463 C.3     
  17 C17           -1.4390    -6.2066    -1.0676 C.3     
  18 S18           -2.9319    -7.1726    -0.6843 S.3     
  19 C19           -3.6494    -6.2246     0.6924 C.3     
  20 C20           -3.7480    -4.7544     0.2713 C.3     
  21 C21           -3.7541     2.1011    -0.0045 C.1     
  22 N22           -4.7541     2.6394    -0.0318 N.1     
  23 C23           -1.3530     3.5919     0.0823 C.1     
  24 N24           -1.3885     4.7273     0.0875 N.1     
  25 H25            2.1420    -0.1598     0.1581 H       
  26 H26            2.1579    -2.6132     0.1450 H       
  27 H27            0.0623    -3.8807     0.0754 H       
  28 H28           -4.5493    -2.7016    -0.0522 H       
  29 H29           -4.5949    -0.2591    -0.0402 H       
  30 H30           -2.5837    -4.6612    -2.0413 H       
  31 H31           -0.9632    -4.1520    -1.5139 H       
  32 H32           -0.9891    -6.5776    -1.9885 H       
  33 H33           -0.7262    -6.2933    -0.2475 H       
  34 H34           -4.6439    -6.6074     0.9215 H       
  35 H35           -3.0091    -6.3119     1.5701 H       
  36 H36           -4.2115    -4.1785     1.0723 H       
  37 H37           -4.3574    -4.6756    -0.6291 H       
@<TRIPOS>BOND
   1    1    2 1
   2    1   14 2
   3    1    6 1
   4    2    3 ar
   5    2    7 ar
   6    3    4 ar
   7    3   10 ar
   8    4    5 1
   9    4   13 ar
  10    5    6 2
  11    5   21 1
  12    6   23 1
  13    7    8 ar
  14    7   25 1
  15    8    9 ar
  16    8   26 1
  17    9   10 ar
  18    9   27 1
  19   10   11 ar
  20   11   12 ar
  21   11   15 1
  22   12   13 ar
  23   12   28 1
  24   13   29 1
  25   15   16 1
  26   15   20 1
  27   16   17 1
  28   16   30 1
  29   16   31 1
  30   17   18 1
  31   17   32 1
  32   17   33 1
  33   18   19 1
  34   19   20 1
  35   19   34 1
  36   19   35 1
  37   20   36 1
  38   20   37 1
  39   21   22 3
  40   23   24 3

#	End of record

