#	Name: ASD04590136
#	Creating user name:	WinNT
#	Creation time:	15. 06. 2019 20:50

#	Modifying user name:	WinNT
#	Modification time:	15. 06. 2019 20:50

#	Program:	/corina/corina34_cracker 3.40 0067  02.08.2006

@<TRIPOS>MOLECULE
ASD04590136
  49   51    0    0    0
SMALL
NO_CHARGES


@<TRIPOS>ATOM
   1 N1            -0.0153     1.2802     0.0091 N.pl3   
   2 N2             0.0021    -0.0041     0.0020 N.2     
   3 C3             1.2455    -0.4440    -0.0122 C.2     
   4 C4             2.0903     0.6961    -0.0142 C.2     
   5 C5             1.2523     1.7667    -0.0004 C.2     
   6 C6             1.6765    -1.8547    -0.0235 C.2     
   7 N7             0.7571    -2.8402    -0.0200 N.am    
   8 O8             2.8611    -2.1284    -0.0359 O.2     
   9 N9             3.4930     0.7146    -0.0270 N.am    
  10 C10            4.1514     1.8906    -0.0271 C.2     
  11 C11            6.3444     0.7120    -0.0535 C.ar    
  12 C12            5.6264     1.9101    -0.0406 C.ar    
  13 C13            1.1851    -4.2412    -0.0312 C.3     
  14 C14            0.0894    -5.1159     0.5844 C.3     
  15 C15            0.5160    -6.5840     0.5145 C.3     
  16 N16            0.7410    -6.9635    -0.8861 N.3     
  17 C17            1.8215    -6.1692    -1.4844 C.3     
  18 C18            1.4339    -4.6887    -1.4743 C.3     
  19 C19            7.7244     0.7374    -0.0666 C.ar    
  20 C20            8.4008     1.9482    -0.0670 C.ar    
  21 C21            7.7012     3.1388    -0.0544 C.ar    
  22 C22            6.3149     3.1308    -0.0412 C.ar    
  23 O23            3.5295     2.9356    -0.0159 O.2     
  24 O24            5.6272     4.3006    -0.0283 O.3     
  25 C25            1.0174    -8.4014    -1.0040 C.3     
  26 F26            8.4188    -0.4214    -0.0785 F       
  27 C27            6.3960     5.5052    -0.0293 C.3     
  28 H28           -0.8184     1.8242     0.0160 H       
  29 H29            1.5405     2.8076     0.0021 H       
  30 H30           -0.1880    -2.6218    -0.0102 H       
  31 H31            3.9890    -0.1189    -0.0359 H       
  32 H32            5.8208    -0.2326    -0.0487 H       
  33 H33            2.1030    -4.3463     0.5472 H       
  34 H34           -0.0625    -4.8302     1.6252 H       
  35 H35           -0.8392    -4.9800     0.0299 H       
  36 H36            1.4371    -6.7218     1.0807 H       
  37 H37           -0.2683    -7.2106     0.9391 H       
  38 H38            2.7366    -6.3090    -0.9089 H       
  39 H39            1.9855    -6.4946    -2.5117 H       
  40 H40            0.5265    -4.5461    -2.0611 H       
  41 H41            2.2427    -4.0979    -1.9042 H       
  42 H42            9.4807     1.9599    -0.0770 H       
  43 H43            8.2349     4.0777    -0.0549 H       
  44 H44            0.1682    -8.9672    -0.6207 H       
  45 H45            1.1802    -8.6555    -2.0514 H       
  46 H46            1.9087    -8.6486    -0.4273 H       
  47 H47            7.0331     5.5303     0.8548 H       
  48 H48            7.0161     5.5398    -0.9251 H       
  49 H49            5.7253     6.3643    -0.0183 H       
@<TRIPOS>BOND
   1    1    2 1
   2    1    5 1
   3    1   28 1
   4    2    3 2
   5    3    4 1
   6    3    6 1
   7    4    5 2
   8    4    9 1
   9    5   29 1
  10    6    7 am
  11    6    8 2
  12    7   13 1
  13    7   30 1
  14    9   10 am
  15    9   31 1
  16   10   23 2
  17   10   12 1
  18   11   12 ar
  19   11   19 ar
  20   11   32 1
  21   12   22 ar
  22   13   14 1
  23   13   18 1
  24   13   33 1
  25   14   15 1
  26   14   34 1
  27   14   35 1
  28   15   16 1
  29   15   36 1
  30   15   37 1
  31   16   17 1
  32   16   25 1
  33   17   18 1
  34   17   38 1
  35   17   39 1
  36   18   40 1
  37   18   41 1
  38   19   20 ar
  39   19   26 1
  40   20   21 ar
  41   20   42 1
  42   21   22 ar
  43   21   43 1
  44   22   24 1
  45   24   27 1
  46   25   44 1
  47   25   45 1
  48   25   46 1
  49   27   47 1
  50   27   48 1
  51   27   49 1

#	End of record

