#	Name: ASD03080022
#	Creating user name:	WinNT
#	Creation time:	15. 06. 2019 20:26

#	Modifying user name:	WinNT
#	Modification time:	15. 06. 2019 20:26

#	Program:	/corina/corina34_cracker 3.40 0067  02.08.2006

@<TRIPOS>MOLECULE
ASD03080022
  27   29    0    0    0
SMALL
NO_CHARGES


@<TRIPOS>ATOM
   1 C1            -0.0168     1.3868     0.0097 C.ar    
   2 C2             0.0021    -0.0041     0.0020 C.ar    
   3 C3             1.2081    -0.6841    -0.0127 C.ar    
   4 C4             2.3980     0.0142    -0.0203 C.ar    
   5 C5             2.3877     1.4100    -0.0131 C.ar    
   6 C6             1.1712     2.0949     0.0021 C.ar    
   7 O7             3.8020     3.4951    -0.0148 O.3     
   8 N8             4.9793     3.7858    -0.0233 N.2     
   9 C9             5.7149     2.7038    -0.0354 C.2     
  10 N10            4.8764     1.6466    -0.0339 N.2     
  11 C11            3.6606     2.1604    -0.0207 C.2     
  12 C12            7.8615     1.4243    -0.0615 C.ar    
  13 C13            7.1983     2.6493    -0.0488 C.ar    
  14 C14            7.9518     3.8258    -0.0494 C.ar    
  15 C15            9.3324     3.7214    -0.0626 C.ar    
  16 C16            9.9157     2.4679    -0.0747 C.ar    
  17 N17            9.1777     1.3744    -0.0739 N.ar    
  18 F18           -1.1598    -0.6934     0.0094 F       
  19 O19           -1.2034     2.0503     0.0189 O.3     
  20 H20            1.2173    -1.7640    -0.0178 H       
  21 H21            3.3371    -0.5190    -0.0314 H       
  22 H22            1.1580     3.1748     0.0080 H       
  23 H23            7.2913     0.5070    -0.0567 H       
  24 H24            7.4697     4.7921    -0.0401 H       
  25 H25            9.9470     4.6095    -0.0638 H       
  26 H26           10.9923     2.3826    -0.0851 H       
  27 H27           -1.5426     2.2375     0.9049 H       
@<TRIPOS>BOND
   1    1    2 ar
   2    1    6 ar
   3    1   19 1
   4    2    3 ar
   5    2   18 1
   6    3    4 ar
   7    3   20 1
   8    4    5 ar
   9    4   21 1
  10    5    6 ar
  11    5   11 1
  12    6   22 1
  13    7    8 1
  14    7   11 1
  15    8    9 2
  16    9   10 1
  17    9   13 1
  18   10   11 2
  19   12   13 ar
  20   12   17 ar
  21   12   23 1
  22   13   14 ar
  23   14   15 ar
  24   14   24 1
  25   15   16 ar
  26   15   25 1
  27   16   17 ar
  28   16   26 1
  29   19   27 1

#	End of record

