#	Name: ASD03092049
#	Creating user name:	WinNT
#	Creation time:	15. 06. 2019 20:31

#	Modifying user name:	WinNT
#	Modification time:	15. 06. 2019 20:31

#	Program:	/corina/corina34_cracker 3.40 0067  02.08.2006

@<TRIPOS>MOLECULE
ASD03092049
  43   45    0    0    0
SMALL
NO_CHARGES


@<TRIPOS>ATOM
   1 N1            -0.1611     0.9624     0.1782 N.am    
   2 C2            -0.3584    -0.3900     0.0731 C.2     
   3 C3            -1.7020    -0.5988    -0.0248 C.2     
   4 C4            -2.3360     0.6533     0.0217 C.2     
   5 N5            -1.4172     1.5815     0.1482 N.2     
   6 N6            -3.7139     0.8735    -0.0495 N.pl3   
   7 C7            -4.2257     2.1661     0.1150 C.ar    
   8 C8            -5.5996     2.3675     0.1818 C.ar    
   9 C9            -6.1024     3.6473     0.3451 C.ar    
  10 C10           -5.2357     4.7252     0.4417 C.ar    
  11 C11           -3.8677     4.5241     0.3746 C.ar    
  12 C12           -3.3617     3.2481     0.2175 C.ar    
  13 C13            0.6924    -1.4306     0.0666 C.ar    
  14 C14            1.0286     1.5848     0.2953 C.2     
  15 F15           -7.4371     3.8456     0.4099 F       
  16 C16            0.4937    -2.6574     0.7100 C.ar    
  17 C17            1.5006    -3.5998     0.6786 C.ar    
  18 N18            2.6368    -3.3566     0.0537 N.ar    
  19 C19            2.8651    -2.2138    -0.5653 C.ar    
  20 C20            1.9112    -1.2180    -0.5884 C.ar    
  21 C21            4.1840    -1.9958    -1.2610 C.3     
  22 N22            1.0894     2.9311     0.2777 N.am    
  23 O23            2.0464     0.9321     0.4167 O.2     
  24 C24            2.3826     3.6076     0.4050 C.3     
  25 C25            2.1728     5.1223     0.3553 C.3     
  26 F26           -5.7270     5.9736     0.6010 F       
  27 F27           -6.4429     1.3163     0.0872 F       
  28 H28           -2.1917    -1.5566    -0.1210 H       
  29 H29           -4.3159     0.1307    -0.2130 H       
  30 H30           -3.1948     5.3655     0.4497 H       
  31 H31           -2.2941     3.0933     0.1654 H       
  32 H32           -0.4338    -2.8631     1.2238 H       
  33 H33            1.3570    -4.5494     1.1725 H       
  34 H34            2.1049    -0.2851    -1.0969 H       
  35 H35            4.1097    -2.3339    -2.2946 H       
  36 H36            4.4334    -0.9349    -1.2428 H       
  37 H37            4.9627    -2.5610    -0.7489 H       
  38 H38            0.2770     3.4521     0.1808 H       
  39 H39            2.8431     3.3356     1.3548 H       
  40 H40            3.0338     3.3039    -0.4146 H       
  41 H41            3.1350     5.6257     0.4500 H       
  42 H42            1.7124     5.3944    -0.5945 H       
  43 H43            1.5217     5.4261     1.1749 H       
@<TRIPOS>BOND
   1    1    2 1
   2    1   14 am
   3    1    5 1
   4    2    3 2
   5    2   13 1
   6    3    4 1
   7    3   28 1
   8    4    5 2
   9    4    6 1
  10    6    7 1
  11    6   29 1
  12    7    8 ar
  13    7   12 ar
  14    8    9 ar
  15    8   27 1
  16    9   10 ar
  17    9   15 1
  18   10   11 ar
  19   10   26 1
  20   11   12 ar
  21   11   30 1
  22   12   31 1
  23   13   16 ar
  24   13   20 ar
  25   14   22 am
  26   14   23 2
  27   16   17 ar
  28   16   32 1
  29   17   18 ar
  30   17   33 1
  31   18   19 ar
  32   19   20 ar
  33   19   21 1
  34   20   34 1
  35   21   35 1
  36   21   36 1
  37   21   37 1
  38   22   24 1
  39   22   38 1
  40   24   25 1
  41   24   39 1
  42   24   40 1
  43   25   41 1
  44   25   42 1
  45   25   43 1

#	End of record

