#	Name: ASD01881206
#	Creating user name:	WinNT
#	Creation time:	15. 06. 2019 19:42

#	Modifying user name:	WinNT
#	Modification time:	15. 06. 2019 19:42

#	Program:	/corina/corina34_cracker 3.40 0067  02.08.2006

@<TRIPOS>MOLECULE
ASD01881206
  41   43    0    0    0
SMALL
NO_CHARGES


@<TRIPOS>ATOM
   1 N1            -0.0159     1.3184     0.0093 N.ar    
   2 C2             0.0021    -0.0041     0.0020 C.ar    
   3 N3             1.1373    -0.6838    -0.0120 N.ar    
   4 C4             2.3057    -0.0588    -0.0198 C.ar    
   5 C5             2.3330     1.3221    -0.0131 C.ar    
   6 C6             1.1188     2.0113     0.0022 C.ar    
   7 C7             3.6427     2.0675    -0.0211 C.3     
   8 O8             4.7230     1.1322    -0.0355 O.3     
   9 C9             5.9802     1.6431    -0.0442 C.ar    
  10 C10            7.0781     0.7876    -0.0584 C.ar    
  11 C11            8.3494     1.3045    -0.0677 C.ar    
  12 C12            8.5509     2.6890    -0.0630 C.ar    
  13 C13            7.4445     3.5449    -0.0487 C.ar    
  14 C14            6.1697     3.0192    -0.0448 C.ar    
  15 C15            9.7202     0.6751    -0.0838 C.3     
  16 N16           10.6802     1.7848    -0.0876 N.am    
  17 C17           10.0009     2.9445    -0.0756 C.2     
  18 O18           10.5114     4.0481    -0.0756 O.2     
  19 Cl19           7.6758     5.2654    -0.0422 Cl      
  20 N20            1.0967     3.3965     0.0089 N.pl3   
  21 C21           12.6326     1.6113    -1.5503 C.3     
  22 C22           12.1390     1.6507    -0.1026 C.3     
  23 O23           -1.1717    -0.6800     0.0096 O.3     
  24 C24           -1.0986    -2.1071     0.0012 C.3     
  25 H25            3.2266    -0.6230    -0.0309 H       
  26 H26            3.6964     2.6982    -0.9085 H       
  27 H27            3.7124     2.6893     0.8714 H       
  28 H28            6.9296    -0.2822    -0.0618 H       
  29 H29            5.3154     3.6798    -0.0342 H       
  30 H30            9.8610     0.0608     0.8056 H       
  31 H31            9.8439     0.0694    -0.9815 H       
  32 H32            1.9289     3.8948     0.0030 H       
  33 H33            0.2491     3.8680     0.0196 H       
  34 H34           13.7180     1.5115    -1.5614 H       
  35 H35           12.1843     0.7609    -2.0640 H       
  36 H36           12.3473     2.5334    -2.0567 H       
  37 H37           12.5873     2.5011     0.4111 H       
  38 H38           12.4243     0.7287     0.4038 H       
  39 H39           -0.5584    -2.4484     0.8843 H       
  40 H40           -2.1063    -2.5226     0.0086 H       
  41 H41           -0.5754    -2.4389    -0.8956 H       
@<TRIPOS>BOND
   1    1    2 ar
   2    1    6 ar
   3    2    3 ar
   4    2   23 1
   5    3    4 ar
   6    4    5 ar
   7    4   25 1
   8    5    6 ar
   9    5    7 1
  10    6   20 1
  11    7    8 1
  12    7   26 1
  13    7   27 1
  14    8    9 1
  15    9   10 ar
  16    9   14 ar
  17   10   11 ar
  18   10   28 1
  19   11   12 ar
  20   11   15 1
  21   12   13 ar
  22   12   17 1
  23   13   14 ar
  24   13   19 1
  25   14   29 1
  26   15   16 1
  27   15   30 1
  28   15   31 1
  29   16   17 am
  30   16   22 1
  31   17   18 2
  32   20   32 1
  33   20   33 1
  34   21   22 1
  35   21   34 1
  36   21   35 1
  37   21   36 1
  38   22   37 1
  39   22   38 1
  40   23   24 1
  41   24   39 1
  42   24   40 1
  43   24   41 1

#	End of record

