#	Name: ASD01411052
#	Creating user name:	WinNT
#	Creation time:	15. 06. 2019 19:19

#	Modifying user name:	WinNT
#	Modification time:	15. 06. 2019 19:19

#	Program:	/corina/corina34_cracker 3.40 0067  02.08.2006

@<TRIPOS>MOLECULE
ASD01411052
  28   29    0    0    0
SMALL
NO_CHARGES


@<TRIPOS>ATOM
   1 C1            -0.0220     1.7678     0.0118 C.2     
   2 S2             0.0021    -0.0041     0.0020 S.3     
   3 C3            -1.7649    -0.1706     0.0187 C.2     
   4 C4            -2.2546     1.2198     0.0310 C.2     
   5 N5            -1.3060     2.1417     0.0319 N.am    
   6 O6            -3.4385     1.4976     0.0442 O.2     
   7 S7             1.3404     2.8047     0.0043 S.2     
   8 C8            -2.5008    -1.3211     0.0191 C.2     
   9 C9            -1.8541    -2.5690     0.0058 C.2     
  10 C10           -1.6597     3.5633     0.0442 C.3     
  11 C11           -2.5736    -3.7281     0.0060 C.2     
  12 C12           -1.9535    -4.9803    -0.0072 C.2     
  13 C13           -0.6068    -5.1490    -0.0215 C.2     
  14 C14            0.2661    -4.0458    -0.0241 C.2     
  15 C15           -0.3426    -2.6583    -0.0157 C.3     
  16 O16            1.4713    -4.2009    -0.0366 O.2     
  17 C17           -1.7725     4.0406     1.4691 C.2     
  18 O18           -1.5775     3.2721     2.3809 O.2     
  19 O19           -2.0897     5.3194     1.7254 O.3     
  20 H20           -3.5796    -1.2720     0.0298 H       
  21 H21           -0.8869     4.1344    -0.4702 H       
  22 H22           -2.6142     3.7046    -0.4630 H       
  23 H23           -3.6523    -3.6765     0.0171 H       
  24 H24           -2.5791    -5.8606    -0.0055 H       
  25 H25           -0.1979    -6.1485    -0.0308 H       
  26 H26            0.0187    -2.1281    -0.8968 H       
  27 H27            0.0307    -2.1335     0.8637 H       
  28 H28           -2.1503     5.5789     2.6550 H       
@<TRIPOS>BOND
   1    1    2 1
   2    1    7 2
   3    1    5 am
   4    2    3 1
   5    3    4 1
   6    3    8 2
   7    4    5 am
   8    4    6 2
   9    5   10 1
  10    8    9 1
  11    8   20 1
  12    9   11 2
  13    9   15 1
  14   10   17 1
  15   10   21 1
  16   10   22 1
  17   11   12 1
  18   11   23 1
  19   12   13 2
  20   12   24 1
  21   13   14 1
  22   13   25 1
  23   14   15 1
  24   14   16 2
  25   15   26 1
  26   15   27 1
  27   17   18 2
  28   17   19 1
  29   19   28 1

#	End of record

