#	Name: ASD05170025
#	Creating user name:	WinNT
#	Creation time:	15. 06. 2019 20:57

#	Modifying user name:	WinNT
#	Modification time:	15. 06. 2019 20:57

#	Program:	/corina/corina34_cracker 3.40 0067  02.08.2006

@<TRIPOS>MOLECULE
ASD05170025
  56   57    0    0    0
SMALL
NO_CHARGES


@<TRIPOS>ATOM
   1 C1            -0.0169     1.3941     0.0097 C.ar    
   2 C2             0.0021    -0.0041     0.0020 C.ar    
   3 C3             1.2232    -0.6829    -0.0133 C.ar    
   4 C4             2.4053     0.0255    -0.0208 C.ar    
   5 C5             2.3865     1.4134    -0.0127 C.ar    
   6 C6             1.1713     2.0975     0.0021 C.ar    
   7 O7             1.1565     3.4574     0.0091 O.3     
   8 C8            -0.1237     4.0922     0.0243 C.3     
   9 C9             0.0603     5.6111     0.0302 C.3     
  10 C10           -1.3104     6.2907     0.0465 C.3     
  11 C11           -1.1264     7.8096     0.0524 C.3     
  12 O12           -2.4066     8.4444     0.0676 O.3     
  13 C13           -2.4214     9.8010     0.0746 C.ar    
  14 C14           -3.6497    11.8621     0.1027 C.ar    
  15 C15           -3.6322    10.4780     0.0951 C.ar    
  16 C16           -1.2208    10.5070     0.0669 C.ar    
  17 C17           -1.2220    11.8712     0.0747 C.ar    
  18 C18           -2.4357    12.5723     0.0900 C.ar    
  19 C19           -4.9271     9.7072     0.1086 C.3     
  20 O20           -4.8301    12.5292     0.1231 O.3     
  21 C21           -2.4397    14.0371     0.0974 C.2     
  22 O22           -3.4921    14.6408     0.1145 O.2     
  23 C23           -1.1368    14.7943     0.0838 C.3     
  24 C24           -0.5890    14.8410    -1.3440 C.3     
  25 O25            3.5540     2.1067    -0.0192 O.3     
  26 C26            4.7618     1.3432    -0.0344 C.3     
  27 O27           -1.3548    16.1259     0.5543 O.3     
  28 C28           -1.2639    -0.7604     0.0105 C.2     
  29 O29           -1.2439    -2.1077     0.0031 O.3     
  30 O30           -2.3251    -0.1687     0.0242 O.2     
  31 H31           -0.9587     1.9226     0.0170 H       
  32 H32            1.2407    -1.7627    -0.0189 H       
  33 H33            3.3485    -0.5005    -0.0326 H       
  34 H34           -0.6858     3.7977    -0.8620 H       
  35 H35           -0.6691     3.7888     0.9179 H       
  36 H36            0.6223     5.9055     0.9165 H       
  37 H37            0.6057     5.9145    -0.8634 H       
  38 H38           -1.8725     5.9963    -0.8398 H       
  39 H39           -1.8558     5.9873     0.9401 H       
  40 H40           -0.5644     8.1041     0.9387 H       
  41 H41           -0.5810     8.1131    -0.8412 H       
  42 H42           -0.2832     9.9712     0.0551 H       
  43 H43           -0.2869    12.4116     0.0694 H       
  44 H44           -5.2533     9.5269    -0.9157 H       
  45 H45           -4.7773     8.7539     0.6154 H       
  46 H46           -5.6874    10.2834     0.6359 H       
  47 H47           -5.1598    12.7181     1.0124 H       
  48 H48           -0.4184    14.2928     0.7324 H       
  49 H49            0.3533    15.3887    -1.3538 H       
  50 H50           -0.4228    13.8253    -1.7028 H       
  51 H51           -1.3074    15.3425    -1.9925 H       
  52 H52            5.6180     2.0177    -0.0382 H       
  53 H53            4.8023     0.7096     0.8516 H       
  54 H54            4.7864     0.7198    -0.9282 H       
  55 H55           -0.5571    16.6721     0.5724 H       
  56 H56           -2.0988    -2.5596     0.0092 H       
@<TRIPOS>BOND
   1    1    2 ar
   2    1    6 ar
   3    1   31 1
   4    2    3 ar
   5    2   28 1
   6    3    4 ar
   7    3   32 1
   8    4    5 ar
   9    4   33 1
  10    5    6 ar
  11    5   25 1
  12    6    7 1
  13    7    8 1
  14    8    9 1
  15    8   34 1
  16    8   35 1
  17    9   10 1
  18    9   36 1
  19    9   37 1
  20   10   11 1
  21   10   38 1
  22   10   39 1
  23   11   12 1
  24   11   40 1
  25   11   41 1
  26   12   13 1
  27   13   16 ar
  28   13   15 ar
  29   14   15 ar
  30   14   18 ar
  31   14   20 1
  32   15   19 1
  33   16   17 ar
  34   16   42 1
  35   17   18 ar
  36   17   43 1
  37   18   21 1
  38   19   44 1
  39   19   45 1
  40   19   46 1
  41   20   47 1
  42   21   22 2
  43   21   23 1
  44   23   24 1
  45   23   27 1
  46   23   48 1
  47   24   49 1
  48   24   50 1
  49   24   51 1
  50   25   26 1
  51   26   52 1
  52   26   53 1
  53   26   54 1
  54   27   55 1
  55   28   29 1
  56   28   30 2
  57   29   56 1

#	End of record

