#	Name: ASD07030014
#	Creating user name:	WinNT
#	Creation time:	15. 06. 2019 21:08

#	Modifying user name:	WinNT
#	Modification time:	15. 06. 2019 21:08

#	Program:	/corina/corina34_cracker 3.40 0067  02.08.2006

@<TRIPOS>MOLECULE
ASD07030014
  54   57    0    0    0
SMALL
NO_CHARGES


@<TRIPOS>ATOM
   1 C1            -0.0187     1.5258     0.0104 C.3     
   2 C2             0.0021    -0.0041     0.0020 C.3     
   3 C3             1.3165     0.7789    -0.0063 C.3     
   4 N4            -0.4313     2.2053    -1.2248 N.3     
   5 C5            -1.0765    -2.0125     3.6189 C.ar    
   6 C6            -1.8102    -2.2278     2.4541 C.ar    
   7 C7            -1.4574    -1.5770     1.2892 C.ar    
   8 C8            -0.3780    -0.7121     1.2769 C.ar    
   9 C9             0.3541    -0.4951     2.4302 C.ar    
  10 C10            0.0102    -1.1406     3.6007 C.ar    
  11 C11           -1.4548    -2.7047     4.8759 C.ar    
  12 C12           -0.7210    -2.4894     6.0409 C.ar    
  13 C13           -1.0775    -3.1353     7.2071 C.ar    
  14 C14           -2.1611    -3.9953     7.2210 C.ar    
  15 C15           -2.8925    -4.2129     6.0677 C.ar    
  16 C16           -2.5483    -3.5677     4.8969 C.ar    
  17 C17           -0.2846    -2.9040     8.4676 C.3     
  18 F18           -0.8327    -1.8267     9.1721 F       
  19 F19           -0.3292    -4.0532     9.2641 F       
  20 F20            1.0441    -2.6172     8.1367 F       
  21 C21           -0.9675     3.5422    -0.9364 C.3     
  22 C22           -1.3855     4.2172    -2.2442 C.3     
  23 N23           -1.9217     5.5540    -1.9557 N.3     
  24 C24           -2.1127     6.3232    -3.1933 C.3     
  25 C25           -2.7451     7.6759    -2.8576 C.3     
  26 N26           -1.8767     8.4004    -1.9193 N.3     
  27 C27           -1.6857     7.6313    -0.6818 C.3     
  28 C28           -1.0532     6.2786    -1.0174 C.3     
  29 H29           -0.3072     2.0201     0.9381 H       
  30 H30           -0.2904    -0.5063    -0.9201 H       
  31 H31            1.8888     0.7918    -0.9339 H       
  32 H32            1.9064     0.7818     0.9103 H       
  33 H33            0.3326     2.2562    -1.8820 H       
  34 H34           -2.6531    -2.9029     2.4627 H       
  35 H35           -2.0254    -1.7431     0.3858 H       
  36 H36            1.1962     0.1810     2.4149 H       
  37 H37            0.5820    -0.9699     4.5008 H       
  38 H38            0.1254    -1.8186     6.0310 H       
  39 H39           -2.4366    -4.4987     8.1359 H       
  40 H40           -3.7374    -4.8856     6.0841 H       
  41 H41           -3.1231    -3.7346     3.9980 H       
  42 H42           -1.8336     3.4526    -0.2807 H       
  43 H43           -0.2014     4.1429    -0.4462 H       
  44 H44           -0.5194     4.3068    -2.8999 H       
  45 H45           -2.1516     3.6164    -2.7344 H       
  46 H46           -1.1480     6.4824    -3.6751 H       
  47 H47           -2.7691     5.7719    -3.8665 H       
  48 H48           -2.8611     8.2597    -3.7707 H       
  49 H49           -3.7219     7.5172    -2.4006 H       
  50 H50           -0.9903     8.6243    -2.3463 H       
  51 H51           -1.0293     8.1826    -0.0086 H       
  52 H52           -2.6504     7.4721    -0.2000 H       
  53 H53           -0.9373     5.6947    -0.1043 H       
  54 H54           -0.0765     6.4372    -1.4745 H       
@<TRIPOS>BOND
   1    1    2 1
   2    1    3 1
   3    1    4 1
   4    1   29 1
   5    2    3 1
   6    2    8 1
   7    2   30 1
   8    3   31 1
   9    3   32 1
  10    4   21 1
  11    4   33 1
  12    5    6 ar
  13    5   10 ar
  14    5   11 1
  15    6    7 ar
  16    6   34 1
  17    7    8 ar
  18    7   35 1
  19    8    9 ar
  20    9   10 ar
  21    9   36 1
  22   10   37 1
  23   11   12 ar
  24   11   16 ar
  25   12   13 ar
  26   12   38 1
  27   13   14 ar
  28   13   17 1
  29   14   15 ar
  30   14   39 1
  31   15   16 ar
  32   15   40 1
  33   16   41 1
  34   17   18 1
  35   17   19 1
  36   17   20 1
  37   21   22 1
  38   21   42 1
  39   21   43 1
  40   22   23 1
  41   22   44 1
  42   22   45 1
  43   23   24 1
  44   23   28 1
  45   24   25 1
  46   24   46 1
  47   24   47 1
  48   25   26 1
  49   25   48 1
  50   25   49 1
  51   26   27 1
  52   26   50 1
  53   27   28 1
  54   27   51 1
  55   27   52 1
  56   28   53 1
  57   28   54 1

#	End of record

