#	Name: ASD01410214
#	Creating user name:	WinNT
#	Creation time:	15. 06. 2019 19:17

#	Modifying user name:	WinNT
#	Modification time:	15. 06. 2019 19:17

#	Program:	/corina/corina34_cracker 3.40 0067  02.08.2006

@<TRIPOS>MOLECULE
ASD01410214
  47   49    0    0    0
SMALL
NO_CHARGES


@<TRIPOS>ATOM
   1 C1            -0.0163     1.3475     0.0095 C.2     
   2 C2             0.0021    -0.0041     0.0020 C.2     
   3 C3            -1.3321    -0.4376     0.0133 C.2     
   4 C4            -2.1146     0.7003     0.0274 C.2     
   5 O5            -1.2891     1.7679     0.0297 O.3     
   6 C6            -4.1759     1.9388     0.0546 C.2     
   7 S7            -3.4708     3.5687     0.0561 S.3     
   8 C8            -5.0402     4.3930     0.0687 C.2     
   9 N9            -5.9628     3.4599     0.0710 N.2     
  10 C10           -5.6233     2.1888     0.0644 C.2     
  11 C11           -3.5274     0.7396     0.0415 C.2     
  12 O12           -6.4473     1.2871     0.0659 O.2     
  13 N13           -5.2500     5.7478     0.0749 N.pl3   
  14 C14           -6.6159     6.2774     0.0851 C.3     
  15 C15           -6.1103     7.6208    -1.9599 C.3     
  16 C16           -6.1169     9.0263    -2.5644 C.3     
  17 C17           -7.5434     9.5794    -2.5537 C.3     
  18 C18           -8.0555     9.6415    -1.1133 C.3     
  19 C19           -8.0489     8.2360    -0.5087 C.3     
  20 C20           -6.6225     7.6829    -0.5194 C.3     
  21 C21            1.1990     2.2387     0.0026 C.3     
  22 C22            1.5965     2.5480    -1.4421 C.3     
  23 C23           -7.1203     6.3385     1.5039 C.2     
  24 O24           -6.4116     5.9767     2.4131 O.2     
  25 O25           -8.3569     6.7948     1.7574 O.3     
  26 H26            0.8800    -0.6329    -0.0108 H       
  27 H27           -1.6791    -1.4603     0.0108 H       
  28 H28           -4.0933    -0.1803     0.0420 H       
  29 H29           -4.4941     6.3556     0.0724 H       
  30 H30           -7.2626     5.6260    -0.5027 H       
  31 H31           -6.7571     6.9694    -2.5477 H       
  32 H32           -5.0941     7.2268    -1.9675 H       
  33 H33           -5.4702     9.6777    -1.9766 H       
  34 H34           -5.7521     8.9821    -3.5906 H       
  35 H35           -7.5481    10.5807    -2.9844 H       
  36 H36           -8.1901     8.9280    -3.1415 H       
  37 H37           -7.4088    10.2929    -0.5255 H       
  38 H38           -9.0718    10.0355    -1.1056 H       
  39 H39           -8.4138     8.2802     0.5175 H       
  40 H40           -8.6957     7.5846    -1.0965 H       
  41 H41           -5.9758     8.3343     0.0684 H       
  42 H42            0.9707     3.1685     0.5237 H       
  43 H43            2.0231     1.7331     0.5059 H       
  44 H44            0.7724     3.0536    -1.9454 H       
  45 H45            2.4755     3.1926    -1.4470 H       
  46 H46            1.8248     1.6182    -1.9631 H       
  47 H47           -8.6361     6.8152     2.6830 H       
@<TRIPOS>BOND
   1    1    2 2
   2    1   21 1
   3    1    5 1
   4    2    3 1
   5    2   26 1
   6    3    4 2
   7    3   27 1
   8    4    5 1
   9    4   11 1
  10    6    7 1
  11    6   10 1
  12    6   11 2
  13    7    8 1
  14    8    9 2
  15    8   13 1
  16    9   10 1
  17   10   12 2
  18   11   28 1
  19   13   14 1
  20   13   29 1
  21   14   20 1
  22   14   23 1
  23   14   30 1
  24   15   16 1
  25   15   20 1
  26   15   31 1
  27   15   32 1
  28   16   17 1
  29   16   33 1
  30   16   34 1
  31   17   18 1
  32   17   35 1
  33   17   36 1
  34   18   19 1
  35   18   37 1
  36   18   38 1
  37   19   20 1
  38   19   39 1
  39   19   40 1
  40   20   41 1
  41   21   22 1
  42   21   42 1
  43   21   43 1
  44   22   44 1
  45   22   45 1
  46   22   46 1
  47   23   24 2
  48   23   25 1
  49   25   47 1

#	End of record

