#	Name: ASD04882159
#	Creating user name:	WinNT
#	Creation time:	15. 06. 2019 20:54

#	Modifying user name:	WinNT
#	Modification time:	15. 06. 2019 20:54

#	Program:	/corina/corina34_cracker 3.40 0067  02.08.2006

@<TRIPOS>MOLECULE
ASD04882159
  79   84    0    0    0
SMALL
NO_CHARGES


@<TRIPOS>ATOM
   1 C1             0.7311    -0.0002    -1.3490 C.2     
   2 C2             0.5615    -1.3189    -1.0376 C.2     
   3 C3            -0.6952    -2.0697    -1.1230 C.2     
   4 N4            -0.7254    -3.3737    -0.7839 N.am    
   5 C5            -1.9473    -4.0576    -0.7391 C.ar    
   6 C6            -1.9969    -5.4215    -1.0403 C.ar    
   7 C7            -3.2086    -6.1014    -0.9963 C.ar    
   8 C8            -4.3643    -5.4340    -0.6563 C.ar    
   9 C9            -4.3219    -4.0699    -0.3543 C.ar    
  10 C10           -3.1038    -3.3855    -0.3914 C.ar    
  11 N11           -0.8309    -6.1002    -1.3855 N.3     
  12 C12           -0.3140    -5.6344    -2.6799 C.3     
  13 C13           -1.0524    -7.5529    -1.4021 C.3     
  14 C14            0.2681    -8.2641    -1.7068 C.3     
  15 N15            0.7850    -7.7983    -3.0012 N.3     
  16 C16            1.0065    -6.3456    -2.9847 C.3     
  17 C17            1.9544    -8.4790    -3.3475 C.ar    
  18 C18            2.0043    -9.2268    -4.5168 C.ar    
  19 C19            3.0723    -8.4051    -2.5258 C.ar    
  20 C20            4.2268    -9.0793    -2.8710 C.ar    
  21 C21            4.2713    -9.8273    -4.0335 C.ar    
  22 C22            3.1623    -9.8988    -4.8562 C.ar    
  23 C23           -5.5601    -3.3551     0.0094 C.2     
  24 N24           -6.7134    -4.0368     0.1563 N.am    
  25 O25           -5.5401    -2.1509     0.1767 O.2     
  26 O26           -1.7109    -1.5151    -1.5000 O.2     
  27 C27            0.7960    -9.3053    -5.4141 C.3     
  28 C28           -7.9638    -3.3157     0.4071 C.3     
  29 C29           -9.1319    -4.3038     0.4041 C.3     
  30 C30          -10.4926    -3.7182     0.7867 C.3     
  31 N31          -10.7850    -2.5599    -0.0681 N.3     
  32 C32            2.0841     0.2971    -1.1225 C.2     
  33 C33            2.6736    -0.8387    -0.6883 C.2     
  34 O34            1.7529    -1.8102    -0.6385 O.3     
  35 C35          -12.2210    -2.4944    -0.3961 C.3     
  36 C36           -8.8391    -5.7450     0.8262 C.3     
  37 C37           -9.1119    -5.4181    -0.6442 C.3     
  38 C38          -12.7339    -1.1154     0.0695 C.3     
  39 C39          -11.4407    -0.2598     0.1182 C.3     
  40 C40          -10.3962    -1.2984     0.5977 C.3     
  41 H41           -0.0276     0.6809    -1.7051 H       
  42 H42            0.0988    -3.8387    -0.5709 H       
  43 H43           -3.2439    -7.1554    -1.2296 H       
  44 H44           -5.3042    -5.9649    -0.6233 H       
  45 H45           -3.0680    -2.3315    -0.1585 H       
  46 H46           -1.0378    -5.8601    -3.4631 H       
  47 H47           -0.1463    -4.5582    -2.6385 H       
  48 H48           -1.4230    -7.8753    -0.4291 H       
  49 H49           -1.7846    -7.8004    -2.1707 H       
  50 H50            0.9919    -8.0384    -0.9237 H       
  51 H51            0.1003    -9.3403    -1.7483 H       
  52 H52            1.3771    -6.0232    -3.9577 H       
  53 H53            1.7386    -6.0981    -2.2161 H       
  54 H54            3.0384    -7.8206    -1.6183 H       
  55 H55            5.0961    -9.0222    -2.2328 H       
  56 H56            5.1758   -10.3531    -4.3016 H       
  57 H57            3.2004   -10.4838    -5.7632 H       
  58 H58           -6.7156    -5.0049     0.0961 H       
  59 H59            0.8332    -8.4976    -6.1450 H       
  60 H60            0.7900   -10.2643    -5.9323 H       
  61 H61           -0.1090    -9.2109    -4.8139 H       
  62 H62           -7.9094    -2.8203     1.3765 H       
  63 H63           -8.1162    -2.5705    -0.3737 H       
  64 H64          -11.2652    -4.4749     0.6501 H       
  65 H65          -10.4724    -3.4038     1.8302 H       
  66 H66            2.5639     1.2536    -1.2684 H       
  67 H67            3.7154    -0.9454    -0.4245 H       
  68 H68          -12.3607    -2.5980    -1.4722 H       
  69 H69          -12.7575    -3.2857     0.1275 H       
  70 H70           -7.8143    -5.9892     1.1060 H       
  71 H71           -9.6160    -6.2761     1.3761 H       
  72 H72          -10.0681    -5.7343    -1.0610 H       
  73 H73           -8.2664    -5.4475    -1.3315 H       
  74 H74          -13.4413    -0.7041    -0.6506 H       
  75 H75          -13.1865    -1.1865     1.0586 H       
  76 H76          -11.1870     0.1210    -0.8711 H       
  77 H77          -11.5386     0.5552     0.8354 H       
  78 H78          -10.4426    -1.4110     1.6808 H       
  79 H79           -9.3945    -0.9995     0.2889 H       
@<TRIPOS>BOND
   1    1    2 2
   2    1   32 1
   3    1   41 1
   4    2    3 1
   5    2   34 1
   6    3    4 am
   7    3   26 2
   8    4    5 1
   9    4   42 1
  10    5    6 ar
  11    5   10 ar
  12    6    7 ar
  13    6   11 1
  14    7    8 ar
  15    7   43 1
  16    8    9 ar
  17    8   44 1
  18    9   10 ar
  19    9   23 1
  20   10   45 1
  21   11   12 1
  22   11   13 1
  23   12   16 1
  24   12   46 1
  25   12   47 1
  26   13   14 1
  27   13   48 1
  28   13   49 1
  29   14   15 1
  30   14   50 1
  31   14   51 1
  32   15   16 1
  33   15   17 1
  34   16   52 1
  35   16   53 1
  36   17   18 ar
  37   17   19 ar
  38   18   27 1
  39   18   22 ar
  40   19   20 ar
  41   19   54 1
  42   20   21 ar
  43   20   55 1
  44   21   22 ar
  45   21   56 1
  46   22   57 1
  47   23   24 am
  48   23   25 2
  49   24   28 1
  50   24   58 1
  51   27   59 1
  52   27   60 1
  53   27   61 1
  54   28   29 1
  55   28   62 1
  56   28   63 1
  57   29   30 1
  58   29   36 1
  59   29   37 1
  60   30   31 1
  61   30   64 1
  62   30   65 1
  63   31   35 1
  64   31   40 1
  65   32   33 2
  66   32   66 1
  67   33   34 1
  68   33   67 1
  69   35   38 1
  70   35   68 1
  71   35   69 1
  72   36   37 1
  73   36   70 1
  74   36   71 1
  75   37   72 1
  76   37   73 1
  77   38   39 1
  78   38   74 1
  79   38   75 1
  80   39   40 1
  81   39   76 1
  82   39   77 1
  83   40   78 1
  84   40   79 1

#	End of record

