#	Name: ASD08150776
#	Creating user name:	WinNT
#	Creation time:	15. 06. 2019 21:16

#	Modifying user name:	WinNT
#	Modification time:	15. 06. 2019 21:16

#	Program:	/corina/corina34_cracker 3.40 0067  02.08.2006

@<TRIPOS>MOLECULE
ASD08150776
  56   59    0    0    0
SMALL
NO_CHARGES


@<TRIPOS>ATOM
   1 C1            -0.0160     1.3286     0.0093 C.2     
   2 N2             0.0021    -0.0041     0.0020 N.2     
   3 C3             1.1366    -0.6806    -0.0121 C.2     
   4 C4             2.3522     0.0014    -0.0195 C.2     
   5 C5             2.3360     1.4122    -0.0118 C.2     
   6 N6             1.1456     2.0498     0.0021 N.am    
   7 C7            -1.2510     2.0016     0.0188 C.2     
   8 C8            -1.2726     3.3645     0.0263 C.2     
   9 C9            -0.0644     4.0754     0.0244 C.2     
  10 C10            1.1134     3.4117     0.0084 C.2     
  11 O11            3.3791     2.0450    -0.0171 O.2     
  12 C12            3.6344    -0.7397    -0.0348 C.ar    
  13 C13            4.4854    -0.6427    -1.1355 C.ar    
  14 C14            5.6809    -1.3364    -1.1449 C.ar    
  15 C15            6.0341    -2.1272    -0.0637 C.ar    
  16 C16            5.1923    -2.2267     1.0320 C.ar    
  17 C17            3.9975    -1.5322     1.0538 C.ar    
  18 F18            5.5423    -2.9996     2.0833 F       
  19 F19            6.5062    -1.2433    -2.2105 F       
  20 C20            1.1166    -2.1874    -0.0195 C.3     
  21 C21            0.5125    -2.6959     1.2910 C.3     
  22 N22            0.3074    -2.6595    -1.1458 N.pl3   
  23 N23           -1.2500    -3.8709    -3.5000 N.2     
  24 C24           -1.6087    -4.7363    -4.4025 C.2     
  25 N25           -0.8425    -5.8606    -4.3003 N.pl3   
  26 C26            0.0394    -5.6647    -3.2677 C.ar    
  27 N27            1.0065    -6.3874    -2.7116 N.ar    
  28 C28            1.7052    -5.9083    -1.6952 C.ar    
  29 N29            1.4817    -4.7029    -1.1877 N.ar    
  30 C30            0.5341    -3.9145    -1.6826 C.ar    
  31 C31           -0.2336    -4.3826    -2.7628 C.ar    
  32 N32            2.7047    -6.6920    -1.1424 N.pl3   
  33 H33           -2.1752     1.4427     0.0198 H       
  34 H34           -2.2143     3.8931     0.0332 H       
  35 H35           -0.0746     5.1553     0.0303 H       
  36 H36            2.0394     3.9677     0.0023 H       
  37 H37            4.2106    -0.0271    -1.9791 H       
  38 H38            6.9688    -2.6681    -0.0752 H       
  39 H39            3.3439    -1.6069     1.9103 H       
  40 H40            2.1345    -2.5638    -0.1205 H       
  41 H41            0.4981    -3.7858     1.2856 H       
  42 H42            1.1146    -2.3447     2.1290 H       
  43 H43           -0.5054    -2.3196     1.3920 H       
  44 H44           -0.3874    -2.0923    -1.5153 H       
  45 H45           -2.3967    -4.5869    -5.1259 H       
  46 H46           -0.9092    -6.6532    -4.8555 H       
  47 H47            2.8823    -7.5757    -1.5008 H       
  48 H48            3.2271    -6.3570    -0.3968 H       
  49 C49           13.1402    12.1435     8.2758 C.2     
  50 C50           13.1607    10.6367     8.2675 C.3     
  51 O51           14.1783    12.7618     8.2692 O.2     
  52 O52           11.9688    12.7988     8.2849 O.3     
  53 F53           14.4858    10.1884     8.2525 F       
  54 F54           12.5185    10.1553     9.4134 F       
  55 F55           12.4967    10.1676     7.1290 F       
  56 H56           12.0063    13.7651     8.2900 H       
@<TRIPOS>BOND
   1    1    2 2
   2    1    6 1
   3    1    7 1
   4    2    3 1
   5    3    4 2
   6    3   20 1
   7    4    5 1
   8    4   12 1
   9    5    6 am
  10    5   11 2
  11    6   10 1
  12    7    8 2
  13    7   33 1
  14    8    9 1
  15    8   34 1
  16    9   10 2
  17    9   35 1
  18   10   36 1
  19   12   13 ar
  20   12   17 ar
  21   13   14 ar
  22   13   37 1
  23   14   15 ar
  24   14   19 1
  25   15   16 ar
  26   15   38 1
  27   16   17 ar
  28   16   18 1
  29   17   39 1
  30   20   21 1
  31   20   22 1
  32   20   40 1
  33   21   41 1
  34   21   42 1
  35   21   43 1
  36   22   30 1
  37   22   44 1
  38   23   24 2
  39   23   31 1
  40   24   25 1
  41   24   45 1
  42   25   26 1
  43   25   46 1
  44   26   27 ar
  45   26   31 ar
  46   27   28 ar
  47   28   29 ar
  48   28   32 1
  49   29   30 ar
  50   30   31 ar
  51   32   47 1
  52   32   48 1
  53   49   50 1
  54   49   51 2
  55   49   52 1
  56   50   53 1
  57   50   54 1
  58   50   55 1
  59   52   56 1

#	End of record

