#	Name: ASD01730077
#	Creating user name:	WinNT
#	Creation time:	15. 06. 2019 19:23

#	Modifying user name:	WinNT
#	Modification time:	15. 06. 2019 19:23

#	Program:	/corina/corina34_cracker 3.40 0067  02.08.2006

@<TRIPOS>MOLECULE
ASD01730077
  19   20    0    0    0
SMALL
NO_CHARGES


@<TRIPOS>ATOM
   1 N1            -0.0156     1.2981     0.0092 N.2     
   2 C2             0.0021    -0.0041     0.0020 C.2     
   3 S3             1.5255    -0.8885    -0.0320 S.3     
   4 C4             2.5137     0.2671    -1.0153 C.3     
   5 C5             2.3257     1.6623    -0.4761 C.ar    
   6 C6             1.0910     2.0925     0.0029 C.ar    
   7 C7             3.4096     2.5201    -0.4620 C.ar    
   8 C8             3.2789     3.8059     0.0287 C.ar    
   9 C9             2.0576     4.2420     0.5107 C.ar    
  10 C10            0.9694     3.3982     0.5009 C.ar    
  11 N11           -1.1832    -0.6975     0.0217 N.pl3   
  12 H12            3.5663    -0.0089    -0.9525 H       
  13 H13            2.1883     0.2315    -2.0550 H       
  14 H14            4.3650     2.1834    -0.8366 H       
  15 H15            4.1305     4.4700     0.0361 H       
  16 H16            1.9576     5.2462     0.8954 H       
  17 H17            0.0181     3.7433     0.8782 H       
  18 H18           -2.0257    -0.2173     0.0409 H       
  19 H19           -1.1778    -1.6674     0.0166 H       
@<TRIPOS>BOND
   1    1    2 2
   2    1    6 1
   3    2    3 1
   4    2   11 1
   5    3    4 1
   6    4    5 1
   7    4   12 1
   8    4   13 1
   9    5    6 ar
  10    5    7 ar
  11    6   10 ar
  12    7    8 ar
  13    7   14 1
  14    8    9 ar
  15    8   15 1
  16    9   10 ar
  17    9   16 1
  18   10   17 1
  19   11   18 1
  20   11   19 1

#	End of record

