#	Name: ASD01680005
#	Creating user name:	WinNT
#	Creation time:	15. 06. 2019 19:22

#	Modifying user name:	WinNT
#	Modification time:	15. 06. 2019 19:22

#	Program:	/corina/corina34_cracker 3.40 0067  02.08.2006

@<TRIPOS>MOLECULE
ASD01680005
  85   88    0    0    0
SMALL
NO_CHARGES


@<TRIPOS>ATOM
   1 N1            -0.1761     3.8875    -0.9383 N.am    
   2 C2            -0.2184     2.5185    -0.4038 C.3     
   3 C3             1.2415     2.0490    -0.2306 C.3     
   4 C4             2.0205     2.9684    -1.2079 C.3     
   5 C5             1.2332     4.2964    -1.0799 C.3     
   6 C6            -1.2481     4.6415    -1.2524 C.2     
   7 O7            -2.3639     4.1633    -1.1991 O.2     
   8 O8            -1.0827     5.9246    -1.6252 O.3     
   9 C9            -0.9317     2.5103     0.9498 C.3     
  10 N10           -0.9782     1.1411     1.4688 N.pl3   
  11 C11           -1.6618     0.8677     2.6479 C.ar    
  12 C12           -2.3890     1.8759     3.2729 C.ar    
  13 C13           -3.0644     1.5900     4.4454 C.ar    
  14 C14           -2.9898     0.3004     4.9557 C.ar    
  15 C15           -2.2497    -0.6510     4.2833 C.ar    
  16 N16           -1.6197    -0.3512     3.1632 N.ar    
  17 O17           -0.8996     1.6597    -1.3204 O.3     
  18 C18           -0.3563     1.6723    -2.6421 C.3     
  19 C19           -1.1361     0.7230    -3.5149 C.2     
  20 N20           -0.7384     0.4911    -4.7815 N.am    
  21 O21           -2.1215     0.1676    -3.0774 O.2     
  22 C22           -1.5581    -0.3408    -5.6660 C.3     
  23 C23           -0.9499    -0.3455    -7.0699 C.3     
  24 N24            0.4587    -0.7400    -6.9906 N.am    
  25 S25            1.5872     0.0255    -7.9302 S.o2    
  26 O26            2.8475    -0.5242    -7.5715 O.2     
  27 O27            1.0816     0.0089    -9.2581 O.2     
  28 C28            1.6213     1.7152    -7.4319 C.ar    
  29 C29            0.8068     2.6380    -8.0612 C.ar    
  30 C30            0.8335     3.9636    -7.6702 C.ar    
  31 C31            1.6745     4.3664    -6.6497 C.ar    
  32 C32            2.4883     3.4435    -6.0198 C.ar    
  33 C33            2.4584     2.1170    -6.4078 C.ar    
  34 C34            3.3419     1.1099    -5.7177 C.3     
  35 C35            1.7044     5.8118    -6.2242 C.3     
  36 C36           -0.1100     2.1988    -9.1737 C.3     
  37 C37           -1.6976    -1.3246    -7.9380 C.2     
  38 O38           -1.1137    -2.2563    -8.4389 O.2     
  39 O39           -3.0122    -1.1616    -8.1546 O.3     
  40 C40           -2.2817     6.6768    -1.9490 C.3     
  41 C41           -1.9028     8.0817    -2.3411 C.ar    
  42 C42           -1.6362     8.3820    -3.6639 C.ar    
  43 C43           -1.2886     9.6707    -4.0235 C.ar    
  44 C44           -1.2081    10.6592    -3.0605 C.ar    
  45 C45           -1.4756    10.3590    -1.7379 C.ar    
  46 C46           -1.8274     9.0713    -1.3789 C.ar    
  47 H47            1.5773     2.2037     0.7948 H       
  48 H48            1.3469     1.0030    -0.5184 H       
  49 H49            3.0541     3.0944    -0.8857 H       
  50 H50            1.9746     2.5837    -2.2267 H       
  51 H51            1.3640     4.9029    -1.9761 H       
  52 H52            1.5590     4.8470    -0.1973 H       
  53 H53           -0.3898     3.1460     1.6499 H       
  54 H54           -1.9471     2.8873     0.8276 H       
  55 H55           -0.5320     0.4253     0.9898 H       
  56 H56           -2.4252     2.8683     2.8485 H       
  57 H57           -3.6366     2.3524     4.9530 H       
  58 H58           -3.5054     0.0448     5.8696 H       
  59 H59           -2.1891    -1.6550     4.6767 H       
  60 H60           -0.4220     2.6801    -3.0523 H       
  61 H61            0.6877     1.3609    -2.6088 H       
  62 H62            0.0906     0.8750    -5.1076 H       
  63 H63           -1.5896    -1.3597    -5.2803 H       
  64 H64           -2.5698     0.0627    -5.7097 H       
  65 H65           -1.0239     0.6527    -7.5013 H       
  66 H66            0.7304    -1.4496    -6.3876 H       
  67 H67            0.1977     4.6847    -8.1624 H       
  68 H68            3.1456     3.7583    -5.2228 H       
  69 H69            4.2429     0.9508    -6.3101 H       
  70 H70            3.6168     1.4834    -4.7313 H       
  71 H71            2.8049     0.1672    -5.6126 H       
  72 H72            1.0337     5.9551    -5.3771 H       
  73 H73            2.7192     6.0843    -5.9343 H       
  74 H74            1.3820     6.4414    -7.0535 H       
  75 H75           -0.9418     1.6313    -8.7564 H       
  76 H76           -0.4939     3.0754    -9.6955 H       
  77 H77            0.4425     1.5722    -9.8738 H       
  78 H78           -3.4486    -1.8150    -8.7183 H       
  79 H79           -2.7998     6.1953    -2.7784 H       
  80 H80           -2.9379     6.7068    -1.0792 H       
  81 H81           -1.6991     7.6098    -4.4162 H       
  82 H82           -1.0795     9.9052    -5.0568 H       
  83 H83           -0.9358    11.6658    -3.3414 H       
  84 H84           -1.4124    11.1312    -0.9855 H       
  85 H85           -2.0401     8.8377    -0.3462 H       
@<TRIPOS>BOND
   1    1    2 1
   2    1    5 1
   3    1    6 am
   4    2    3 1
   5    2    9 1
   6    2   17 1
   7    3    4 1
   8    3   47 1
   9    3   48 1
  10    4    5 1
  11    4   49 1
  12    4   50 1
  13    5   51 1
  14    5   52 1
  15    6    7 2
  16    6    8 1
  17    8   40 1
  18    9   10 1
  19    9   53 1
  20    9   54 1
  21   10   11 1
  22   10   55 1
  23   11   12 ar
  24   11   16 ar
  25   12   13 ar
  26   12   56 1
  27   13   14 ar
  28   13   57 1
  29   14   15 ar
  30   14   58 1
  31   15   16 ar
  32   15   59 1
  33   17   18 1
  34   18   19 1
  35   18   60 1
  36   18   61 1
  37   19   20 am
  38   19   21 2
  39   20   22 1
  40   20   62 1
  41   22   23 1
  42   22   63 1
  43   22   64 1
  44   23   24 1
  45   23   37 1
  46   23   65 1
  47   24   25 am
  48   24   66 1
  49   25   26 2
  50   25   27 2
  51   25   28 1
  52   28   29 ar
  53   28   33 ar
  54   29   30 ar
  55   29   36 1
  56   30   31 ar
  57   30   67 1
  58   31   32 ar
  59   31   35 1
  60   32   33 ar
  61   32   68 1
  62   33   34 1
  63   34   69 1
  64   34   70 1
  65   34   71 1
  66   35   72 1
  67   35   73 1
  68   35   74 1
  69   36   75 1
  70   36   76 1
  71   36   77 1
  72   37   38 2
  73   37   39 1
  74   39   78 1
  75   40   41 1
  76   40   79 1
  77   40   80 1
  78   41   42 ar
  79   41   46 ar
  80   42   43 ar
  81   42   81 1
  82   43   44 ar
  83   43   82 1
  84   44   45 ar
  85   44   83 1
  86   45   46 ar
  87   45   84 1
  88   46   85 1

#	End of record

