#	Name: ASD01730030
#	Creating user name:	WinNT
#	Creation time:	15. 06. 2019 19:23

#	Modifying user name:	WinNT
#	Modification time:	15. 06. 2019 19:23

#	Program:	/corina/corina34_cracker 3.40 0067  02.08.2006

@<TRIPOS>MOLECULE
ASD01730030
  43   44    0    0    0
SMALL
NO_CHARGES


@<TRIPOS>ATOM
   1 C1             0.0546     1.9230     0.1971 C.2     
   2 C2             0.8196     0.6762     0.5598 C.3     
   3 N3             0.6754     3.0722     0.1198 N.2     
   4 N4            -1.2801     1.8526    -0.0554 N.pl3   
   5 C5            -2.0467     3.0787    -0.2907 C.3     
   6 C6            -2.0410     3.4047    -1.7855 C.3     
   7 C7            -2.8416     4.6852    -2.0313 C.3     
   8 C8            -1.9510     0.5508    -0.0919 C.3     
   9 C9            -2.4513     0.1953     1.3096 C.3     
  10 C10           -3.1521    -1.1642     1.2714 C.3     
  11 N11            2.6786     2.0390     0.5602 N.2     
  12 C12            2.0044     3.1389     0.3520 C.2     
  13 S13            2.8061     4.7077     0.3697 S.3     
  14 C14            4.0799     4.3722     1.6121 C.3     
  15 C15            4.7443     3.0561     1.2974 C.ar    
  16 C16            4.0174     1.9801     0.7925 C.ar    
  17 C17            6.1028     2.9293     1.5182 C.ar    
  18 C18            6.7501     1.7401     1.2381 C.ar    
  19 C19            6.0386     0.6665     0.7326 C.ar    
  20 C20            4.6846     0.7781     0.5094 C.ar    
  21 H21            1.2844     0.8065     1.5371 H       
  22 H22            0.1366    -0.1726     0.5925 H       
  23 H23            1.5912     0.4930    -0.1880 H       
  24 H24           -3.0734     2.9355     0.0461 H       
  25 H25           -1.5943     3.9018     0.2625 H       
  26 H26           -1.0143     3.5479    -2.1223 H       
  27 H27           -2.4933     2.5816    -2.3386 H       
  28 H28           -2.8376     4.9175    -3.0962 H       
  29 H29           -3.8683     4.5420    -1.6945 H       
  30 H30           -2.3893     5.5083    -1.4781 H       
  31 H31           -2.7963     0.5969    -0.7786 H       
  32 H32           -1.2486    -0.2106    -0.4310 H       
  33 H33           -1.6061     0.1493     1.9962 H       
  34 H34           -3.1538     0.9567     1.6486 H       
  35 H35           -3.9973    -1.1182     0.5847 H       
  36 H36           -2.4496    -1.9256     0.9323 H       
  37 H37           -3.5085    -1.4175     2.2698 H       
  38 H38            4.8237     5.1688     1.5954 H       
  39 H39            3.6211     4.3216     2.5995 H       
  40 H40            6.6625     3.7648     1.9119 H       
  41 H41            7.8119     1.6493     1.4137 H       
  42 H42            6.5465    -0.2609     0.5124 H       
  43 H43            4.1335    -0.0628     0.1150 H       
@<TRIPOS>BOND
   1    1    2 1
   2    1    3 2
   3    1    4 1
   4    2   21 1
   5    2   22 1
   6    2   23 1
   7    3   12 1
   8    4    5 1
   9    4    8 1
  10    5    6 1
  11    5   24 1
  12    5   25 1
  13    6    7 1
  14    6   26 1
  15    6   27 1
  16    7   28 1
  17    7   29 1
  18    7   30 1
  19    8    9 1
  20    8   31 1
  21    8   32 1
  22    9   10 1
  23    9   33 1
  24    9   34 1
  25   10   35 1
  26   10   36 1
  27   10   37 1
  28   11   12 2
  29   11   16 1
  30   12   13 1
  31   13   14 1
  32   14   15 1
  33   14   38 1
  34   14   39 1
  35   15   16 ar
  36   15   17 ar
  37   16   20 ar
  38   17   18 ar
  39   17   40 1
  40   18   19 ar
  41   18   41 1
  42   19   20 ar
  43   19   42 1
  44   20   43 1

#	End of record

