#	Name: ASD01912430
#	Creating user name:	WinNT
#	Creation time:	15. 06. 2019 19:59

#	Modifying user name:	WinNT
#	Modification time:	15. 06. 2019 19:59

#	Program:	/corina/corina34_cracker 3.40 0067  02.08.2006

@<TRIPOS>MOLECULE
ASD01912430
  43   45    0    0    0
SMALL
NO_CHARGES


@<TRIPOS>ATOM
   1 C1            -0.3204     0.5433    -1.6324 C.1     
   2 C2            -0.1768     1.6985    -0.7984 C.ar    
   3 C3             1.0245     2.4292    -0.7862 C.ar    
   4 C4             1.1086     3.5433     0.0434 C.ar    
   5 C5             0.0236     3.8938     0.8202 C.ar    
   6 N6            -1.0948     3.1927     0.7931 N.ar    
   7 C7            -1.2354     2.1276     0.0194 C.ar    
   8 N8            -0.4343    -0.3731    -2.2940 N.1     
   9 N9            -2.4301     1.4290     0.0211 N.3     
  10 C10           -3.5731     2.3415     0.1509 C.3     
  11 C11           -4.8732     1.5672    -0.0943 C.3     
  12 C12           -4.8953     0.3714     0.8346 C.2     
  13 C13           -3.6607    -0.5039     0.8876 C.3     
  14 C14           -2.4376     0.4020     1.0705 C.3     
  15 C15           -5.9650     0.0988     1.5806 C.2     
  16 C16           -5.9600    -1.0383     2.4509 C.1     
  17 C17           -5.9560    -1.9706     3.1644 C.1     
  18 C18           -5.9510    -3.1077     4.0348 C.ar    
  19 C19           -7.0760    -3.3892     4.8154 C.ar    
  20 C20           -7.0548    -4.4911     5.6505 C.ar    
  21 C21           -5.9114    -5.2787     5.6812 C.ar    
  22 C22           -4.8332    -4.9432     4.8827 C.ar    
  23 N23           -4.8782    -3.8918     4.0908 N.ar    
  24 O24            2.0727     2.0580    -1.5614 O.3     
  25 C25            3.2529     2.8600    -1.4839 C.3     
  26 H26            2.0157     4.1284     0.0791 H       
  27 H27            0.0906     4.7587     1.4635 H       
  28 H28           -3.5869     2.7665     1.1546 H       
  29 H29           -3.4835     3.1430    -0.5823 H       
  30 H30           -5.7287     2.2100     0.1135 H       
  31 H31           -4.9099     1.2290    -1.1299 H       
  32 H32           -3.7355    -1.1945     1.7276 H       
  33 H33           -3.5672    -1.0644    -0.0426 H       
  34 H34           -1.5288    -0.1957     1.0006 H       
  35 H35           -2.4833     0.8816     2.0482 H       
  36 H36           -6.8358     0.7355     1.5289 H       
  37 H37           -7.9489    -2.7551     4.7672 H       
  38 H38           -7.9086    -4.7338     6.2657 H       
  39 H39           -5.8644    -6.1456     6.3235 H       
  40 H40           -3.9433    -5.5548     4.9055 H       
  41 H41            4.0124     2.4542    -2.1522 H       
  42 H42            3.0176     3.8824    -1.7795 H       
  43 H43            3.6291     2.8550    -0.4609 H       
@<TRIPOS>BOND
   1    1    2 1
   2    1    8 3
   3    2    3 ar
   4    2    7 ar
   5    3    4 ar
   6    3   24 1
   7    4    5 ar
   8    4   26 1
   9    5    6 ar
  10    5   27 1
  11    6    7 ar
  12    7    9 1
  13    9   10 1
  14    9   14 1
  15   10   11 1
  16   10   28 1
  17   10   29 1
  18   11   12 1
  19   11   30 1
  20   11   31 1
  21   12   13 1
  22   12   15 2
  23   13   14 1
  24   13   32 1
  25   13   33 1
  26   14   34 1
  27   14   35 1
  28   15   16 1
  29   15   36 1
  30   16   17 3
  31   17   18 1
  32   18   19 ar
  33   18   23 ar
  34   19   20 ar
  35   19   37 1
  36   20   21 ar
  37   20   38 1
  38   21   22 ar
  39   21   39 1
  40   22   23 ar
  41   22   40 1
  42   24   25 1
  43   25   41 1
  44   25   42 1
  45   25   43 1

#	End of record

