#	Name: ASD08150004
#	Creating user name:	WinNT
#	Creation time:	15. 06. 2019 21:15

#	Modifying user name:	WinNT
#	Modification time:	15. 06. 2019 21:15

#	Program:	/corina/corina34_cracker 3.40 0067  02.08.2006

@<TRIPOS>MOLECULE
ASD08150004
  54   58    0    0    0
SMALL
NO_CHARGES


@<TRIPOS>ATOM
   1 N1            -0.0157     1.2951    -0.0517 N.2     
   2 C2             0.0018    -0.0026    -0.0878 C.2     
   3 N3             1.1486    -0.7346    -0.1047 N.am    
   4 C4             2.3560    -0.1234    -0.0841 C.2     
   5 C5             2.3702     1.3460    -0.0436 C.ar    
   6 C6             3.5601     2.0709    -0.0195 C.ar    
   7 C7             3.5158     3.4472     0.0187 C.ar    
   8 C8             2.2979     4.1146     0.0336 C.ar    
   9 C9             1.1111     3.4173     0.0107 C.ar    
  10 C10            1.1296     2.0215    -0.0285 C.ar    
  11 O11            3.3900    -0.7656    -0.0981 O.2     
  12 C12           -1.3148    -0.7354    -0.1116 C.3     
  13 S13           -2.6721     0.4617    -0.0818 S.3     
  14 N14           -5.9169     1.0955    -0.0727 N.2     
  15 C15           -7.2142     0.9912    -0.0790 C.2     
  16 N16           -7.5755    -0.3228    -0.1159 N.pl3   
  17 C17           -6.4223    -1.0659    -0.1332 C.ar    
  18 N18           -6.1435    -2.3651    -0.1684 N.ar    
  19 C19           -4.8953    -2.7837    -0.1770 C.ar    
  20 N20           -3.8690    -1.9536    -0.1522 N.ar    
  21 C21           -4.0495    -0.6365    -0.1160 C.ar    
  22 C22           -5.3651    -0.1411    -0.1052 C.ar    
  23 C23            4.8858     1.3543    -0.0344 C.3     
  24 C24            1.0790    -2.1330    -0.1434 C.ar    
  25 C25            1.0411    -2.8608     1.0388 C.ar    
  26 C26            0.9720    -4.2393     0.9973 C.ar    
  27 C27            0.9410    -4.8953    -0.2199 C.ar    
  28 C28            0.9791    -4.1736    -1.3986 C.ar    
  29 C29            1.0420    -2.7941    -1.3638 C.ar    
  30 C30            1.0757    -2.1469     2.3655 C.3     
  31 C31           -0.1925    -2.4764     3.1553 C.3     
  32 C32            2.3028    -2.6024     3.1578 C.3     
  33 H33            4.4361     4.0122     0.0375 H       
  34 H34            2.2816     5.1941     0.0639 H       
  35 H35            0.1701     3.9472     0.0233 H       
  36 H36           -1.3800    -1.3360    -1.0189 H       
  37 H37           -1.3846    -1.3856     0.7604 H       
  38 H38           -7.9029     1.8229    -0.0580 H       
  39 H39           -8.4816    -0.6688    -0.1277 H       
  40 H40           -4.7037    -3.8462    -0.2055 H       
  41 H41            5.1541     1.1079    -1.0617 H       
  42 H42            5.6520     1.9987     0.3966 H       
  43 H43            4.8102     0.4381     0.5511 H       
  44 H44            0.9424    -4.8059     1.9163 H       
  45 H45            0.8873    -5.9736    -0.2497 H       
  46 H46            0.9551    -4.6887    -2.3475 H       
  47 H47            1.0668    -2.2307    -2.2848 H       
  48 H48            1.1302    -1.0712     2.1980 H       
  49 H49           -0.2470    -3.5521     3.3229 H       
  50 H50           -0.1674    -1.9601     4.1149 H       
  51 H51           -1.0667    -2.1519     2.5908 H       
  52 H52            3.2063    -2.3676     2.5952 H       
  53 H53            2.3279    -2.0860     4.1174 H       
  54 H54            2.2483    -3.6781     3.3254 H       
@<TRIPOS>BOND
   1    1    2 2
   2    1   10 1
   3    2    3 1
   4    2   12 1
   5    3    4 am
   6    3   24 1
   7    4    5 1
   8    4   11 2
   9    5    6 ar
  10    5   10 ar
  11    6    7 ar
  12    6   23 1
  13    7    8 ar
  14    7   33 1
  15    8    9 ar
  16    8   34 1
  17    9   10 ar
  18    9   35 1
  19   12   13 1
  20   12   36 1
  21   12   37 1
  22   13   21 1
  23   14   15 2
  24   14   22 1
  25   15   16 1
  26   15   38 1
  27   16   17 1
  28   16   39 1
  29   17   18 ar
  30   17   22 ar
  31   18   19 ar
  32   19   20 ar
  33   19   40 1
  34   20   21 ar
  35   21   22 ar
  36   23   41 1
  37   23   42 1
  38   23   43 1
  39   24   25 ar
  40   24   29 ar
  41   25   26 ar
  42   25   30 1
  43   26   27 ar
  44   26   44 1
  45   27   28 ar
  46   27   45 1
  47   28   29 ar
  48   28   46 1
  49   29   47 1
  50   30   31 1
  51   30   32 1
  52   30   48 1
  53   31   49 1
  54   31   50 1
  55   31   51 1
  56   32   52 1
  57   32   53 1
  58   32   54 1

#	End of record

