#	Name: ASD01121014
#	Creating user name:	WinNT
#	Creation time:	15. 06. 2019 18:59

#	Modifying user name:	WinNT
#	Modification time:	15. 06. 2019 18:59

#	Program:	/corina/corina34_cracker 3.40 0067  02.08.2006

@<TRIPOS>MOLECULE
ASD01121014
  46   47    0    0    0
SMALL
NO_CHARGES


@<TRIPOS>ATOM
   1 C1            -0.0472     1.3278    -0.0040 C.ar    
   2 C2             1.0961     2.1197    -0.0024 C.ar    
   3 C3             0.0866    -0.0538    -0.0158 C.ar    
   4 O4             1.0028     3.4740     0.0094 O.3     
   5 C5             2.3384     1.4915    -0.0127 C.ar    
   6 N6             1.2858    -0.6180    -0.0254 N.ar    
   7 C7             2.3957     0.1063    -0.0242 C.ar    
   8 N8             3.6350    -0.5319    -0.0350 N.am    
   9 C9             3.7023    -1.8747     0.0593 C.2     
  10 O10            2.6909    -2.5222     0.2485 O.2     
  11 N11            4.8909    -2.4996    -0.0561 N.am    
  12 S12            4.9736    -4.1494     0.0598 S.o2    
  13 C13            4.0884    -4.8136    -1.3114 C.2     
  14 O14            6.3373    -4.4976    -0.1362 O.2     
  15 O15            4.2395    -4.5073     1.2227 O.2     
  16 S16            2.3728    -5.2009    -1.3192 S.3     
  17 C17            4.6158    -5.0943    -2.5040 C.2     
  18 C18            2.4728    -5.7456    -2.9886 C.2     
  19 C19            3.7245    -5.6099    -3.4291 C.2     
  20 C20            1.3197    -6.2793    -3.7988 C.3     
  21 C21            4.1374    -5.9906    -4.8276 C.3     
  22 C22            1.2286    -7.7960    -3.6186 C.3     
  23 O23            0.1352    -8.3021    -4.3869 O.3     
  24 C24           -0.0389    -9.7170    -4.2882 C.3     
  25 H25            4.4489    -0.0096    -0.1105 H       
  26 H26            5.6978    -1.9829    -0.2071 H       
  27 N27           -1.0497    -0.8545    -0.0171 N.pl3   
  28 C28           -0.3120     4.0336     0.0199 C.3     
  29 H29           -1.0269     1.7821     0.0082 H       
  30 H30            3.2464     2.0761    -0.0121 H       
  31 H31            5.6591    -4.9314    -2.7307 H       
  32 H32            0.3927    -5.8169    -3.4599 H       
  33 H33            1.4776    -6.0474    -4.8521 H       
  34 H34            4.0201    -5.1312    -5.4877 H       
  35 H35            5.1804    -6.3071    -4.8250 H       
  36 H36            3.5102    -6.8088    -5.1815 H       
  37 H37            2.1556    -8.2584    -3.9575 H       
  38 H38            1.0707    -8.0279    -2.5653 H       
  39 H39           -0.2231    -9.9888    -3.2488 H       
  40 H40           -0.8882   -10.0222    -4.8995 H       
  41 H41            0.8619   -10.2194    -4.6409 H       
  42 H42           -1.9300    -0.4472    -0.0097 H       
  43 H43           -0.9624    -1.8205    -0.0253 H       
  44 H44           -0.8515     3.7107    -0.8704 H       
  45 H45           -0.8436     3.6957     0.9095 H       
  46 H46           -0.2438     5.1215     0.0288 H       
@<TRIPOS>BOND
   1    1    2 ar
   2    1    3 ar
   3    1   29 1
   4    2    4 1
   5    2    5 ar
   6    3    6 ar
   7    3   27 1
   8    4   28 1
   9    5    7 ar
  10    5   30 1
  11    6    7 ar
  12    7    8 1
  13    8   25 1
  14    8    9 am
  15    9   10 2
  16    9   11 am
  17   11   26 1
  18   11   12 am
  19   12   13 1
  20   12   15 2
  21   12   14 2
  22   13   16 1
  23   13   17 2
  24   16   18 1
  25   17   19 1
  26   17   31 1
  27   18   19 2
  28   18   20 1
  29   19   21 1
  30   20   22 1
  31   20   32 1
  32   20   33 1
  33   21   34 1
  34   21   35 1
  35   21   36 1
  36   22   23 1
  37   22   37 1
  38   22   38 1
  39   23   24 1
  40   24   39 1
  41   24   40 1
  42   24   41 1
  43   27   42 1
  44   27   43 1
  45   28   44 1
  46   28   45 1
  47   28   46 1

#	End of record

