#	Name: ASD00170671
#	Creating user name:	WinNT
#	Creation time:	15. 06. 2019 18:32

#	Modifying user name:	WinNT
#	Modification time:	15. 06. 2019 18:32

#	Program:	/corina/corina34_cracker 3.40 0067  02.08.2006

@<TRIPOS>MOLECULE
ASD00170671
  42   45    0    0    0
SMALL
NO_CHARGES


@<TRIPOS>ATOM
   1 C1            -0.0059     1.3895     0.0361 C.ar    
   2 C2             0.0058    -0.0103     0.0123 C.ar    
   3 C3             1.2154    -0.6925    -0.0087 C.ar    
   4 C4             2.4011     0.0089    -0.0061 C.ar    
   5 C5             2.4017     1.4002     0.0175 C.ar    
   6 C6             1.1935     2.0937     0.0386 C.ar    
   7 N7             4.4383     3.0985     0.0310 N.2     
   8 C8             3.8122     1.9010     0.0154 C.2     
   9 C9             4.6554     0.8520    -0.0087 C.2     
  10 S10            6.3166     1.4429    -0.0115 S.3     
  11 C11            5.7285     3.1004     0.0207 C.2     
  12 C12            3.8448    -0.4255    -0.0242 C.3     
  13 N13            6.5270     4.2325     0.0339 N.pl3   
  14 N14           -1.1982    -0.7203     0.0101 N.am    
  15 C15           -1.2935    -1.8833    -0.6644 C.2     
  16 O16           -0.3692    -2.2633    -1.3517 O.2     
  17 C17           -2.5486    -2.7115    -0.5646 C.3     
  18 C18           -3.7055     3.4874     0.0822 C.ar    
  19 C19           -2.7189     3.8025     1.0067 C.ar    
  20 C20           -1.5184     3.1240     0.9944 C.ar    
  21 C21           -1.2960     2.1208     0.0524 C.ar    
  22 C22           -2.2887     1.8067    -0.8746 C.ar    
  23 C23           -3.4891     2.4852    -0.8538 C.ar    
  24 O24           -4.8874     4.1577     0.0969 O.3     
  25 C25           -5.8582     3.7827    -0.8824 C.3     
  26 H26            1.2265    -1.7723    -0.0268 H       
  27 H27            1.1883     3.1735     0.0566 H       
  28 H28            4.0690    -1.0246     0.8583 H       
  29 H29            4.0556    -0.9943    -0.9299 H       
  30 H30            7.4930     4.1448     0.0253 H       
  31 H31            6.1201     5.1129     0.0517 H       
  32 H32           -1.9651    -0.3760     0.4940 H       
  33 H33           -3.3976    -2.1291    -0.9225 H       
  34 H34           -2.4410    -3.6090    -1.1736 H       
  35 H35           -2.7149    -2.9953     0.4746 H       
  36 H36           -2.8916     4.5801     1.7361 H       
  37 H37           -0.7510     3.3700     1.7134 H       
  38 H38           -2.1192     1.0302    -1.6058 H       
  39 H39           -4.2586     2.2423    -1.5717 H       
  40 H40           -5.4464     3.9368    -1.8798 H       
  41 H41           -6.1161     2.7314    -0.7542 H       
  42 H42           -6.7525     4.3937    -0.7601 H       
@<TRIPOS>BOND
   1    1    2 ar
   2    1    6 ar
   3    1   21 1
   4    2    3 ar
   5    2   14 1
   6    3    4 ar
   7    3   26 1
   8    4    5 ar
   9    4   12 1
  10    5    6 ar
  11    5    8 1
  12    6   27 1
  13    7    8 1
  14    7   11 2
  15    8    9 2
  16    9   10 1
  17    9   12 1
  18   10   11 1
  19   11   13 1
  20   12   28 1
  21   12   29 1
  22   13   30 1
  23   13   31 1
  24   14   15 am
  25   14   32 1
  26   15   16 2
  27   15   17 1
  28   17   33 1
  29   17   34 1
  30   17   35 1
  31   18   19 ar
  32   18   24 1
  33   18   23 ar
  34   19   20 ar
  35   19   36 1
  36   20   21 ar
  37   20   37 1
  38   21   22 ar
  39   22   23 ar
  40   22   38 1
  41   23   39 1
  42   24   25 1
  43   25   40 1
  44   25   41 1
  45   25   42 1

#	End of record

