#	Name: ASD03731597
#	Creating user name:	WinNT
#	Creation time:	15. 06. 2019 20:46

#	Modifying user name:	WinNT
#	Modification time:	15. 06. 2019 20:46

#	Program:	/corina/corina34_cracker 3.40 0067  02.08.2006

@<TRIPOS>MOLECULE
ASD03731597
  45   46    0    0    0
SMALL
NO_CHARGES


@<TRIPOS>ATOM
   1 C1             0.7064     1.1361    -0.0139 C.2     
   2 C2             0.6500    -0.3363     0.0410 C.ar    
   3 C3             1.8310    -1.0808     0.1443 C.ar    
   4 C4             1.7729    -2.4590     0.1953 C.ar    
   5 C5             0.5457    -3.1064     0.1442 C.ar    
   6 C6            -0.6314    -2.3694     0.0414 C.ar    
   7 C7            -0.5836    -0.9930    -0.0043 C.ar    
   8 O8             1.7800     1.7055     0.0306 O.2     
   9 N9            -0.4315     1.8506    -0.1190 N.am    
  10 F10           -1.8226    -3.0048    -0.0084 F       
  11 F11            3.0254    -0.4515     0.1937 F       
  12 O12            0.4932    -4.4618     0.1942 O.3     
  13 C13            1.6674    -5.1461     0.1990 C.ar    
  14 C14            2.4317    -5.2064     1.3557 C.ar    
  15 C15            3.6247    -5.9023     1.3585 C.ar    
  16 C16            4.0582    -6.5388     0.2087 C.ar    
  17 C17            3.2978    -6.4799    -0.9456 C.ar    
  18 C18            2.1008    -5.7900    -0.9508 C.ar    
  19 C19            4.4550    -5.9682     2.6144 C.3     
  20 F20            3.8160    -5.2546     3.6339 F       
  21 F21            4.6064    -7.3033     3.0038 F       
  22 F22            5.7136    -5.4078     2.3712 F       
  23 Cl23           5.5587    -7.4119     0.2145 Cl      
  24 S24           -0.3803     3.5043    -0.0489 S.o2    
  25 O25            0.6183     3.8643    -0.9937 O.2     
  26 O26           -1.7325     3.9045    -0.2238 O.2     
  27 C27            0.1784     3.8688     1.6380 C.3     
  28 C28            0.1688     5.3821     1.8626 C.3     
  29 C29            1.1997     6.0407     0.9436 C.3     
  30 C30           -0.7609     3.1981     2.6424 C.3     
  31 H31            2.6833    -3.0345     0.2747 H       
  32 H32           -1.4975    -0.4224    -0.0792 H       
  33 H33           -1.2805     1.3962    -0.2358 H       
  34 H34            2.0940    -4.7093     2.2531 H       
  35 H35            3.6379    -6.9773    -1.8419 H       
  36 H36            1.5050    -5.7483    -1.8507 H       
  37 H37            1.1901     3.4874     1.7760 H       
  38 H38           -0.8223     5.7765     1.6383 H       
  39 H39            0.4186     5.5968     2.9016 H       
  40 H40            1.1928     7.1189     1.1037 H       
  41 H41            2.1908     5.6464     1.1679 H       
  42 H42            0.9498     5.8260    -0.0954 H       
  43 H43           -1.7534     3.6419     2.5640 H       
  44 H44           -0.8218     2.1314     2.4267 H       
  45 H45           -0.3767     3.3433     3.6520 H       
@<TRIPOS>BOND
   1    1    2 1
   2    1    8 2
   3    1    9 am
   4    2    3 ar
   5    2    7 ar
   6    3    4 ar
   7    3   11 1
   8    4    5 ar
   9    4   31 1
  10    5    6 ar
  11    5   12 1
  12    6    7 ar
  13    6   10 1
  14    7   32 1
  15    9   24 am
  16    9   33 1
  17   12   13 1
  18   13   14 ar
  19   13   18 ar
  20   14   15 ar
  21   14   34 1
  22   15   16 ar
  23   15   19 1
  24   16   17 ar
  25   16   23 1
  26   17   18 ar
  27   17   35 1
  28   18   36 1
  29   19   20 1
  30   19   21 1
  31   19   22 1
  32   24   25 2
  33   24   26 2
  34   24   27 1
  35   27   28 1
  36   27   30 1
  37   27   37 1
  38   28   29 1
  39   28   38 1
  40   28   39 1
  41   29   40 1
  42   29   41 1
  43   29   42 1
  44   30   43 1
  45   30   44 1
  46   30   45 1

#	End of record

