#	Name: ASD05250088
#	Creating user name:	WinNT
#	Creation time:	15. 06. 2019 20:58

#	Modifying user name:	WinNT
#	Modification time:	15. 06. 2019 20:58

#	Program:	/corina/corina34_cracker 3.40 0067  02.08.2006

@<TRIPOS>MOLECULE
ASD05250088
  28   29    0    0    0
SMALL
NO_CHARGES


@<TRIPOS>ATOM
   1 C1            -0.0167     1.3834     0.0096 C.ar    
   2 C2             0.0021    -0.0041     0.0020 C.ar    
   3 C3            -1.1874    -0.7187     0.0095 C.ar    
   4 C4            -2.3996    -0.0497     0.0247 C.ar    
   5 C5            -2.4238     1.3468     0.0329 C.ar    
   6 C6            -1.2238     2.0616     0.0306 C.ar    
   7 C7            -3.7116     2.0639     0.0491 C.2     
   8 C8            -3.7323     3.4062     0.0569 C.2     
   9 C9            -5.0199     4.1232     0.0731 C.ar    
  10 C10           -5.0451     5.5204     0.0813 C.ar    
  11 C11           -6.2532     6.1849     0.0960 C.ar    
  12 C12           -7.4399     5.4708     0.1026 C.ar    
  13 C13           -7.4221     4.0860     0.0945 C.ar    
  14 C14           -6.2210     3.4089     0.0745 C.ar    
  15 O15            1.1515     2.0778     0.0022 O.3     
  16 O16           -1.1625    -2.0775     0.0015 O.3     
  17 Cl17          -8.9565     6.3154     0.1216 Cl      
  18 H18            0.9456    -0.5295    -0.0102 H       
  19 H19           -3.3248    -0.6068     0.0298 H       
  20 H20           -1.2374     3.1415     0.0373 H       
  21 H21           -4.6384     1.5095     0.0546 H       
  22 H22           -2.8055     3.9606     0.0514 H       
  23 H23           -4.1204     6.0784     0.0766 H       
  24 H24           -6.2741     7.2647     0.1027 H       
  25 H25           -8.3510     3.5351     0.1001 H       
  26 H26           -6.2084     2.3290     0.0682 H       
  27 H27            1.4812     2.2835    -0.8833 H       
  28 H28           -1.1467    -2.4758     0.8826 H       
@<TRIPOS>BOND
   1    1    2 ar
   2    1   15 1
   3    1    6 ar
   4    2    3 ar
   5    2   18 1
   6    3    4 ar
   7    3   16 1
   8    4    5 ar
   9    4   19 1
  10    5    6 ar
  11    5    7 1
  12    6   20 1
  13    7    8 2
  14    7   21 1
  15    8    9 1
  16    8   22 1
  17    9   10 ar
  18    9   14 ar
  19   10   11 ar
  20   10   23 1
  21   11   12 ar
  22   11   24 1
  23   12   13 ar
  24   12   17 1
  25   13   14 ar
  26   13   25 1
  27   14   26 1
  28   15   27 1
  29   16   28 1

#	End of record

