#	Name: ASD01200030
#	Creating user name:	WinNT
#	Creation time:	15. 06. 2019 19:08

#	Modifying user name:	WinNT
#	Modification time:	15. 06. 2019 19:08

#	Program:	/corina/corina34_cracker 3.40 0067  02.08.2006

@<TRIPOS>MOLECULE
ASD01200030
  43   46    0    0    0
SMALL
NO_CHARGES


@<TRIPOS>ATOM
   1 C1            -0.0946     1.4320    -0.6182 C.ar    
   2 C2            -0.0532     0.0369    -0.5690 C.ar    
   3 C3            -1.2210    -0.6694    -0.3688 C.ar    
   4 C4            -2.4145     0.0425    -0.2212 C.ar    
   5 C5            -2.3832     1.4414    -0.2813 C.ar    
   6 N6            -1.2326     2.0828    -0.4711 N.ar    
   7 C7            -3.6336     2.2096    -0.1274 C.2     
   8 N8            -3.6087     3.5559    -0.1845 N.am    
   9 C9            -4.7855     4.2790    -0.0397 C.2     
  10 S10           -3.9364    -0.8073     0.0362 S.3     
  11 C11           -3.4774    -2.5006    -0.1275 C.ar    
  12 S12            1.3960     2.3363    -0.8731 S.3     
  13 C13            0.8505     4.0117    -0.8593 C.2     
  14 N14           -4.8722     5.5720    -0.0782 N.2     
  15 C15           -6.0739     6.0951     0.0774 C.2     
  16 C16           -7.0491     5.2017     0.2559 C.2     
  17 S17           -6.3319     3.5933     0.2079 S.3     
  18 N18            1.6308     5.1208    -1.0180 N.pl3   
  19 C19            0.7797     6.1873    -0.9360 C.2     
  20 N20           -0.4187     5.7134    -0.7416 N.2     
  21 N21           -0.3837     4.4292    -0.7003 N.2     
  22 C22           -3.1342    -3.2397     0.9976 C.ar    
  23 C23           -2.7747    -4.5665     0.8682 C.ar    
  24 C24           -2.7560    -5.1616    -0.3848 C.ar    
  25 C25           -3.0986    -4.4244    -1.5090 C.ar    
  26 C26           -3.4640    -3.0991    -1.3812 C.ar    
  27 O27           -4.6865     1.6280     0.0508 O.2     
  28 O28           -2.4013    -6.4683    -0.5113 O.3     
  29 C29           -2.4039    -7.0165    -1.8309 C.3     
  30 H30            0.8852    -0.4846    -0.6869 H       
  31 H31           -1.2132    -1.7486    -0.3276 H       
  32 H32           -2.7688     4.0199    -0.3267 H       
  33 H33           -6.2536     7.1599     0.0616 H       
  34 H34           -8.0957     5.4255     0.4005 H       
  35 H35            2.5901     5.1467    -1.1593 H       
  36 H36            1.0502     7.2298    -1.0170 H       
  37 H37           -3.1483    -2.7766     1.9732 H       
  38 H38           -2.5075    -5.1412     1.7427 H       
  39 H39           -3.0837    -4.8887    -2.4841 H       
  40 H40           -3.7306    -2.5254    -2.2565 H       
  41 H41           -3.4062    -6.9429    -2.2529 H       
  42 H42           -1.7048    -6.4614    -2.4563 H       
  43 H43           -2.1028    -8.0632    -1.7902 H       
@<TRIPOS>BOND
   1    1    2 ar
   2    1   12 1
   3    1    6 ar
   4    2    3 ar
   5    2   30 1
   6    3    4 ar
   7    3   31 1
   8    4    5 ar
   9    4   10 1
  10    5    6 ar
  11    5    7 1
  12    7    8 am
  13    7   27 2
  14    8    9 1
  15    8   32 1
  16    9   14 2
  17    9   17 1
  18   10   11 1
  19   11   22 ar
  20   11   26 ar
  21   12   13 1
  22   13   18 1
  23   13   21 2
  24   14   15 1
  25   15   16 2
  26   15   33 1
  27   16   17 1
  28   16   34 1
  29   18   19 1
  30   18   35 1
  31   19   20 2
  32   19   36 1
  33   20   21 1
  34   22   23 ar
  35   22   37 1
  36   23   24 ar
  37   23   38 1
  38   24   25 ar
  39   24   28 1
  40   25   26 ar
  41   25   39 1
  42   26   40 1
  43   28   29 1
  44   29   41 1
  45   29   42 1
  46   29   43 1

#	End of record

