#	Name: ASD01916479
#	Creating user name:	WinNT
#	Creation time:	15. 06. 2019 20:07

#	Modifying user name:	WinNT
#	Modification time:	15. 06. 2019 20:07

#	Program:	/corina/corina34_cracker 3.40 0067  02.08.2006

@<TRIPOS>MOLECULE
ASD01916479
  43   46    0    0    0
SMALL
NO_CHARGES


@<TRIPOS>ATOM
   1 C1            -0.0171     1.4080     0.0098 C.ar    
   2 C2             0.0021    -0.0041     0.0020 C.ar    
   3 N3            -1.1264    -0.7010     0.0429 N.ar    
   4 C4            -2.2975    -0.1111     0.0712 C.ar    
   5 C5            -2.4075     1.2900     0.0622 C.ar    
   6 C6            -1.2491     2.0682     0.0341 C.ar    
   7 N7             1.1550     2.0795     0.0022 N.2     
   8 C8             2.3169     1.4770    -0.0377 C.2     
   9 N9             2.4230     0.1291    -0.1491 N.am    
  10 C10            1.3173    -0.6580    -0.0646 C.2     
  11 C11           -3.6964     1.9135     0.0817 C.1     
  12 C12           -4.7532     2.4248     0.0976 C.1     
  13 C13           -6.0421     3.0483     0.1170 C.ar    
  14 N14           -6.1339     4.3747     0.1082 N.ar    
  15 C15           -7.3005     4.9854     0.1255 C.ar    
  16 C16           -8.4804     4.2640     0.1540 C.ar    
  17 C17           -8.4317     2.8765     0.1640 C.ar    
  18 C18           -7.1946     2.2584     0.1393 C.ar    
  19 O19            1.4138    -1.8712    -0.0443 O.2     
  20 C20            3.5333     2.3642     0.0963 C.3     
  21 C21            4.7590     1.6840    -0.5101 C.3     
  22 C22            4.8714     0.2795     0.0972 C.3     
  23 C23            3.6944    -0.5515    -0.4074 C.3     
  24 C24            6.1865    -0.3687    -0.3401 C.3     
  25 C25            4.8222     0.3712     1.6237 C.3     
  26 F26            3.2994     3.5733    -0.5676 F       
  27 H27           -3.1937    -0.7130     0.1017 H       
  28 H28           -1.3030     3.1469     0.0310 H       
  29 H29           -7.3365     6.0647     0.1176 H       
  30 H30           -9.4313     4.7757     0.1686 H       
  31 H31           -9.3400     2.2926     0.1866 H       
  32 H32           -7.1202     1.1810     0.1463 H       
  33 H33            3.7180     2.5657     1.1514 H       
  34 H34            4.6419     1.6096    -1.5912 H       
  35 H35            5.6541     2.2598    -0.2747 H       
  36 H36            3.6936    -1.5162     0.0999 H       
  37 H37            3.8031    -0.7119    -1.4800 H       
  38 H38            7.0232     0.2404     0.0019 H       
  39 H39            6.2619    -1.3659     0.0936 H       
  40 H40            6.2113    -0.4425    -1.4273 H       
  41 H41            3.8787     0.8227     1.9303 H       
  42 H42            4.9024    -0.6285     2.0505 H       
  43 H43            5.6506     0.9849     1.9776 H       
@<TRIPOS>BOND
   1    1    2 ar
   2    1    7 1
   3    1    6 ar
   4    2    3 ar
   5    2   10 1
   6    3    4 ar
   7    4    5 ar
   8    4   27 1
   9    5    6 ar
  10    5   11 1
  11    6   28 1
  12    7    8 2
  13    8    9 1
  14    8   20 1
  15    9   10 am
  16    9   23 1
  17   10   19 2
  18   11   12 3
  19   12   13 1
  20   13   14 ar
  21   13   18 ar
  22   14   15 ar
  23   15   16 ar
  24   15   29 1
  25   16   17 ar
  26   16   30 1
  27   17   18 ar
  28   17   31 1
  29   18   32 1
  30   20   21 1
  31   20   26 1
  32   20   33 1
  33   21   22 1
  34   21   34 1
  35   21   35 1
  36   22   23 1
  37   22   24 1
  38   22   25 1
  39   23   36 1
  40   23   37 1
  41   24   38 1
  42   24   39 1
  43   24   40 1
  44   25   41 1
  45   25   42 1
  46   25   43 1

#	End of record

