#	Name: ASD01903025
#	Creating user name:	WinNT
#	Creation time:	15. 06. 2019 19:54

#	Modifying user name:	WinNT
#	Modification time:	15. 06. 2019 19:54

#	Program:	/corina/corina34_cracker 3.40 0067  02.08.2006

@<TRIPOS>MOLECULE
ASD01903025
  34   36    0    0    0
SMALL
NO_CHARGES


@<TRIPOS>ATOM
   1 C1             0.1256     1.4184    -0.1298 C.ar    
   2 C2             0.0966     0.0374    -0.1245 C.ar    
   3 C3             1.2777    -0.6814     0.0052 C.ar    
   4 C4             2.4865    -0.0131     0.1297 C.ar    
   5 C5             2.5167     1.3677     0.1245 C.ar    
   6 C6             1.3364     2.0875    -0.0055 C.ar    
   7 N7             1.3668     3.4870    -0.0109 N.am    
   8 C8             2.3922     4.1366    -0.5967 C.2     
   9 O9             3.3312     3.5096    -1.0465 O.2     
  10 C10            2.3747     5.6147    -0.6924 C.ar    
  11 O11            1.2490    -2.0409     0.0105 O.3     
  12 C12            1.2733    -2.6821    -1.1825 C.ar    
  13 N13            1.1962    -4.0031    -1.2071 N.ar    
  14 C14            1.2167    -4.6607    -2.3547 C.ar    
  15 C15            1.3203    -3.9490    -3.5395 C.ar    
  16 C16            1.3990    -2.5667    -3.4766 C.ar    
  17 N17            1.3680    -1.9721    -2.2952 N.ar    
  18 N18            1.3465     6.2940    -0.1993 N.ar    
  19 C19            1.2923     7.6065    -0.2634 C.ar    
  20 C20            2.3145     8.3331    -0.8525 C.ar    
  21 C21            3.4076     7.6634    -1.3803 C.ar    
  22 C22            3.4404     6.2807    -1.2940 C.ar    
  23 Cl23          -1.4164    -0.7997    -0.2792 Cl      
  24 H24           -0.7923     1.9777    -0.2351 H       
  25 H25            3.4047    -0.5727     0.2312 H       
  26 H26            3.4583     1.8876     0.2215 H       
  27 H27            0.6499     3.9893     0.4070 H       
  28 H28            1.1538    -5.7388    -2.3683 H       
  29 H29            1.3396    -4.4603    -4.4907 H       
  30 H30            1.4805    -1.9820    -4.3809 H       
  31 H31            0.4392     8.1251     0.1484 H       
  32 H32            2.2601     9.4107    -0.9003 H       
  33 H33            4.2168     8.2071    -1.8449 H       
  34 H34            4.2767     5.7267    -1.6943 H       
@<TRIPOS>BOND
   1    1    2 ar
   2    1    6 ar
   3    1   24 1
   4    2    3 ar
   5    2   23 1
   6    3    4 ar
   7    3   11 1
   8    4    5 ar
   9    4   25 1
  10    5    6 ar
  11    5   26 1
  12    6    7 1
  13    7    8 am
  14    7   27 1
  15    8    9 2
  16    8   10 1
  17   10   18 ar
  18   10   22 ar
  19   11   12 1
  20   12   13 ar
  21   12   17 ar
  22   13   14 ar
  23   14   15 ar
  24   14   28 1
  25   15   16 ar
  26   15   29 1
  27   16   17 ar
  28   16   30 1
  29   18   19 ar
  30   19   20 ar
  31   19   31 1
  32   20   21 ar
  33   20   32 1
  34   21   22 ar
  35   21   33 1
  36   22   34 1

#	End of record

