#	Name: ASD00311239
#	Creating user name:	WinNT
#	Creation time:	15. 06. 2019 18:34

#	Modifying user name:	WinNT
#	Modification time:	15. 06. 2019 18:34

#	Program:	/corina/corina34_cracker 3.40 0067  02.08.2006

@<TRIPOS>MOLECULE
ASD00311239
  44   47    0    0    0
SMALL
NO_CHARGES


@<TRIPOS>ATOM
   1 C1            -0.0167     1.3776     0.0096 C.2     
   2 C2             0.0021    -0.0041     0.0020 C.2     
   3 C3             1.2592    -0.6767    -0.0132 C.2     
   4 C4             2.4314     0.0670    -0.0199 C.2     
   5 C5             2.3574     1.4747    -0.0117 C.2     
   6 N6             1.1649     2.0901     0.0022 N.am    
   7 C7            -1.3430    -0.5751     0.0118 C.2     
   8 C8            -2.3224     0.3256     0.0260 C.2     
   9 S9            -1.6793     1.9559     0.0358 S.3     
  10 O10            3.3825     2.1367    -0.0171 O.2     
  11 C11           -1.5953    -2.0355     0.0059 C.ar    
  12 C12           -2.4694    -2.5986     0.9350 C.ar    
  13 C13           -2.7007    -3.9589     0.9243 C.ar    
  14 C14           -2.0671    -4.7638    -0.0055 C.ar    
  15 C15           -1.1989    -4.2109    -0.9297 C.ar    
  16 C16           -0.9641    -2.8511    -0.9325 C.ar    
  17 C17            3.7480    -0.6126    -0.0352 C.ar    
  18 C18            4.5930    -0.4742    -1.1362 C.ar    
  19 C19            5.8179    -1.1073    -1.1476 C.ar    
  20 C20            6.2106    -1.8832    -0.0635 C.ar    
  21 C21            5.3707    -2.0228     1.0348 C.ar    
  22 C22            4.1471    -1.3872     1.0539 C.ar    
  23 N23            7.4524    -2.5246    -0.0781 N.pl3   
  24 C24            8.3387    -2.3786    -1.2354 C.3     
  25 C25            7.8677    -3.3428     1.0640 C.3     
  26 O26            1.3093    -2.0295    -0.0204 O.3     
  27 H27            1.1329     3.0596     0.0077 H       
  28 H28           -3.3749     0.0838     0.0347 H       
  29 H29           -2.9640    -1.9713     1.6618 H       
  30 H30           -3.3775    -4.3962     1.6435 H       
  31 H31           -2.2507    -5.8280    -0.0095 H       
  32 H32           -0.7071    -4.8442    -1.6532 H       
  33 H33           -0.2895    -2.4199    -1.6574 H       
  34 H34            4.2880     0.1281    -1.9792 H       
  35 H35            6.4726    -1.0004    -1.9999 H       
  36 H36            5.6781    -2.6266     1.8758 H       
  37 H37            3.4964    -1.4927     1.9094 H       
  38 H38            8.9899    -1.5171    -1.0880 H       
  39 H39            8.9449    -3.2779    -1.3445 H       
  40 H40            7.7406    -2.2324    -2.1349 H       
  41 H41            7.5393    -4.3711     0.9128 H       
  42 H42            8.9537    -3.3176     1.1532 H       
  43 H43            7.4190    -2.9484     1.9757 H       
  44 H44            2.2066    -2.3898    -0.0307 H       
@<TRIPOS>BOND
   1    1    2 2
   2    1    6 1
   3    1    9 1
   4    2    3 1
   5    2    7 1
   6    3    4 2
   7    3   26 1
   8    4    5 1
   9    4   17 1
  10    5    6 am
  11    5   10 2
  12    6   27 1
  13    7    8 2
  14    7   11 1
  15    8    9 1
  16    8   28 1
  17   11   12 ar
  18   11   16 ar
  19   12   13 ar
  20   12   29 1
  21   13   14 ar
  22   13   30 1
  23   14   15 ar
  24   14   31 1
  25   15   16 ar
  26   15   32 1
  27   16   33 1
  28   17   18 ar
  29   17   22 ar
  30   18   19 ar
  31   18   34 1
  32   19   20 ar
  33   19   35 1
  34   20   21 ar
  35   20   23 1
  36   21   22 ar
  37   21   36 1
  38   22   37 1
  39   23   24 1
  40   23   25 1
  41   24   38 1
  42   24   39 1
  43   24   40 1
  44   25   41 1
  45   25   42 1
  46   25   43 1
  47   26   44 1

#	End of record

