#	Name: ASD01813227
#	Creating user name:	WinNT
#	Creation time:	15. 06. 2019 19:30

#	Modifying user name:	WinNT
#	Modification time:	15. 06. 2019 19:30

#	Program:	/corina/corina34_cracker 3.40 0067  02.08.2006

@<TRIPOS>MOLECULE
ASD01813227
  55   59    0    0    0
SMALL
NO_CHARGES


@<TRIPOS>ATOM
   1 C1            -0.0169     1.3972     0.0097 C.2     
   2 C2             0.0021    -0.0041     0.0020 C.2     
   3 C3             1.1986    -0.6593    -0.0129 C.2     
   4 C4             2.3918     0.0821    -0.0204 C.2     
   5 N5             2.3437     1.4497    -0.0122 N.am    
   6 C6             1.1421     2.0937     0.0024 C.2     
   7 C7             3.6227    -0.5889    -0.0356 C.2     
   8 C8             4.7877     0.1218    -0.0425 C.2     
   9 C9             4.7345     1.5280    -0.0346 C.2     
  10 C10            3.4812     2.1736    -0.0189 C.2     
  11 O11            3.4258     3.3917    -0.0123 O.2     
  12 C12            5.9703     2.3140    -0.0413 C.2     
  13 O13            5.9124     3.6618    -0.0337 O.3     
  14 O14            7.0487     1.7516    -0.0537 O.2     
  15 C15            3.6593    -2.0954    -0.0439 C.3     
  16 N16            3.7787    -2.5747    -1.4274 N.3     
  17 C17            4.0550    -4.0176    -1.4629 C.3     
  18 C18            4.1649    -4.4695    -2.9286 C.3     
  19 N19            2.8328    -4.2430    -3.5534 N.3     
  20 C20            2.7538    -2.7591    -3.6430 C.3     
  21 C21            2.5820    -2.2322    -2.2086 C.3     
  22 C22            5.0949    -3.4714    -3.6581 C.3     
  23 C23            4.1601    -2.3383    -4.1314 C.3     
  24 C24            2.7659    -4.8552    -4.8870 C.3     
  25 C25            1.3436    -4.8223    -5.3840 C.ar    
  26 C26            0.8909    -3.7383    -6.1127 C.ar    
  27 C27           -0.4137    -3.7081    -6.5685 C.ar    
  28 C28           -1.2657    -4.7621    -6.2961 C.ar    
  29 C29           -0.8128    -5.8465    -5.5682 C.ar    
  30 C30            0.4932    -5.8787    -5.1160 C.ar    
  31 H31           -0.9605     1.9226     0.0170 H       
  32 H32           -0.9233    -0.5609     0.0082 H       
  33 H33            1.2282    -1.7389    -0.0187 H       
  34 H34            1.1156     3.1733     0.0087 H       
  35 H35            5.7393    -0.3889    -0.0536 H       
  36 H36            6.7544     4.1373    -0.0385 H       
  37 H37            4.5153    -2.4412     0.5356 H       
  38 H38            2.7412    -2.4836     0.3971 H       
  39 H39            4.9929    -4.2223    -0.9466 H       
  40 H40            3.2430    -4.5567    -0.9748 H       
  41 H41            4.4965    -5.5038    -3.0192 H       
  42 H42            1.9556    -2.4242    -4.3054 H       
  43 H43            1.7051    -2.6926    -1.7533 H       
  44 H44            2.4578    -1.1495    -2.2300 H       
  45 H45            5.8466    -3.0816    -2.9717 H       
  46 H46            5.5720    -3.9517    -4.5123 H       
  47 H47            4.1771    -2.2611    -5.2185 H       
  48 H48            4.4518    -1.3910    -3.6779 H       
  49 H49            3.4039    -4.2996    -5.5743 H       
  50 H50            3.1069    -5.8889    -4.8298 H       
  51 H51            1.5565    -2.9149    -6.3256 H       
  52 H52           -0.7676    -2.8609    -7.1373 H       
  53 H53           -2.2852    -4.7382    -6.6516 H       
  54 H54           -1.4784    -6.6698    -5.3550 H       
  55 H55            0.8470    -6.7259    -4.5473 H       
@<TRIPOS>BOND
   1    1    2 1
   2    1    6 2
   3    1   31 1
   4    2    3 2
   5    2   32 1
   6    3    4 1
   7    3   33 1
   8    4    5 1
   9    4    7 2
  10    5    6 1
  11    5   10 am
  12    6   34 1
  13    7    8 1
  14    7   15 1
  15    8    9 2
  16    8   35 1
  17    9   10 1
  18    9   12 1
  19   10   11 2
  20   12   13 1
  21   12   14 2
  22   13   36 1
  23   15   16 1
  24   15   37 1
  25   15   38 1
  26   16   17 1
  27   16   21 1
  28   17   18 1
  29   17   39 1
  30   17   40 1
  31   18   19 1
  32   18   22 1
  33   18   41 1
  34   19   20 1
  35   19   24 1
  36   20   21 1
  37   20   23 1
  38   20   42 1
  39   21   43 1
  40   21   44 1
  41   22   23 1
  42   22   45 1
  43   22   46 1
  44   23   47 1
  45   23   48 1
  46   24   25 1
  47   24   49 1
  48   24   50 1
  49   25   26 ar
  50   25   30 ar
  51   26   27 ar
  52   26   51 1
  53   27   28 ar
  54   27   52 1
  55   28   29 ar
  56   28   53 1
  57   29   30 ar
  58   29   54 1
  59   30   55 1

#	End of record

