#	Name: ASD01812421
#	Creating user name:	WinNT
#	Creation time:	15. 06. 2019 19:28

#	Modifying user name:	WinNT
#	Modification time:	15. 06. 2019 19:28

#	Program:	/corina/corina34_cracker 3.40 0067  02.08.2006

@<TRIPOS>MOLECULE
ASD01812421
  60   64    0    0    0
SMALL
NO_CHARGES


@<TRIPOS>ATOM
   1 C1            -0.0213     1.4757     0.0485 C.ar    
   2 C2            -0.0898     0.1521     0.4393 C.ar    
   3 C3             1.0709    -0.5779     0.6165 C.ar    
   4 C4             2.3003     0.0126     0.4017 C.ar    
   5 C5             2.3785     1.3445     0.0070 C.ar    
   6 C6             1.2106     2.0770    -0.1674 C.ar    
   7 N7             3.6413     1.9064    -0.2066 N.3     
   8 C8             3.6103     3.3726    -0.1527 C.3     
   9 C9             2.4836     3.8725    -1.0661 C.3     
  10 O10            1.2437     3.3855    -0.5423 O.3     
  11 C11            4.6253     1.3654     0.7405 C.3     
  12 C12            5.9922     1.9058     0.4082 C.ar    
  13 C13            6.7593     1.2913    -0.5645 C.ar    
  14 C14            6.4745     3.0185     1.0725 C.ar    
  15 C15            7.7268     3.5164     0.7698 C.ar    
  16 C16            8.5015     2.8984    -0.2026 C.ar    
  17 C17            8.0125     1.7843    -0.8713 C.ar    
  18 N18            3.5020     6.0542    -1.6333 N.am    
  19 C19            2.4727     5.3794    -1.0841 C.2     
  20 C20            3.4914     7.5191    -1.6508 C.3     
  21 C21            4.3635     8.0217    -2.8030 C.3     
  22 C22            4.3525     9.5515    -2.8213 C.3     
  23 C23            4.9035    10.0814    -1.4960 C.3     
  24 C24            4.0313     9.5788    -0.3437 C.3     
  25 C25            4.0424     8.0489    -0.3254 C.3     
  26 O26            3.8489     7.5268    -4.0409 O.3     
  27 O27            1.5377     5.9848    -0.6045 O.2     
  28 N28            9.7729     3.4014    -0.5121 N.pl3   
  29 C29           10.6256     2.8977    -1.4329 C.2     
  30 C30           11.7395     3.6659    -1.4262 C.2     
  31 C31           11.5630     4.6724    -0.4705 C.2     
  32 N32           10.3826     4.5185     0.0735 N.2     
  33 H33           -0.9295     2.0427    -0.0936 H       
  34 H34           -1.0504    -0.3124     0.6066 H       
  35 H35            1.0158    -1.6118     0.9240 H       
  36 H36            3.2045    -0.5613     0.5409 H       
  37 H37            3.4227     3.6972     0.8708 H       
  38 H38            4.5645     3.7717    -0.4967 H       
  39 H39            2.6314     3.4928    -2.0771 H       
  40 H40            4.3544     1.6608     1.7541 H       
  41 H41            4.6375     0.2777     0.6700 H       
  42 H42            6.3783     0.4249    -1.0846 H       
  43 H43            5.8713     3.4990     1.8286 H       
  44 H44            8.1029     4.3857     1.2887 H       
  45 H45            8.6115     1.3035    -1.6306 H       
  46 H46            4.2499     5.5700    -2.0169 H       
  47 H47            2.4697     7.8734    -1.7871 H       
  48 H48            5.3853     7.6673    -2.6667 H       
  49 H49            4.9738     9.9096    -3.6422 H       
  50 H50            3.3307     9.9059    -2.9576 H       
  51 H51            5.9252     9.7270    -1.3596 H       
  52 H52            4.8956    11.1713    -1.5090 H       
  53 H53            4.4239     9.9563     0.6005 H       
  54 H54            3.0096     9.9331    -0.4800 H       
  55 H55            3.4211     7.6909     0.4955 H       
  56 H56            5.0642     7.6946    -0.1891 H       
  57 H57            4.3539     7.8065    -4.8167 H       
  58 H58           10.4492     2.0368    -2.0607 H       
  59 H59           12.6112     3.5264    -2.0484 H       
  60 H60           12.2761     5.4460    -0.2268 H       
@<TRIPOS>BOND
   1    1    2 ar
   2    1    6 ar
   3    1   33 1
   4    2    3 ar
   5    2   34 1
   6    3    4 ar
   7    3   35 1
   8    4    5 ar
   9    4   36 1
  10    5    7 1
  11    5    6 ar
  12    6   10 1
  13    7   11 1
  14    7    8 1
  15    8    9 1
  16    8   37 1
  17    8   38 1
  18    9   10 1
  19    9   19 1
  20    9   39 1
  21   11   12 1
  22   11   40 1
  23   11   41 1
  24   12   14 ar
  25   12   13 ar
  26   13   17 ar
  27   13   42 1
  28   14   15 ar
  29   14   43 1
  30   15   16 ar
  31   15   44 1
  32   16   17 ar
  33   16   28 1
  34   17   45 1
  35   18   19 am
  36   18   20 1
  37   18   46 1
  38   19   27 2
  39   20   21 1
  40   20   25 1
  41   20   47 1
  42   21   22 1
  43   21   26 1
  44   21   48 1
  45   22   23 1
  46   22   49 1
  47   22   50 1
  48   23   24 1
  49   23   51 1
  50   23   52 1
  51   24   25 1
  52   24   53 1
  53   24   54 1
  54   25   55 1
  55   25   56 1
  56   26   57 1
  57   28   29 1
  58   28   32 1
  59   29   30 2
  60   29   58 1
  61   30   31 1
  62   30   59 1
  63   31   32 2
  64   31   60 1

#	End of record

