#	Name: ASD05313074
#	Creating user name:	WinNT
#	Creation time:	15. 06. 2019 20:58

#	Modifying user name:	WinNT
#	Modification time:	15. 06. 2019 20:58

#	Program:	/corina/corina34_cracker 3.40 0067  02.08.2006

@<TRIPOS>MOLECULE
ASD05313074
  38   41    0    0    0
SMALL
NO_CHARGES


@<TRIPOS>ATOM
   1 C1            -0.0724     0.8202     1.0211 C.2     
   2 C2             0.1131    -0.6166     0.5949 C.3     
   3 N3             0.9302     1.7329     1.0472 N.pl3   
   4 N4             1.4566    -0.7172    -0.0059 N.am    
   5 C5             2.5708    -0.0355     0.6702 C.3     
   6 C6             2.3170     1.4767     0.6620 C.3     
   7 N7            -0.9036     2.6442     1.7031 N.2     
   8 N8            -1.1573     1.4121     1.4225 N.2     
   9 C9             0.3723     2.8930     1.4903 C.2     
  10 O10            2.6031     5.5891     1.7480 O.3     
  11 N11            2.3358     4.4388     1.4886 N.2     
  12 C12            1.0663     4.1843     1.6961 C.2     
  13 C13            0.4902     5.4016     2.1586 C.2     
  14 C14            1.5276     6.2686     2.1712 C.2     
  15 C15            1.4836     7.7178     2.5819 C.3     
  16 C16            1.6575    -1.4144    -1.1417 C.2     
  17 O17            2.7496    -1.4048    -1.6758 O.2     
  18 C18            0.5511    -2.1897    -1.7374 C.ar    
  19 C19            0.3200    -2.1377    -3.1153 C.ar    
  20 C20           -0.7154    -2.8651    -3.6658 C.ar    
  21 C21           -1.5246    -3.6457    -2.8553 C.ar    
  22 C22           -1.2995    -3.7002    -1.4880 C.ar    
  23 C23           -0.2649    -2.9826    -0.9275 C.ar    
  24 F24           -2.5369    -4.3559    -3.3994 F       
  25 Cl25           1.3327    -1.1597    -4.1311 Cl      
  26 H26            0.0431    -1.2737     1.4618 H       
  27 H27           -0.6445    -0.8873    -0.1405 H       
  28 H28            2.6420    -0.3871     1.6994 H       
  29 H29            3.5017    -0.2512     0.1457 H       
  30 H30            2.4958     1.8706    -0.3385 H       
  31 H31            2.9875     1.9625     1.3708 H       
  32 H32           -0.5369     5.5890     2.4349 H       
  33 H33            2.4781     8.1534     2.4845 H       
  34 H34            0.7866     8.2564     1.9398 H       
  35 H35            1.1544     7.7920     3.6183 H       
  36 H36           -0.8957    -2.8258    -4.7300 H       
  37 H37           -1.9338    -4.3097    -0.8615 H       
  38 H38           -0.0881    -3.0300     0.1369 H       
@<TRIPOS>BOND
   1    1    2 1
   2    1    3 1
   3    1    8 2
   4    2    4 1
   5    2   26 1
   6    2   27 1
   7    3    6 1
   8    3    9 1
   9    4    5 1
  10    4   16 am
  11    5    6 1
  12    5   28 1
  13    5   29 1
  14    6   30 1
  15    6   31 1
  16    7    8 1
  17    7    9 2
  18    9   12 1
  19   10   11 1
  20   10   14 1
  21   11   12 2
  22   12   13 1
  23   13   14 2
  24   13   32 1
  25   14   15 1
  26   15   33 1
  27   15   34 1
  28   15   35 1
  29   16   17 2
  30   16   18 1
  31   18   19 ar
  32   18   23 ar
  33   19   20 ar
  34   19   25 1
  35   20   21 ar
  36   20   36 1
  37   21   22 ar
  38   21   24 1
  39   22   23 ar
  40   22   37 1
  41   23   38 1

#	End of record

