#	Name: ASD01811160
#	Creating user name:	WinNT
#	Creation time:	15. 06. 2019 19:26

#	Modifying user name:	WinNT
#	Modification time:	15. 06. 2019 19:26

#	Program:	/corina/corina34_cracker 3.40 0067  02.08.2006

@<TRIPOS>MOLECULE
ASD01811160
  62   65    0    0    0
SMALL
NO_CHARGES


@<TRIPOS>ATOM
   1 C1            -0.2579     1.4318    -0.5481 C.2     
   2 C2            -0.1232    -0.0122    -0.2662 C.ar    
   3 C3             1.1449    -0.5868    -0.1447 C.ar    
   4 C4             1.2722    -1.9360     0.1187 C.ar    
   5 C5             0.1492    -2.7266     0.2637 C.ar    
   6 C6            -1.1242    -2.1655     0.1443 C.ar    
   7 C7            -1.2604    -0.8034    -0.1153 C.ar    
   8 O8             0.5585     2.2155    -0.1068 O.2     
   9 O9            -1.2830     1.8786    -1.2992 O.3     
  10 C10            0.2982    -4.1985     0.5511 C.3     
  11 C11            0.1449    -4.9900    -0.7492 C.3     
  12 C12            2.3760     0.2680    -0.3019 C.3     
  13 C13            3.2048     0.3975     0.9870 C.3     
  14 C14            4.4560     0.2772     0.1011 C.3     
  15 C15            3.5750    -0.4834    -0.9040 C.3     
  16 C16           -2.3252    -3.0138     0.2994 C.2     
  17 O17           -2.4349    -3.7407     1.2675 O.2     
  18 N18           -3.2984    -2.9811    -0.6325 N.am    
  19 C19           -4.5508    -3.7230    -0.4332 C.3     
  20 C20           -4.7899    -4.6226    -1.6499 C.3     
  21 C21           -4.7585    -3.7724    -2.9220 C.3     
  22 C22           -3.3821    -3.1192    -3.0673 C.3     
  23 C23           -3.1294    -2.1981    -1.8641 C.3     
  24 C24           -5.0272    -4.6486    -4.1183 C.ar    
  25 C25           -6.1180    -4.3909    -4.9296 C.ar    
  26 C26           -6.3698    -5.1889    -6.0262 C.ar    
  27 C27           -5.5207    -6.2586    -6.3169 C.ar    
  28 C28           -4.4214    -6.5127    -5.4942 C.ar    
  29 C29           -4.1787    -5.7037    -4.4035 C.ar    
  30 C30           -5.7762    -7.0915    -7.4534 C.1     
  31 N31           -5.9789    -7.7522    -8.3550 N.1     
  32 C32           -1.3525     3.3096    -1.5353 C.3     
  33 H33            2.2545    -2.3752     0.2113 H       
  34 H34           -2.2428    -0.3636    -0.2034 H       
  35 H35            1.2833    -4.3875     0.9775 H       
  36 H36           -0.4700    -4.5101     1.2588 H       
  37 H37           -0.8402    -4.8010    -1.1757 H       
  38 H38            0.9131    -4.6785    -1.4570 H       
  39 H39            0.2526    -6.0546    -0.5414 H       
  40 H40            2.1694     1.2226    -0.7859 H       
  41 H41            3.1061     1.3677     1.4740 H       
  42 H42            3.0751    -0.4378     1.6752 H       
  43 H43            4.8193     1.2342    -0.2735 H       
  44 H44            5.2447    -0.3337     0.5401 H       
  45 H45            3.5466    -1.5595    -0.7327 H       
  46 H46            3.7753    -0.2244    -1.9436 H       
  47 H47           -4.4736    -4.3359     0.4648 H       
  48 H48           -5.3785    -3.0214    -0.3293 H       
  49 H49           -4.0092    -5.3816    -1.7002 H       
  50 H50           -5.7626    -5.1060    -1.5594 H       
  51 H51           -5.5232    -2.9981    -2.8602 H       
  52 H52           -2.6147    -3.8924    -3.1042 H       
  53 H53           -3.3528    -2.5327    -3.9855 H       
  54 H54           -3.8435    -1.3746    -1.8745 H       
  55 H55           -2.1140    -1.8045    -1.9104 H       
  56 H56           -6.7739    -3.5632    -4.7036 H       
  57 H57           -7.2220    -4.9871    -6.6583 H       
  58 H58           -3.7607    -7.3384    -5.7134 H       
  59 H59           -3.3266    -5.8965    -3.7687 H       
  60 H60           -2.2225     3.5343    -2.1523 H       
  61 H61           -1.4385     3.8314    -0.5821 H       
  62 H62           -0.4486     3.6374    -2.0487 H       
@<TRIPOS>BOND
   1    1    2 1
   2    1    8 2
   3    1    9 1
   4    2    3 ar
   5    2    7 ar
   6    3    4 ar
   7    3   12 1
   8    4    5 ar
   9    4   33 1
  10    5    6 ar
  11    5   10 1
  12    6    7 ar
  13    6   16 1
  14    7   34 1
  15    9   32 1
  16   10   11 1
  17   10   35 1
  18   10   36 1
  19   11   37 1
  20   11   38 1
  21   11   39 1
  22   12   13 1
  23   12   15 1
  24   12   40 1
  25   13   14 1
  26   13   41 1
  27   13   42 1
  28   14   15 1
  29   14   43 1
  30   14   44 1
  31   15   45 1
  32   15   46 1
  33   16   17 2
  34   16   18 am
  35   18   19 1
  36   18   23 1
  37   19   20 1
  38   19   47 1
  39   19   48 1
  40   20   21 1
  41   20   49 1
  42   20   50 1
  43   21   22 1
  44   21   24 1
  45   21   51 1
  46   22   23 1
  47   22   52 1
  48   22   53 1
  49   23   54 1
  50   23   55 1
  51   24   25 ar
  52   24   29 ar
  53   25   26 ar
  54   25   56 1
  55   26   27 ar
  56   26   57 1
  57   27   28 ar
  58   27   30 1
  59   28   29 ar
  60   28   58 1
  61   29   59 1
  62   30   31 3
  63   32   60 1
  64   32   61 1
  65   32   62 1

#	End of record

