#	Name: ASD00170353
#	Creating user name:	WinNT
#	Creation time:	15. 06. 2019 18:32

#	Modifying user name:	WinNT
#	Modification time:	15. 06. 2019 18:32

#	Program:	/corina/corina34_cracker 3.40 0067  02.08.2006

@<TRIPOS>MOLECULE
ASD00170353
  23   24    0    0    0
SMALL
NO_CHARGES


@<TRIPOS>ATOM
   1 C1             0.0042     1.3223     0.1980 C.2     
   2 C2             0.0143     0.0004     0.1264 C.2     
   3 C3             1.3489    -0.5570     0.0606 C.2     
   4 C4             2.3287     0.4083     0.0865 C.2     
   5 S5             1.6374     1.9628     0.1889 S.3     
   6 C6             1.6254    -1.9909    -0.0237 C.2     
   7 C7             0.5192    -2.9654     0.0932 C.ar    
   8 O8             2.7665    -2.3822    -0.1902 O.2     
   9 C9             0.5792    -4.1792    -0.5937 C.ar    
  10 C10           -0.4554    -5.0840    -0.4809 C.ar    
  11 C11           -1.5527    -4.7901     0.3117 C.ar    
  12 C12           -1.6177    -3.5874     0.9956 C.ar    
  13 C13           -0.5864    -2.6775     0.8954 C.ar    
  14 N14            3.6841     0.1531     0.0369 N.pl3   
  15 Cl15          -2.8518    -5.9336     0.4480 Cl      
  16 H16           -0.8900     1.9258     0.2503 H       
  17 H17           -0.8824    -0.6015     0.1179 H       
  18 H18            1.4339    -4.4091    -1.2126 H       
  19 H19           -0.4101    -6.0234    -1.0118 H       
  20 H20           -2.4758    -3.3637     1.6121 H       
  21 H21           -0.6381    -1.7401     1.4294 H       
  22 H22            4.0038    -0.7609    -0.0207 H       
  23 H23            4.3171     0.8878     0.0596 H       
@<TRIPOS>BOND
   1    1    2 2
   2    1    5 1
   3    1   16 1
   4    2    3 1
   5    2   17 1
   6    3    4 2
   7    3    6 1
   8    4    5 1
   9    4   14 1
  10    6    7 1
  11    6    8 2
  12    7    9 ar
  13    7   13 ar
  14    9   10 ar
  15    9   18 1
  16   10   11 ar
  17   10   19 1
  18   11   12 ar
  19   11   15 1
  20   12   13 ar
  21   12   20 1
  22   13   21 1
  23   14   22 1
  24   14   23 1

#	End of record

