#	Name: ASD01120190
#	Creating user name:	WinNT
#	Creation time:	15. 06. 2019 18:59

#	Modifying user name:	WinNT
#	Modification time:	15. 06. 2019 18:59

#	Program:	/corina/corina34_cracker 3.40 0067  02.08.2006

@<TRIPOS>MOLECULE
ASD01120190
  30   32    0    0    0
SMALL
NO_CHARGES


@<TRIPOS>ATOM
   1 C1            -6.6439    -3.0954    -4.2407 C.ar    
   2 C2            -5.6530    -3.8263    -3.6022 C.ar    
   3 C3            -5.0652    -3.3486    -2.4479 C.ar    
   4 C4            -5.4651    -2.1315    -1.9218 C.ar    
   5 C5            -6.4668    -1.3882    -2.5644 C.ar    
   6 C6            -7.0496    -1.8790    -3.7330 C.ar    
   7 O7            -5.0926    -1.4128    -0.8375 O.3     
   8 C8            -5.8242    -0.2850    -0.8098 C.2     
   9 N9            -6.6445    -0.2563    -1.8289 N.2     
  10 Cl10          -7.3725    -3.7118    -5.6909 Cl      
  11 N11           -5.7247     0.6962     0.1504 N.am    
  12 S12           -6.5988     2.0946    -0.0011 S.o2    
  13 O13           -7.9368     1.7035    -0.2769 O.2     
  14 O14           -6.2404     2.9134     1.1036 O.2     
  15 C15           -6.0147     2.9212    -1.4434 C.ar    
  16 C16           -4.6991     3.3851    -1.4994 C.ar    
  17 C17           -4.2442     4.0388    -2.6467 C.ar    
  18 C18           -5.0962     4.2218    -3.7158 C.ar    
  19 C19           -6.3991     3.7597    -3.6533 C.ar    
  20 C20           -6.8546     3.1064    -2.5221 C.ar    
  21 C21           -3.8202     3.1921    -0.3855 C.1     
  22 N22           -3.1230     3.0389     0.4983 N.1     
  23 H23           -5.3394    -4.7757    -4.0105 H       
  24 H24           -4.2947    -3.9234    -1.9557 H       
  25 H25           -7.8210    -1.3125    -4.2336 H       
  26 H26           -5.1426     0.5686     0.9157 H       
  27 H27           -3.2278     4.4005    -2.6965 H       
  28 H28           -4.7458     4.7271    -4.6036 H       
  29 H29           -7.0622     3.9060    -4.4931 H       
  30 H30           -7.8726     2.7483    -2.4800 H       
@<TRIPOS>BOND
   1    1    2 ar
   2    1   10 1
   3    1    6 ar
   4    2    3 ar
   5    2   23 1
   6    3    4 ar
   7    3   24 1
   8    4    5 ar
   9    4    7 1
  10    5    6 ar
  11    5    9 1
  12    6   25 1
  13    7    8 1
  14    8    9 2
  15    8   11 1
  16   11   12 am
  17   11   26 1
  18   12   13 2
  19   12   14 2
  20   12   15 1
  21   15   16 ar
  22   15   20 ar
  23   16   17 ar
  24   16   21 1
  25   17   18 ar
  26   17   27 1
  27   18   19 ar
  28   18   28 1
  29   19   20 ar
  30   19   29 1
  31   20   30 1
  32   21   22 3

#	End of record

