#	Name: ASD01870437
#	Creating user name:	WinNT
#	Creation time:	15. 06. 2019 19:39

#	Modifying user name:	WinNT
#	Modification time:	15. 06. 2019 19:39

#	Program:	/corina/corina34_cracker 3.40 0067  02.08.2006

@<TRIPOS>MOLECULE
ASD01870437
  52   56    0    0    0
SMALL
NO_CHARGES


@<TRIPOS>ATOM
   1 N1            -0.0162     1.3436     0.0094 N.am    
   2 C2             0.0021    -0.0041     0.0020 C.2     
   3 C3            -1.2926    -0.7753     0.0102 C.3     
   4 O4             1.0605    -0.5961    -0.0113 O.2     
   5 C5            -1.1041    -2.3031     0.0002 C.3     
   6 N6            -2.1920    -2.3432     0.9966 N.am    
   7 C7            -1.8956    -0.9592     1.4147 C.3     
   8 S8            -3.3003    -3.4832     1.4596 S.o2    
   9 C9            -2.5707    -4.4221     2.7598 C.ar    
  10 C10           -1.4327    -5.2142     2.5124 C.ar    
  11 O11           -4.3876    -2.7742     2.0378 O.2     
  12 O12           -3.4480    -4.3695     0.3587 O.2     
  13 C13           -3.0964    -4.3844     4.0092 C.ar    
  14 C14           -2.5444    -5.1167     5.0679 C.ar    
  15 C15           -1.4532    -5.9047     4.9031 C.ar    
  16 C16           -0.8479    -5.9904     3.6343 C.ar    
  17 C17            1.2377     2.1093     0.0016 C.3     
  18 C18            1.2210     3.0948     1.1743 C.3     
  19 C19           -0.0417     3.9557     1.0940 C.3     
  20 C20           -1.2788     3.0607     1.1975 C.3     
  21 C21           -1.2905     2.0749     0.0193 C.3     
  22 C22           -0.0447     4.9494     2.2269 C.ar    
  23 C23           -0.6591     6.1844     2.0861 C.ar    
  24 N24            0.1652    -6.5987     3.0684 N.2     
  25 O25            0.2123    -6.2850     1.8959 O.3     
  26 N26           -0.6450    -5.5159     1.5099 N.2     
  27 C27           -0.6421     7.0699     3.1471 C.ar    
  28 N28           -0.0506     6.7516     4.2819 N.ar    
  29 C29            0.5434     5.5865     4.4514 C.ar    
  30 C30            0.5618     4.6482     3.4368 C.ar    
  31 O31           -0.0628     4.6548    -0.1522 O.3     
  32 H32           -2.0058    -0.4162    -0.7318 H       
  33 H33           -1.3611    -2.7713    -0.9500 H       
  34 H34           -0.1396    -2.6293     0.3895 H       
  35 H35           -1.1636    -0.8907     2.2195 H       
  36 H36           -2.7845    -0.3544     1.5939 H       
  37 H37           -3.9662    -3.7713     4.1935 H       
  38 H38           -3.0011    -5.0516     6.0444 H       
  39 H39           -1.0492    -6.4577     5.7382 H       
  40 H40            2.0823     1.4285     0.1084 H       
  41 H41            1.3247     2.6584    -0.9360 H       
  42 H42            1.2255     2.5423     2.1139 H       
  43 H43            2.1017     3.7351     1.1240 H       
  44 H44           -1.2508     2.5086     2.1368 H       
  45 H45           -2.1774     3.6768     1.1637 H       
  46 H46           -1.4104     2.6234    -0.9149 H       
  47 H47           -2.1136     1.3707     0.1403 H       
  48 H48           -1.1445     6.4512     1.1590 H       
  49 H49           -1.1183     8.0339     3.0455 H       
  50 H50            1.0177     5.3615     5.3952 H       
  51 H51            1.0496     3.6956     3.5817 H       
  52 H52           -0.8370     5.2216    -0.2721 H       
@<TRIPOS>BOND
   1    1    2 am
   2    1   17 1
   3    1   21 1
   4    2    3 1
   5    2    4 2
   6    3    5 1
   7    3    7 1
   8    3   32 1
   9    5    6 1
  10    5   33 1
  11    5   34 1
  12    6    7 1
  13    6    8 am
  14    7   35 1
  15    7   36 1
  16    8    9 1
  17    8   11 2
  18    8   12 2
  19    9   13 ar
  20    9   10 ar
  21   10   16 ar
  22   10   26 2
  23   13   14 ar
  24   13   37 1
  25   14   15 ar
  26   14   38 1
  27   15   16 ar
  28   15   39 1
  29   16   24 2
  30   17   18 1
  31   17   40 1
  32   17   41 1
  33   18   19 1
  34   18   42 1
  35   18   43 1
  36   19   20 1
  37   19   22 1
  38   19   31 1
  39   20   21 1
  40   20   44 1
  41   20   45 1
  42   21   46 1
  43   21   47 1
  44   22   23 ar
  45   22   30 ar
  46   23   27 ar
  47   23   48 1
  48   24   25 1
  49   25   26 1
  50   27   28 ar
  51   27   49 1
  52   28   29 ar
  53   29   30 ar
  54   29   50 1
  55   30   51 1
  56   31   52 1

#	End of record

