#	Name: ASD01881620
#	Creating user name:	WinNT
#	Creation time:	15. 06. 2019 19:43

#	Modifying user name:	WinNT
#	Modification time:	15. 06. 2019 19:43

#	Program:	/corina/corina34_cracker 3.40 0067  02.08.2006

@<TRIPOS>MOLECULE
ASD01881620
  52   54    0    0    0
SMALL
NO_CHARGES


@<TRIPOS>ATOM
   1 C1             0.1440     1.5987    -0.0989 C.2     
   2 C2             0.0513     0.1231     0.1932 C.3     
   3 O3             1.1964     2.0810    -0.4449 O.2     
   4 O4            -0.9438     2.3760     0.0201 O.3     
   5 C5            -0.8641    -0.5309    -0.8095 C.ar    
   6 C6            -2.1988    -0.7225    -0.5049 C.ar    
   7 C7            -3.0384    -1.3224    -1.4247 C.ar    
   8 C8            -2.5435    -1.7303    -2.6492 C.ar    
   9 C9            -1.2090    -1.5379    -2.9542 C.ar    
  10 C10           -0.3703    -0.9340    -2.0361 C.ar    
  11 O11            1.3516    -0.4627     0.1041 O.3     
  12 N12            2.4721    -5.0535     2.8741 N.pl3   
  13 N13            3.8381    -5.0952     2.5580 N.2     
  14 N14            4.1362    -4.0891     1.8140 N.2     
  15 C15            3.0430    -3.3340     1.5869 C.ar    
  16 C16            1.9628    -3.9335     2.2575 C.ar    
  17 C17            2.8277    -2.1559     0.8586 C.ar    
  18 C18            1.5636    -1.6054     0.8102 C.ar    
  19 C19            0.5031    -2.2112     1.4796 C.ar    
  20 C20            0.6982    -3.3592     2.1947 C.ar    
  21 C21            1.7320    -6.0162     3.6938 C.3     
  22 C22            1.7704    -5.5748     5.1583 C.3     
  23 C23            1.1288    -4.1922     5.2912 C.3     
  24 C24            0.9975    -6.5801     6.0143 C.3     
  25 C25            3.2232    -5.5107     5.6337 C.3     
  26 Br26           4.2616    -1.3262    -0.0532 Br      
  27 C27           -0.7808     3.7879    -0.2772 C.3     
  28 C28           -2.1180     4.5067    -0.0877 C.3     
  29 H29           -0.3456    -0.0242     1.1976 H       
  30 H30           -2.5855    -0.4038     0.4518 H       
  31 H31           -4.0810    -1.4728    -1.1864 H       
  32 H32           -3.1993    -2.1997    -3.3675 H       
  33 H33           -0.8222    -1.8569    -3.9108 H       
  34 H34            0.6715    -0.7804    -2.2758 H       
  35 H35           -0.4814    -1.7696     1.4338 H       
  36 H36           -0.1306    -3.8212     2.7105 H       
  37 H37            0.6970    -6.0618     3.3551 H       
  38 H38            2.1891    -7.0011     3.5991 H       
  39 H39            0.0938    -4.2378     4.9525 H       
  40 H40            1.1561    -3.8777     6.3345 H       
  41 H41            1.6794    -3.4760     4.6813 H       
  42 H42            1.4546    -7.5651     5.9196 H       
  43 H43            1.0248    -6.2656     7.0576 H       
  44 H44           -0.0375    -6.6258     5.6756 H       
  45 H45            3.7738    -4.7945     5.0238 H       
  46 H46            3.2506    -5.1962     6.6770 H       
  47 H47            3.6803    -6.4957     5.5390 H       
  48 H48           -0.0387     4.2176     0.3957 H       
  49 H49           -0.4477     3.9060    -1.3084 H       
  50 H50           -2.8601     4.0770    -0.7606 H       
  51 H51           -2.4511     4.3886     0.9434 H       
  52 H52           -1.9956     5.5666    -0.3109 H       
@<TRIPOS>BOND
   1    1    2 1
   2    1    3 2
   3    1    4 1
   4    2    5 1
   5    2   11 1
   6    2   29 1
   7    4   27 1
   8    5    6 ar
   9    5   10 ar
  10    6    7 ar
  11    6   30 1
  12    7    8 ar
  13    7   31 1
  14    8    9 ar
  15    8   32 1
  16    9   10 ar
  17    9   33 1
  18   10   34 1
  19   11   18 1
  20   12   13 1
  21   12   16 1
  22   12   21 1
  23   13   14 2
  24   14   15 1
  25   15   16 ar
  26   15   17 ar
  27   16   20 ar
  28   17   18 ar
  29   17   26 1
  30   18   19 ar
  31   19   20 ar
  32   19   35 1
  33   20   36 1
  34   21   22 1
  35   21   37 1
  36   21   38 1
  37   22   23 1
  38   22   24 1
  39   22   25 1
  40   23   39 1
  41   23   40 1
  42   23   41 1
  43   24   42 1
  44   24   43 1
  45   24   44 1
  46   25   45 1
  47   25   46 1
  48   25   47 1
  49   27   28 1
  50   27   48 1
  51   27   49 1
  52   28   50 1
  53   28   51 1
  54   28   52 1

#	End of record

