#	Name: ASD01000162
#	Creating user name:	WinNT
#	Creation time:	15. 06. 2019 18:54

#	Modifying user name:	WinNT
#	Modification time:	15. 06. 2019 18:54

#	Program:	/corina/corina34_cracker 3.40 0067  02.08.2006

@<TRIPOS>MOLECULE
ASD01000162
  49   52    0    0    0
SMALL
NO_CHARGES


@<TRIPOS>ATOM
   1 C1            -0.4824     1.4050     0.2643 C.ar    
   2 C2            -1.7124    -1.1552     1.4489 C.ar    
   3 C3             0.0010     0.0064     0.0100 C.3     
   4 C4            -1.3157     4.0099     0.7498 C.ar    
   5 C5            -2.2514     3.0084     0.6135 C.ar    
   6 C6            -1.8410     1.6908     0.3642 C.ar    
   7 C7             0.4460     2.4204     0.4063 C.ar    
   8 C8             0.0330     3.7173     0.6475 C.ar    
   9 C9            -2.0251    -1.9954     2.5273 C.ar    
  10 C10           -1.0181    -2.5649     3.2748 C.ar    
  11 C11            0.3059    -2.3090     2.9639 C.ar    
  12 C12            0.6226    -1.4802     1.9039 C.ar    
  13 C13           -0.3781    -0.8994     1.1460 C.ar    
  14 C14           -0.6177    -0.5090    -1.2639 C.ar    
  15 C15           -0.5734    -1.8594    -1.5564 C.ar    
  16 C16           -1.1406    -2.3327    -2.7245 C.ar    
  17 C17           -1.7528    -1.4547    -3.6012 C.ar    
  18 C18           -1.7968    -0.1034    -3.3079 C.ar    
  19 C19           -1.2341     0.3680    -2.1367 C.ar    
  20 S20            1.8065     0.0205    -0.1654 S.3     
  21 C21            2.0609     0.9686    -1.6908 C.3     
  22 C22            3.5589     1.1884    -1.9108 C.3     
  23 C23            3.7703     1.9761    -3.1781 C.2     
  24 N24            4.1170     1.9319    -0.7733 N.3     
  25 O25            3.7203     1.3581    -4.3686 O.3     
  26 O26            3.9848     3.1638    -3.1225 O.2     
  27 C27           -2.8586     0.6496     0.2046 C.2     
  28 C28           -2.8003    -0.5756     0.6750 C.2     
  29 Cl29          -2.4650    -2.0484    -5.0689 Cl      
  30 H30           -1.6347     5.0238     0.9413 H       
  31 H31           -3.3033     3.2391     0.6945 H       
  32 H32            1.5001     2.1985     0.3285 H       
  33 H33            0.7645     4.5050     0.7521 H       
  34 H34           -3.0576    -2.1959     2.7725 H       
  35 H35           -1.2620    -3.2116     4.1047 H       
  36 H36            1.0935    -2.7582     3.5506 H       
  37 H37            1.6578    -1.2847     1.6662 H       
  38 H38           -0.0952    -2.5447    -0.8721 H       
  39 H39           -1.1057    -3.3877    -2.9531 H       
  40 H40           -2.2745     0.5825    -3.9918 H       
  41 H41           -1.2723     1.4223    -1.9056 H       
  42 H42            1.6468     0.4170    -2.5348 H       
  43 H43            1.5606     1.9333    -1.6067 H       
  44 H44            4.0592     0.2237    -1.9949 H       
  45 H45            5.1168     2.0339    -0.8636 H       
  46 H46            3.6693     2.8306    -0.6741 H       
  47 H47            3.8620     1.9050    -5.1534 H       
  48 H48           -3.7438     0.9152    -0.3542 H       
  49 H49           -3.6421    -1.2186     0.4647 H       
@<TRIPOS>BOND
   1    1    3 1
   2    1    7 ar
   3    1    6 ar
   4    2    9 ar
   5    2   13 ar
   6    2   28 1
   7    3   14 1
   8    3   20 1
   9    3   13 1
  10    4    5 ar
  11    4    8 ar
  12    4   30 1
  13    5    6 ar
  14    5   31 1
  15    6   27 1
  16    7    8 ar
  17    7   32 1
  18    8   33 1
  19    9   10 ar
  20    9   34 1
  21   10   11 ar
  22   10   35 1
  23   11   12 ar
  24   11   36 1
  25   12   13 ar
  26   12   37 1
  27   14   15 ar
  28   14   19 ar
  29   15   16 ar
  30   15   38 1
  31   16   17 ar
  32   16   39 1
  33   17   18 ar
  34   17   29 1
  35   18   19 ar
  36   18   40 1
  37   19   41 1
  38   20   21 1
  39   21   22 1
  40   21   42 1
  41   21   43 1
  42   22   23 1
  43   22   24 1
  44   22   44 1
  45   23   25 1
  46   23   26 2
  47   24   45 1
  48   24   46 1
  49   25   47 1
  50   27   28 2
  51   27   48 1
  52   28   49 1

#	End of record

