#	Name: ASD03240837
#	Creating user name:	WinNT
#	Creation time:	15. 06. 2019 20:35

#	Modifying user name:	WinNT
#	Modification time:	15. 06. 2019 20:35

#	Program:	/corina/corina34_cracker 3.40 0067  02.08.2006

@<TRIPOS>MOLECULE
ASD03240837
  61   66    0    0    0
SMALL
NO_CHARGES


@<TRIPOS>ATOM
   1 C1            -0.0188     1.5336     0.0105 C.3     
   2 C2             0.0021    -0.0041     0.0020 C.3     
   3 C3             1.3941     0.0896     0.6488 C.3     
   4 C4             1.5179     1.4762    -0.0045 C.3     
   5 O5            -0.5818     2.1049    -1.1721 O.3     
   6 C6             1.3578     0.1335     2.1778 C.3     
   7 C7             2.7643     0.2245     2.7112 C.ar    
   8 C8             3.3433     1.4636     2.9192 C.ar    
   9 C9             4.6305     1.5535     3.4078 C.ar    
  10 C10            5.3482     0.3917     3.6922 C.ar    
  11 C11            4.7588    -0.8547     3.4805 C.ar    
  12 C12            3.4690    -0.9314     2.9964 C.ar    
  13 N13            9.5850     2.5986     3.7982 N.pl3   
  14 C14           10.8660     2.6989     4.2696 C.2     
  15 N15           11.3675     1.8264     5.1616 N.2     
  16 C16           10.6607     0.8308     5.6310 C.2     
  17 C17            9.2835     0.6597     5.1733 C.ar    
  18 C18            8.4784    -0.3858     5.6381 C.ar    
  19 C19            7.1790    -0.4738     5.1497 C.ar    
  20 C20            6.7303     0.4812     4.2165 C.ar    
  21 N21            7.5221     1.4574     3.7990 N.ar    
  22 C22            8.7630     1.5788     4.2377 C.ar    
  23 C23           11.4334     3.8059     3.6533 C.2     
  24 C24           10.4755     4.3593     2.8130 C.2     
  25 N25            9.3788     3.6444     2.8904 N.2     
  26 C26            6.2782    -1.5600     5.6043 C.ar    
  27 C27            6.7125    -2.8845     5.5822 C.ar    
  28 C28            5.8698    -3.8913     6.0071 C.ar    
  29 C29            4.5963    -3.5884     6.4543 C.ar    
  30 C30            4.1597    -2.2760     6.4781 C.ar    
  31 C31            4.9957    -1.2603     6.0610 C.ar    
  32 C32           11.2585    -0.1267     6.6295 C.3     
  33 C33           10.6674     5.5790     1.9489 C.3     
  34 N34            2.3525    -0.8942     0.1276 N.3     
  35 H35           -0.4309     1.9596     0.9252 H       
  36 H36           -0.7506    -0.4545     0.6490 H       
  37 H37            0.0139    -0.4351    -0.9991 H       
  38 H38            1.9441     1.4499    -1.0074 H       
  39 H39            1.9889     2.2208     0.6373 H       
  40 H40           -0.5977     3.0718    -1.1727 H       
  41 H41            0.7888     1.0045     2.5028 H       
  42 H42            0.8836    -0.7721     2.5561 H       
  43 H43            2.7868     2.3624     2.6982 H       
  44 H44            5.0816     2.5214     3.5694 H       
  45 H45            5.3096    -1.7578     3.6984 H       
  46 H46            3.0101    -1.8958     2.8358 H       
  47 H47            8.8538    -1.1018     6.3541 H       
  48 H48           12.4389     4.1715     3.8010 H       
  49 H49            7.7064    -3.1222     5.2329 H       
  50 H50            6.2050    -4.9178     5.9901 H       
  51 H51            3.9402    -4.3796     6.7858 H       
  52 H52            3.1642    -2.0454     6.8276 H       
  53 H53            4.6554    -0.2355     6.0842 H       
  54 H54           12.2866     0.1659     6.8429 H       
  55 H55           10.6754    -0.1026     7.5501 H       
  56 H56           11.2460    -1.1358     6.2177 H       
  57 H57           11.0435     5.2763     0.9716 H       
  58 H58            9.7135     6.0923     1.8280 H       
  59 H59           11.3839     6.2504     2.4220 H       
  60 H60            3.2504    -0.7979     0.5779 H       
  61 H61            1.9970    -1.8332     0.2270 H       
@<TRIPOS>BOND
   1    1    2 1
   2    1    4 1
   3    1    5 1
   4    1   35 1
   5    2    3 1
   6    2   36 1
   7    2   37 1
   8    3    4 1
   9    3    6 1
  10    3   34 1
  11    4   38 1
  12    4   39 1
  13    5   40 1
  14    6    7 1
  15    6   41 1
  16    6   42 1
  17    7    8 ar
  18    7   12 ar
  19    8    9 ar
  20    8   43 1
  21    9   10 ar
  22    9   44 1
  23   10   11 ar
  24   10   20 1
  25   11   12 ar
  26   11   45 1
  27   12   46 1
  28   13   14 1
  29   13   22 1
  30   13   25 1
  31   14   15 1
  32   14   23 2
  33   15   16 2
  34   16   17 1
  35   16   32 1
  36   17   18 ar
  37   17   22 ar
  38   18   19 ar
  39   18   47 1
  40   19   20 ar
  41   19   26 1
  42   20   21 ar
  43   21   22 ar
  44   23   24 1
  45   23   48 1
  46   24   25 2
  47   24   33 1
  48   26   27 ar
  49   26   31 ar
  50   27   28 ar
  51   27   49 1
  52   28   29 ar
  53   28   50 1
  54   29   30 ar
  55   29   51 1
  56   30   31 ar
  57   30   52 1
  58   31   53 1
  59   32   54 1
  60   32   55 1
  61   32   56 1
  62   33   57 1
  63   33   58 1
  64   33   59 1
  65   34   60 1
  66   34   61 1

#	End of record

