#	Name: ASD09890087
#	Creating user name:	WinNT
#	Creation time:	15. 06. 2019 21:24

#	Modifying user name:	WinNT
#	Modification time:	15. 06. 2019 21:24

#	Program:	/corina/corina34_cracker 3.40 0067  02.08.2006

@<TRIPOS>MOLECULE
ASD09890087
  45   48    0    0    0
SMALL
NO_CHARGES


@<TRIPOS>ATOM
   1 C1            -0.0176     1.3671     0.0632 C.2     
   2 N2            -0.0054    -0.0002     0.0335 N.pl3   
   3 C3            -1.2996    -0.4352     0.1155 C.2     
   4 N4            -2.0760     0.6192     0.1924 N.2     
   5 N5            -1.2621     1.7591     0.1649 N.2     
   6 S6            -1.8303    -2.1154     0.1170 S.3     
   7 C7            -3.6340    -1.9736     0.2473 C.3     
   8 C8             1.1336    -0.8132    -0.0646 C.ar    
   9 C9             2.0774    -0.8326     0.9581 C.ar    
  10 C10            3.1859    -1.6517     0.8155 C.ar    
  11 C11            3.3174    -2.4165    -0.3283 C.ar    
  12 N12            2.4046    -2.3752    -1.2794 N.ar    
  13 C13            1.3330    -1.6143    -1.1807 C.ar    
  14 C14           -4.2815    -3.3651     0.1369 C.3     
  15 C15           -5.0399    -3.6044     1.4588 C.3     
  16 C16           -5.3174    -2.1802     2.0007 C.3     
  17 C17           -4.0215    -1.4159     1.6325 C.3     
  18 O18            1.0702     2.1752     0.0035 O.3     
  19 C19            0.8650     3.5152    -0.0919 C.ar    
  20 C20           -0.4174     4.0099    -0.2838 C.ar    
  21 C21            1.9364     4.3909     0.0081 C.ar    
  22 C22            1.7256     5.7528    -0.0887 C.ar    
  23 C23            0.4470     6.2436    -0.2848 C.ar    
  24 C24           -0.6238     5.3721    -0.3800 C.ar    
  25 Cl25           0.1847     7.9555    -0.4050 Cl      
  26 C26            2.8891     6.7044     0.0198 C.3     
  27 H27           -4.0147    -1.3211    -0.5385 H       
  28 H28            1.9491    -0.2240     1.8410 H       
  29 H29            3.9386    -1.6918     1.5890 H       
  30 H30            4.1795    -3.0564    -0.4449 H       
  31 H31            0.6072    -1.6070    -1.9805 H       
  32 H32           -4.9771    -3.3877    -0.7020 H       
  33 H33           -3.5119    -4.1256     0.0049 H       
  34 H34           -5.9760    -4.1305     1.2717 H       
  35 H35           -4.4196    -4.1647     2.1584 H       
  36 H36           -6.1808    -1.7389     1.5030 H       
  37 H37           -5.4609    -2.1992     3.0811 H       
  38 H38           -3.2367    -1.6227     2.3601 H       
  39 H39           -4.2144    -0.3448     1.5721 H       
  40 H40           -1.2533     3.3301    -0.3581 H       
  41 H41            2.9345     4.0081     0.1618 H       
  42 H42           -1.6211     5.7572    -0.5330 H       
  43 H43            3.3063     6.8827    -0.9713 H       
  44 H44            2.5481     7.6481     0.4456 H       
  45 H45            3.6543     6.2708     0.6635 H       
@<TRIPOS>BOND
   1    1    2 1
   2    1   18 1
   3    1    5 2
   4    2    3 1
   5    2    8 1
   6    3    4 2
   7    3    6 1
   8    4    5 1
   9    6    7 1
  10    7   14 1
  11    7   17 1
  12    7   27 1
  13    8    9 ar
  14    8   13 ar
  15    9   10 ar
  16    9   28 1
  17   10   11 ar
  18   10   29 1
  19   11   12 ar
  20   11   30 1
  21   12   13 ar
  22   13   31 1
  23   14   15 1
  24   14   32 1
  25   14   33 1
  26   15   16 1
  27   15   34 1
  28   15   35 1
  29   16   17 1
  30   16   36 1
  31   16   37 1
  32   17   38 1
  33   17   39 1
  34   18   19 1
  35   19   20 ar
  36   19   21 ar
  37   20   24 ar
  38   20   40 1
  39   21   22 ar
  40   21   41 1
  41   22   23 ar
  42   22   26 1
  43   23   24 ar
  44   23   25 1
  45   24   42 1
  46   26   43 1
  47   26   44 1
  48   26   45 1

#	End of record

