#	Name: ASD03180073
#	Creating user name:	WinNT
#	Creation time:	15. 06. 2019 20:33

#	Modifying user name:	WinNT
#	Modification time:	15. 06. 2019 20:33

#	Program:	/corina/corina34_cracker 3.40 0067  02.08.2006

@<TRIPOS>MOLECULE
ASD03180073
  33   35    0    0    0
SMALL
NO_CHARGES


@<TRIPOS>ATOM
   1 C1             0.0854     1.2449     0.6920 C.ar    
   2 C2             0.0003     0.0018     0.0936 C.ar    
   3 C3             1.1017    -0.5399    -0.5442 C.ar    
   4 C4             2.2939     0.1633    -0.5851 C.ar    
   5 C5             2.3805     1.4170     0.0176 C.ar    
   6 C6             1.2719     1.9536     0.6557 C.ar    
   7 N7             3.5834     2.1324    -0.0202 N.pl3   
   8 N8             4.6058     4.2849    -0.0416 N.2     
   9 C9             4.3948     5.5956    -0.1585 C.2     
  10 C10            3.5647     3.5146    -0.1176 C.2     
  11 S11            2.1244     4.4969    -0.3644 S.3     
  12 C12            3.1114     5.9562    -0.3427 C.2     
  13 C13            5.4932     6.5839    -0.0899 C.2     
  14 S14            5.3268     8.3324    -0.2302 S.3     
  15 C15            7.0147     8.5189    -0.0338 C.2     
  16 N16            7.5797     7.3682     0.1150 N.2     
  17 C17            6.8016     6.3075     0.0971 C.2     
  18 C18            7.7401     9.8398    -0.0343 C.3     
  19 C19            7.3259     4.9048     0.2657 C.3     
  20 O20            3.3777    -0.3683    -1.2115 O.3     
  21 H21           -0.7783     1.6656     1.1852 H       
  22 H22           -0.9287    -0.5482     0.1244 H       
  23 H23            1.0319    -1.5117    -1.0101 H       
  24 H24            1.3356     2.9248     1.1237 H       
  25 H25            4.4298     1.6605     0.0219 H       
  26 H26            2.7485     6.9670    -0.4570 H       
  27 H27            7.7888    10.2279     0.9831 H       
  28 H28            8.7504     9.6994    -0.4184 H       
  29 H29            7.2056    10.5476    -0.6679 H       
  30 H30            7.5820     4.4928    -0.7104 H       
  31 H31            8.2142     4.9224     0.8972 H       
  32 H32            6.5606     4.2846     0.7324 H       
  33 H33            3.4405    -0.1412    -2.1493 H       
@<TRIPOS>BOND
   1    1    2 ar
   2    1    6 ar
   3    1   21 1
   4    2    3 ar
   5    2   22 1
   6    3    4 ar
   7    3   23 1
   8    4    5 ar
   9    4   20 1
  10    5    6 ar
  11    5    7 1
  12    6   24 1
  13    7   10 1
  14    7   25 1
  15    8   10 2
  16    8    9 1
  17    9   12 2
  18    9   13 1
  19   10   11 1
  20   11   12 1
  21   12   26 1
  22   13   14 1
  23   13   17 2
  24   14   15 1
  25   15   16 2
  26   15   18 1
  27   16   17 1
  28   17   19 1
  29   18   27 1
  30   18   28 1
  31   18   29 1
  32   19   30 1
  33   19   31 1
  34   19   32 1
  35   20   33 1

#	End of record

