#	Name: ASD01940467
#	Creating user name:	WinNT
#	Creation time:	15. 06. 2019 20:12

#	Modifying user name:	WinNT
#	Modification time:	15. 06. 2019 20:12

#	Program:	/corina/corina34_cracker 3.40 0067  02.08.2006

@<TRIPOS>MOLECULE
ASD01940467
  36   35    0    0    0
SMALL
NO_CHARGES


@<TRIPOS>ATOM
   1 N1            -0.0178     1.4588     0.0101 N.3     
   2 O2             0.0021    -0.0041     0.0020 O.3     
   3 C3             0.7493    -0.5811     1.0747 C.3     
   4 C4             0.7016    -2.1066     0.9668 C.3     
   5 C5             1.1914    -2.5354    -0.4178 C.3     
   6 O6            -0.6415    -2.5558     1.1571 O.3     
   7 Si7           -0.7565    -4.0411     1.8209 Si      
   8 C8             0.0868    -5.2819     0.7163 C.3     
   9 C9             0.0648    -4.0393     3.4931 C.3     
  10 C10           -2.5523    -4.4989     2.0116 C.3     
  11 C11           -3.2268    -4.5004     0.6382 C.3     
  12 C12           -2.6601    -5.8923     2.6342 C.3     
  13 C13           -3.2448    -3.4799     2.9187 C.3     
  14 H14            0.9192     1.8332     0.0031 H       
  15 H15           -0.5562     1.8174    -0.7643 H       
  16 H16            1.7847    -0.2451     1.0182 H       
  17 H17            0.3179    -0.2705     2.0263 H       
  18 H18            1.3432    -2.5451     1.7310 H       
  19 H19            1.1573    -3.6222    -0.4947 H       
  20 H20            0.5498    -2.0968    -1.1821 H       
  21 H21            2.2159    -2.1928    -0.5631 H       
  22 H22            1.1374    -5.0141     0.6048 H       
  23 H23            0.0099    -6.2746     1.1599 H       
  24 H24           -0.3938    -5.2830    -0.2621 H       
  25 H25           -0.4286    -3.3134     4.1394 H       
  26 H26           -0.0120    -5.0320     3.9367 H       
  27 H27            1.1155    -3.7715     3.3816 H       
  28 H28           -2.7334    -5.2263    -0.0081 H       
  29 H29           -4.2775    -4.7682     0.7498 H       
  30 H30           -3.1500    -3.5077     0.1946 H       
  31 H31           -2.1796    -5.8912     3.6126 H       
  32 H32           -3.7108    -6.1601     2.7458 H       
  33 H33           -2.1668    -6.6182     1.9879 H       
  34 H34           -3.1680    -2.4872     2.4751 H       
  35 H35           -4.2955    -3.7477     3.0303 H       
  36 H36           -2.7643    -3.4788     3.8971 H       
@<TRIPOS>BOND
   1    1    2 1
   2    1   14 1
   3    1   15 1
   4    2    3 1
   5    3    4 1
   6    3   16 1
   7    3   17 1
   8    4    5 1
   9    4    6 1
  10    4   18 1
  11    5   19 1
  12    5   20 1
  13    5   21 1
  14    6    7 1
  15    7    8 1
  16    7    9 1
  17    7   10 1
  18    8   22 1
  19    8   23 1
  20    8   24 1
  21    9   25 1
  22    9   26 1
  23    9   27 1
  24   10   11 1
  25   10   13 1
  26   10   12 1
  27   11   28 1
  28   11   29 1
  29   11   30 1
  30   12   31 1
  31   12   32 1
  32   12   33 1
  33   13   34 1
  34   13   35 1
  35   13   36 1

#	End of record

