#	Name: ASD00431167
#	Creating user name:	WinNT
#	Creation time:	15. 06. 2019 18:35

#	Modifying user name:	WinNT
#	Modification time:	15. 06. 2019 18:35

#	Program:	/corina/corina34_cracker 3.40 0067  02.08.2006

@<TRIPOS>MOLECULE
ASD00431167
  47   49    0    0    0
SMALL
NO_CHARGES


@<TRIPOS>ATOM
   1 N1             0.4810     1.3155    -0.0711 N.am    
   2 C2             0.4917    -0.0323    -0.0682 C.2     
   3 O3             1.5460    -0.6317     0.0180 O.2     
   4 N4            -0.6664    -0.7155    -0.1607 N.am    
   5 C5             1.7398     2.0581     0.0295 C.3     
   6 C6             2.3573     2.2061    -1.3625 C.3     
   7 O7             0.4299     4.2202     0.3302 O.3     
   8 N8             0.4790     5.2593     0.9464 N.2     
   9 C9             1.5434     5.3097     1.7141 C.2     
  10 C10            2.2366     4.0814     1.5075 C.2     
  11 C11            1.4725     3.4237     0.6082 C.2     
  12 S12            3.3775     6.4566     3.6284 S.3     
  13 C13            2.9434     8.0097     4.1954 C.2     
  14 N14            1.8349     8.3976     3.6435 N.2     
  15 C15            1.2693     7.5721     2.7898 C.2     
  16 C16            1.9413     6.4144     2.6088 C.2     
  17 O17            3.6550     8.7323     5.0928 O.3     
  18 C18            3.2358     9.9953     5.3714 C.ar    
  19 C19            2.0344    10.1969     6.0351 C.ar    
  20 C20            1.6088    11.4799     6.3185 C.ar    
  21 C21            2.3827    12.5669     5.9395 C.ar    
  22 C22            3.5838    12.3655     5.2755 C.ar    
  23 C23            4.0122    11.0823     4.9971 C.ar    
  24 O24            1.9637    13.8300     6.2186 O.3     
  25 C25            2.8470    14.8982     5.8710 C.3     
  26 C26            2.0458    16.1924     5.7154 C.3     
  27 C27            3.8923    15.0750     6.9742 C.3     
  28 Cl28          -0.2144     7.9388     1.9665 Cl      
  29 H29           -0.3598     1.7937    -0.1438 H       
  30 H30           -1.5075    -0.2373    -0.2295 H       
  31 H31           -0.6587    -1.6855    -0.1586 H       
  32 H32            2.4298     1.5176     0.6775 H       
  33 H33            3.2939     2.7587    -1.2876 H       
  34 H34            2.5506     1.2184    -1.7810 H       
  35 H35            1.6673     2.7466    -2.0104 H       
  36 H36            3.1588     3.7529     1.9637 H       
  37 H37            1.4316     9.3506     6.3298 H       
  38 H38            0.6733    11.6369     6.8348 H       
  39 H39            4.1861    13.2119     4.9802 H       
  40 H40            4.9495    10.9253     4.4840 H       
  41 H41            3.3468    14.6651     4.9309 H       
  42 H42            1.5460    16.4255     6.6556 H       
  43 H43            2.7196    17.0071     5.4503 H       
  44 H44            1.3011    16.0664     4.9295 H       
  45 H45            4.4631    14.1530     7.0850 H       
  46 H46            4.5661    15.8898     6.7091 H       
  47 H47            3.3925    15.3082     7.9144 H       
@<TRIPOS>BOND
   1    1    2 am
   2    1    5 1
   3    1   29 1
   4    2    3 2
   5    2    4 am
   6    4   30 1
   7    4   31 1
   8    5    6 1
   9    5   11 1
  10    5   32 1
  11    6   33 1
  12    6   34 1
  13    6   35 1
  14    7    8 1
  15    7   11 1
  16    8    9 2
  17    9   10 1
  18    9   16 1
  19   10   11 2
  20   10   36 1
  21   12   13 1
  22   12   16 1
  23   13   14 2
  24   13   17 1
  25   14   15 1
  26   15   16 2
  27   15   28 1
  28   17   18 1
  29   18   19 ar
  30   18   23 ar
  31   19   20 ar
  32   19   37 1
  33   20   21 ar
  34   20   38 1
  35   21   22 ar
  36   21   24 1
  37   22   23 ar
  38   22   39 1
  39   23   40 1
  40   24   25 1
  41   25   26 1
  42   25   27 1
  43   25   41 1
  44   26   42 1
  45   26   43 1
  46   26   44 1
  47   27   45 1
  48   27   46 1
  49   27   47 1

#	End of record

