#	Name: ASD07300487
#	Creating user name:	WinNT
#	Creation time:	15. 06. 2019 21:09

#	Modifying user name:	WinNT
#	Modification time:	15. 06. 2019 21:09

#	Program:	/corina/corina34_cracker 3.40 0067  02.08.2006

@<TRIPOS>MOLECULE
ASD07300487
  50   52    0    0    0
SMALL
NO_CHARGES


@<TRIPOS>ATOM
   1 C1             0.7154     1.8292     0.7633 C.ar    
   2 C2             0.9384     0.4566     0.7601 C.ar    
   3 C3             2.1795    -0.0468     1.0810 C.ar    
   4 C4             3.1906     0.8509     1.4046 C.ar    
   5 C5             2.9114     2.2032     1.3913 C.ar    
   6 N6             1.7126     2.6507     1.0790 N.ar    
   7 N7            -0.6054     2.0997     0.4156 N.am    
   8 C8            -0.3689    -0.1887     0.3667 C.3     
   9 C9            -1.3095     0.9819     0.1712 C.2     
  10 O10           -2.4773     0.9218    -0.1503 O.2     
  11 C11           -0.2070    -0.9802    -0.9326 C.3     
  12 C12           -0.8790    -1.0951     1.4889 C.3     
  13 C13           -1.1404     3.3929     0.3304 C.ar    
  14 C14           -0.3400     4.4949     0.6002 C.ar    
  15 C15           -0.8673     5.7681     0.5157 C.ar    
  16 C16           -2.1968     5.9466     0.1613 C.ar    
  17 C17           -2.9972     4.8457    -0.1081 C.ar    
  18 C18           -2.4694     3.5723    -0.0294 C.ar    
  19 O19           -2.7155     7.2006     0.0782 O.3     
  20 C20           -2.4009     7.9475    -1.0048 C.2     
  21 N21           -1.7098     7.5265    -2.0321 N.2     
  22 C22           -1.5792     8.5316    -2.9373 C.ar    
  23 C23           -2.2471     9.6499    -2.4108 C.ar    
  24 N24           -2.7625     9.2499    -1.1898 N.pl3   
  25 C25           -0.9533     8.6277    -4.1822 C.ar    
  26 C26           -0.9967     9.8142    -4.8797 C.ar    
  27 C27           -1.6574    10.9151    -4.3555 C.ar    
  28 C28           -2.2804    10.8367    -3.1269 C.ar    
  29 H29            2.3625    -1.1111     1.0817 H       
  30 H30            4.1777     0.4966     1.6624 H       
  31 H31            3.6910     2.9075     1.6414 H       
  32 H32            0.5436    -1.7581    -0.7930 H       
  33 H33           -1.1594    -1.4379    -1.2002 H       
  34 H34            0.1100    -0.3083    -1.7302 H       
  35 H35           -1.0337    -0.5039     2.3914 H       
  36 H36           -1.8218    -1.5512     1.1872 H       
  37 H37           -0.1447    -1.8758     1.6874 H       
  38 H38            0.6948     4.3561     0.8765 H       
  39 H39           -0.2448     6.6253     0.7260 H       
  40 H40           -4.0322     4.9852    -0.3833 H       
  41 H41           -3.0913     2.7157    -0.2438 H       
  42 H42           -3.2824     9.7948    -0.5786 H       
  43 H43           -0.4367     7.7744    -4.5963 H       
  44 H44           -0.5123     9.8882    -5.8421 H       
  45 H45           -1.6841    11.8400    -4.9125 H       
  46 H46           -2.7932    11.6977    -2.7242 H       
  47 Cl47           9.1777    16.8400     7.3914 Cl      
  48 H48            9.1777    18.2100     7.3914 H       
  49 Cl49          14.1777    23.2100    12.3914 Cl      
  50 H50           14.1777    24.5800    12.3914 H       
@<TRIPOS>BOND
   1    1    2 ar
   2    1    6 ar
   3    1    7 1
   4    2    3 ar
   5    2    8 1
   6    3    4 ar
   7    3   29 1
   8    4    5 ar
   9    4   30 1
  10    5    6 ar
  11    5   31 1
  12    7    9 am
  13    7   13 1
  14    8    9 1
  15    8   11 1
  16    8   12 1
  17    9   10 2
  18   11   32 1
  19   11   33 1
  20   11   34 1
  21   12   35 1
  22   12   36 1
  23   12   37 1
  24   13   14 ar
  25   13   18 ar
  26   14   15 ar
  27   14   38 1
  28   15   16 ar
  29   15   39 1
  30   16   17 ar
  31   16   19 1
  32   17   18 ar
  33   17   40 1
  34   18   41 1
  35   19   20 1
  36   20   21 2
  37   20   24 1
  38   21   22 1
  39   22   23 ar
  40   22   25 ar
  41   23   24 1
  42   23   28 ar
  43   24   42 1
  44   25   26 ar
  45   25   43 1
  46   26   27 ar
  47   26   44 1
  48   27   28 ar
  49   27   45 1
  50   28   46 1
  51   47   48 1
  52   49   50 1

#	End of record

