#	Name: ASD00311044
#	Creating user name:	WinNT
#	Creation time:	15. 06. 2019 18:34

#	Modifying user name:	WinNT
#	Modification time:	15. 06. 2019 18:34

#	Program:	/corina/corina34_cracker 3.40 0067  02.08.2006

@<TRIPOS>MOLECULE
ASD00311044
  40   43    0    0    0
SMALL
NO_CHARGES


@<TRIPOS>ATOM
   1 C1            -0.0167     1.3773     0.0096 C.2     
   2 C2             0.0021    -0.0041     0.0020 C.2     
   3 C3             1.2588    -0.6767    -0.0131 C.2     
   4 C4             2.4314     0.0668    -0.0199 C.2     
   5 C5             2.3576     1.4746    -0.0117 C.2     
   6 N6             1.1651     2.0899     0.0022 N.am    
   7 C7            -1.3434    -0.5755     0.0118 C.2     
   8 C8            -2.3233     0.3267     0.0260 C.2     
   9 S9            -1.6791     1.9564     0.0358 S.3     
  10 O10            3.3826     2.1366    -0.0171 O.2     
  11 C11           -1.5959    -2.0355     0.0064 C.ar    
  12 C12           -2.2071    -2.6443     1.1021 C.ar    
  13 C13           -2.4396    -4.0044     1.0912 C.ar    
  14 C14           -2.0677    -4.7638    -0.0038 C.ar    
  15 C15           -1.4611    -4.1655    -1.0937 C.ar    
  16 C16           -1.2286    -2.8053    -1.0969 C.ar    
  17 C17            3.7477    -0.6128    -0.0352 C.ar    
  18 C18            4.5263    -0.6629     1.1263 C.ar    
  19 C19            5.7549    -1.3005     1.1031 C.ar    
  20 C20            6.2102    -1.8857    -0.0646 C.ar    
  21 C21            5.4434    -1.8377    -1.2147 C.ar    
  22 C22            4.2135    -1.2101    -1.2046 C.ar    
  23 O23            4.0783    -0.0873     2.2731 O.3     
  24 C24            4.9271    -0.1781     3.4191 C.3     
  25 O25            1.3086    -2.0296    -0.0204 O.3     
  26 Cl26          -4.0154    -0.0609     0.0400 Cl      
  27 H27            1.1330     3.0593     0.0077 H       
  28 H28           -2.4974    -2.0525     1.9576 H       
  29 H29           -2.9125    -4.4771     1.9393 H       
  30 H30           -2.2514    -5.8280    -0.0076 H       
  31 H31           -1.1727    -4.7635    -1.9455 H       
  32 H32           -0.7590    -2.3387    -1.9502 H       
  33 H33            6.3587    -1.3408     1.9976 H       
  34 H34            7.1692    -2.3821    -0.0785 H       
  35 H35            5.8060    -2.2963    -2.1228 H       
  36 H36            3.6153    -1.1784    -2.1033 H       
  37 H37            5.0957    -1.2267     3.6643 H       
  38 H38            5.8813     0.3026     3.2035 H       
  39 H39            4.4517     0.3206     4.2638 H       
  40 H40            2.2058    -2.3901    -0.0307 H       
@<TRIPOS>BOND
   1    1    2 2
   2    1    6 1
   3    1    9 1
   4    2    3 1
   5    2    7 1
   6    3    4 2
   7    3   25 1
   8    4    5 1
   9    4   17 1
  10    5    6 am
  11    5   10 2
  12    6   27 1
  13    7    8 2
  14    7   11 1
  15    8    9 1
  16    8   26 1
  17   11   12 ar
  18   11   16 ar
  19   12   13 ar
  20   12   28 1
  21   13   14 ar
  22   13   29 1
  23   14   15 ar
  24   14   30 1
  25   15   16 ar
  26   15   31 1
  27   16   32 1
  28   17   18 ar
  29   17   22 ar
  30   18   19 ar
  31   18   23 1
  32   19   20 ar
  33   19   33 1
  34   20   21 ar
  35   20   34 1
  36   21   22 ar
  37   21   35 1
  38   22   36 1
  39   23   24 1
  40   24   37 1
  41   24   38 1
  42   24   39 1
  43   25   40 1

#	End of record

