#	Name: ASD03740084
#	Creating user name:	WinNT
#	Creation time:	15. 06. 2019 20:46

#	Modifying user name:	WinNT
#	Modification time:	15. 06. 2019 20:46

#	Program:	/corina/corina34_cracker 3.40 0067  02.08.2006

@<TRIPOS>MOLECULE
ASD03740084
  29   31    0    0    0
SMALL
NO_CHARGES


@<TRIPOS>ATOM
   1 C1            -0.0167     1.3815     0.0096 C.ar    
   2 C2             0.0021    -0.0041     0.0020 C.ar    
   3 C3             1.2003    -0.6897    -0.0132 C.ar    
   4 C4             2.3987     0.0098    -0.0209 C.ar    
   5 C5             2.3803     1.4148    -0.0132 C.ar    
   6 C6             1.1644     2.0940     0.0022 C.ar    
   7 N7             3.7265    -0.3879    -0.0358 N.pl3   
   8 N8             4.5509     0.7417    -0.0376 N.am    
   9 C9             3.7874     1.8530    -0.0243 C.2     
  10 C10            4.1938    -1.7764    -0.0477 C.3     
  11 C11            4.3404    -2.2448    -1.4725 C.ar    
  12 C12            5.4625    -1.8973    -2.2030 C.ar    
  13 C13            5.5966    -2.3282    -3.5111 C.ar    
  14 C14            4.6096    -3.1054    -4.0869 C.ar    
  15 C15            3.4883    -3.4524    -3.3562 C.ar    
  16 C16            3.3562    -3.0267    -2.0479 C.ar    
  17 O17            4.1854     3.0020    -0.0219 O.2     
  18 Cl18           6.7017    -0.9204    -1.4792 Cl      
  19 H19           -0.9607     1.9061     0.0170 H       
  20 H20           -0.9285    -0.5522     0.0084 H       
  21 H21            1.2050    -1.7697    -0.0186 H       
  22 H22            1.1464     3.1738     0.0078 H       
  23 H23            5.5207     0.7279    -0.0470 H       
  24 H24            5.1581    -1.8395     0.4566 H       
  25 H25            3.4711    -2.4074     0.4697 H       
  26 H26            6.4723    -2.0569    -4.0820 H       
  27 H27            4.7141    -3.4415    -5.1079 H       
  28 H28            2.7171    -4.0595    -3.8068 H       
  29 H29            2.4803    -3.2983    -1.4776 H       
@<TRIPOS>BOND
   1    1    2 ar
   2    1    6 ar
   3    1   19 1
   4    2    3 ar
   5    2   20 1
   6    3    4 ar
   7    3   21 1
   8    4    5 ar
   9    4    7 1
  10    5    6 ar
  11    5    9 1
  12    6   22 1
  13    7    8 1
  14    7   10 1
  15    8    9 am
  16    8   23 1
  17    9   17 2
  18   10   11 1
  19   10   24 1
  20   10   25 1
  21   11   12 ar
  22   11   16 ar
  23   12   13 ar
  24   12   18 1
  25   13   14 ar
  26   13   26 1
  27   14   15 ar
  28   14   27 1
  29   15   16 ar
  30   15   28 1
  31   16   29 1

#	End of record

