#	Name: ASD00170268
#	Creating user name:	WinNT
#	Creation time:	15. 06. 2019 18:31

#	Modifying user name:	WinNT
#	Modification time:	15. 06. 2019 18:31

#	Program:	/corina/corina34_cracker 3.40 0067  02.08.2006

@<TRIPOS>MOLECULE
ASD00170268
  34   37    0    0    0
SMALL
NO_CHARGES


@<TRIPOS>ATOM
   1 C1            -0.6120     0.3863     1.1735 C.2     
   2 C2             0.0023    -0.0034     0.0121 C.2     
   3 C3            -0.6920     0.4390    -1.1936 C.ar    
   4 C4            -1.8441     1.1712    -0.9030 C.ar    
   5 S5            -2.0670     1.3026     0.8347 S.3     
   6 C6            -0.3686     0.2336    -2.5515 C.ar    
   7 C7            -1.1803     0.7495    -3.5176 C.ar    
   8 N8            -2.2642     1.4389    -3.2066 N.ar    
   9 C9            -2.6140     1.6615    -1.9580 C.ar    
  10 N10           -0.1520     0.0928     2.4347 N.pl3   
  11 C11            1.1983    -0.7632    -0.0159 C.2     
  12 C12            2.5023    -0.0826    -0.1387 C.ar    
  13 O13            1.1501    -1.9784     0.0616 O.2     
  14 C14            3.7078    -0.8224    -0.0506 C.ar    
  15 C15            4.9458    -0.1459    -0.1724 C.ar    
  16 C16            4.9583     1.2445    -0.3775 C.ar    
  17 C17            3.7856     1.9345    -0.4578 C.ar    
  18 C18            2.5615     1.2872    -0.3475 C.ar    
  19 C19            3.6968    -2.2087     0.1548 C.ar    
  20 C20            4.8750    -2.8884     0.2349 C.ar    
  21 C21            6.0940    -2.2249     0.1159 C.ar    
  22 C22            6.1420    -0.8793    -0.0851 C.ar    
  23 H23            0.5138    -0.3268    -2.8229 H       
  24 H24           -0.9327     0.5923    -4.5570 H       
  25 H25           -3.5078     2.2299    -1.7474 H       
  26 H26            0.6193    -0.4845     2.5474 H       
  27 H27           -0.5985     0.4630     3.2121 H       
  28 H28            5.8987     1.7672    -0.4712 H       
  29 H29            3.8085     3.0027    -0.6153 H       
  30 H30            1.6470     1.8577    -0.4152 H       
  31 H31            2.7588    -2.7357     0.2496 H       
  32 H32            4.8636    -3.9567     0.3933 H       
  33 H33            7.0142    -2.7860     0.1836 H       
  34 H34            7.0941    -0.3776    -0.1756 H       
@<TRIPOS>BOND
   1    1    2 2
   2    1   10 1
   3    1    5 1
   4    2    3 1
   5    2   11 1
   6    3    4 ar
   7    3    6 ar
   8    4    5 1
   9    4    9 ar
  10    6    7 ar
  11    6   23 1
  12    7    8 ar
  13    7   24 1
  14    8    9 ar
  15    9   25 1
  16   10   26 1
  17   10   27 1
  18   11   12 1
  19   11   13 2
  20   12   14 ar
  21   12   18 ar
  22   14   15 ar
  23   14   19 ar
  24   15   16 ar
  25   15   22 ar
  26   16   17 ar
  27   16   28 1
  28   17   18 ar
  29   17   29 1
  30   18   30 1
  31   19   20 ar
  32   19   31 1
  33   20   21 ar
  34   20   32 1
  35   21   22 ar
  36   21   33 1
  37   22   34 1

#	End of record

