#	Name: ASD08710017
#	Creating user name:	WinNT
#	Creation time:	15. 06. 2019 21:19

#	Modifying user name:	WinNT
#	Modification time:	15. 06. 2019 21:19

#	Program:	/corina/corina34_cracker 3.40 0067  02.08.2006

@<TRIPOS>MOLECULE
ASD08710017
  46   48    0    0    0
SMALL
NO_CHARGES


@<TRIPOS>ATOM
   1 C1            -0.8699    -0.2463    -1.4198 C.ar    
   2 C2            -0.6170    -1.5676    -1.1020 C.ar    
   3 C3             0.1796     0.6386    -1.5822 C.ar    
   4 C4             1.4820     0.2021    -1.4269 C.ar    
   5 C5             1.7349    -1.1191    -1.1086 C.ar    
   6 C6             0.6854    -2.0041    -0.9466 C.ar    
   7 S7             1.0077    -3.6881    -0.5404 S.o2    
   8 O8            -0.1241    -4.4293    -0.9748 O.2     
   9 O9             2.3310    -3.9608    -0.9805 O.2     
  10 N10            1.0324    -3.7977     1.1118 N.am    
  11 C11           -0.1991    -4.0844     1.8609 C.3     
  12 C12            2.2874    -3.6161     1.8548 C.3     
  13 C13            2.5194    -4.8511     2.7341 C.3     
  14 N14            1.2869    -5.1323     3.4836 N.am    
  15 C15            0.0382    -5.3184     2.7402 C.3     
  16 C16           -0.0961     2.0790    -1.9292 C.3     
  17 F17           -0.2348     2.8236    -0.7530 F       
  18 F18            0.9674     2.5892    -2.6815 F       
  19 F19           -1.2767     2.1612    -2.6751 F       
  20 C20            1.3071    -5.2224     4.8282 C.2     
  21 O21            2.3666    -5.1987     5.4228 O.2     
  22 C22            0.0376    -5.3503     5.5813 C.ar    
  23 C23            0.0507    -5.8691     6.8737 C.ar    
  24 C24           -1.1450    -5.9823     7.5661 C.ar    
  25 C25           -2.3120    -5.5724     6.9411 C.ar    
  26 C26           -2.2507    -5.0654     5.6526 C.ar    
  27 N27           -1.1021    -4.9644     5.0206 N.ar    
  28 C28           -3.5171    -4.6184     4.9688 C.3     
  29 H29           -1.8872     0.0937    -1.5456 H       
  30 H30           -1.4370    -2.2589    -0.9747 H       
  31 H31            2.3020     0.8933    -1.5545 H       
  32 H32            2.7525    -1.4603    -0.9880 H       
  33 H33           -0.4521    -3.2305     2.4894 H       
  34 H34           -1.0133    -4.2828     1.1640 H       
  35 H35            3.1147    -3.5054     1.1539 H       
  36 H36            2.2154    -2.7282     2.4828 H       
  37 H37            2.7684    -5.7062     2.1056 H       
  38 H38            3.3347    -4.6563     3.4307 H       
  39 H39           -0.7908    -5.4285     3.4393 H       
  40 H40            0.1137    -6.2083     2.1153 H       
  41 H41            0.9792    -6.1792     7.3300 H       
  42 H42           -1.1665    -6.3811     8.5695 H       
  43 H43           -3.2601    -5.6477     7.4530 H       
  44 H44           -3.6928    -3.5641     5.1826 H       
  45 H45           -3.4180    -4.7593     3.8925 H       
  46 H46           -4.3564    -5.2085     5.3367 H       
@<TRIPOS>BOND
   1    1    2 ar
   2    1    3 ar
   3    1   29 1
   4    2    6 ar
   5    2   30 1
   6    3    4 ar
   7    3   16 1
   8    4    5 ar
   9    4   31 1
  10    5    6 ar
  11    5   32 1
  12    6    7 1
  13    7    8 2
  14    7    9 2
  15    7   10 am
  16   10   11 1
  17   10   12 1
  18   11   15 1
  19   11   33 1
  20   11   34 1
  21   12   13 1
  22   12   35 1
  23   12   36 1
  24   13   14 1
  25   13   37 1
  26   13   38 1
  27   14   15 1
  28   14   20 am
  29   15   39 1
  30   15   40 1
  31   16   17 1
  32   16   18 1
  33   16   19 1
  34   20   21 2
  35   20   22 1
  36   22   23 ar
  37   22   27 ar
  38   23   24 ar
  39   23   41 1
  40   24   25 ar
  41   24   42 1
  42   25   26 ar
  43   25   43 1
  44   26   27 ar
  45   26   28 1
  46   28   44 1
  47   28   45 1
  48   28   46 1

#	End of record

