#	Name: ASD06390033
#	Creating user name:	WinNT
#	Creation time:	15. 06. 2019 21:06

#	Modifying user name:	WinNT
#	Modification time:	15. 06. 2019 21:06

#	Program:	/corina/corina34_cracker 3.40 0067  02.08.2006

@<TRIPOS>MOLECULE
ASD06390033
  64   67    0    0    0
SMALL
NO_CHARGES


@<TRIPOS>ATOM
   1 C1             0.0043     1.3748     0.0791 C.ar    
   2 C2             0.0249    -0.0083     0.0726 C.ar    
   3 C3             1.2293    -0.6877     0.0503 C.ar    
   4 C4             2.4205     0.0134     0.0343 C.ar    
   5 C5             2.4046     1.4094     0.0403 C.ar    
   6 C6             1.1870     2.0864     0.0629 C.ar    
   7 F7             3.5970    -0.6505     0.0135 F       
   8 C8             3.6783     2.1686     0.0238 C.ar    
   9 C9             4.2542     2.5349    -1.2023 C.ar    
  10 C10            4.2876     2.5157     1.2201 C.ar    
  11 C11            5.4908     3.2335     1.1959 C.ar    
  12 C12            6.0630     3.5915    -0.0492 C.ar    
  13 C13            5.4235     3.2328    -1.2422 C.ar    
  14 Cl14           3.4678     2.0930    -2.6856 Cl      
  15 N15            6.1210     3.5945     2.3251 N.ar    
  16 C16            7.2522     4.2703     2.2716 C.ar    
  17 N17            7.8235     4.6264     1.1242 N.ar    
  18 C18            7.2800     4.3177    -0.0438 C.ar    
  19 N19            7.8839     4.6932    -1.2253 N.3     
  20 C20            9.3312     4.8685    -1.0444 C.3     
  21 C21            9.9880     5.1061    -2.4083 C.3     
  22 N22            9.3032     6.2285    -3.0674 N.am    
  23 C23            7.8362     6.1887    -3.1640 C.3     
  24 C24            7.2640     5.9084    -1.7703 C.3     
  25 C25           10.0016     7.2659    -3.5700 C.2     
  26 O26           11.2033     7.3316    -3.3952 O.2     
  27 C27            9.3103     8.3188    -4.3299 C.2     
  28 C28            9.9795     9.3937    -4.7366 C.2     
  29 N29            7.8703     4.6238     3.4580 N.pl3   
  30 C30            7.2670     4.2474     4.7388 C.3     
  31 C31            8.1439     4.7560     5.8847 C.3     
  32 C32            7.5233     4.3687     7.2023 C.2     
  33 O33            6.4821     3.7471     7.2227 O.2     
  34 N34            8.1253     4.7131     8.3579 N.am    
  35 C35            7.5220     4.3366     9.6387 C.3     
  36 C36            9.3830     5.4639     8.3332 C.3     
  37 F37            3.7262     2.1655     2.3980 F       
  38 H38           -0.9396     1.8993     0.0924 H       
  39 H39           -0.9035    -0.5599     0.0854 H       
  40 H40            1.2392    -1.7677     0.0457 H       
  41 H41            1.1685     3.1662     0.0673 H       
  42 H42            5.8589     3.5048    -2.1923 H       
  43 H43            9.5156     5.7261    -0.3975 H       
  44 H44            9.7520     3.9719    -0.5893 H       
  45 H45           11.0413     5.3501    -2.2699 H       
  46 H46            9.8944     4.2094    -3.0210 H       
  47 H47            7.4668     7.1484    -3.5252 H       
  48 H48            7.5357     5.3961    -3.8493 H       
  49 H49            6.1857     5.7660    -1.8417 H       
  50 H50            7.4773     6.7516    -1.1133 H       
  51 H51            8.2593     8.2188    -4.5576 H       
  52 H52            9.4719    10.1667    -5.2945 H       
  53 H53           11.0305     9.4937    -4.5089 H       
  54 H54            8.7030     5.1210     3.4417 H       
  55 H55            6.2741     4.6903     4.8169 H       
  56 H56            7.1862     3.1619     4.7973 H       
  57 H57            9.1368     4.3130     5.8066 H       
  58 H58            8.2247     5.8414     5.8263 H       
  59 H59            7.4412     3.2511     9.6972 H       
  60 H60            8.1468     4.6989    10.4551 H       
  61 H61            6.5292     4.7795     9.7168 H       
  62 H62            9.1684     6.5326     8.3384 H       
  63 H63            9.9762     5.2082     9.2112 H       
  64 H64            9.9404     5.2097     7.4316 H       
@<TRIPOS>BOND
   1    1    2 ar
   2    1    6 ar
   3    1   38 1
   4    2    3 ar
   5    2   39 1
   6    3    4 ar
   7    3   40 1
   8    4    5 ar
   9    4    7 1
  10    5    6 ar
  11    5    8 1
  12    6   41 1
  13    8   10 ar
  14    8    9 ar
  15    9   14 1
  16    9   13 ar
  17   10   11 ar
  18   10   37 1
  19   11   12 ar
  20   11   15 ar
  21   12   13 ar
  22   12   18 ar
  23   13   42 1
  24   15   16 ar
  25   16   17 ar
  26   16   29 1
  27   17   18 ar
  28   18   19 1
  29   19   20 1
  30   19   24 1
  31   20   21 1
  32   20   43 1
  33   20   44 1
  34   21   22 1
  35   21   45 1
  36   21   46 1
  37   22   23 1
  38   22   25 am
  39   23   24 1
  40   23   47 1
  41   23   48 1
  42   24   49 1
  43   24   50 1
  44   25   26 2
  45   25   27 1
  46   27   28 2
  47   27   51 1
  48   28   52 1
  49   28   53 1
  50   29   30 1
  51   29   54 1
  52   30   31 1
  53   30   55 1
  54   30   56 1
  55   31   32 1
  56   31   57 1
  57   31   58 1
  58   32   33 2
  59   32   34 am
  60   34   35 1
  61   34   36 1
  62   35   59 1
  63   35   60 1
  64   35   61 1
  65   36   62 1
  66   36   63 1
  67   36   64 1

#	End of record

