#	Name: ASD03930152
#	Creating user name:	WinNT
#	Creation time:	15. 06. 2019 20:47

#	Modifying user name:	WinNT
#	Modification time:	15. 06. 2019 20:47

#	Program:	/corina/corina34_cracker 3.40 0067  02.08.2006

@<TRIPOS>MOLECULE
ASD03930152
  38   40    0    0    0
SMALL
NO_CHARGES


@<TRIPOS>ATOM
   1 C1            -0.0173     1.4248     0.0099 C.3     
   2 O2             0.0021    -0.0041     0.0020 O.3     
   3 N3             3.5775     2.0363    -0.0219 N.pl3   
   4 N4             3.0843     3.3474    -0.0099 N.2     
   5 C5             1.7771     3.2923     0.0028 C.2     
   6 C6             1.3965     1.9464    -0.0008 C.2     
   7 C7             2.5221     1.1954    -0.0161 C.2     
   8 C8             0.8430     4.4747     0.0189 C.3     
   9 F9             1.5837     5.6559    -0.0970 F       
  10 F10           -0.0508     4.3776    -1.0530 F       
  11 F11            0.1288     4.4884     1.2218 F       
  12 C12            4.9896     1.6469    -0.0435 C.3     
  13 C13            7.6697     4.3753    -4.3649 C.3     
  14 C14            7.6889     5.7889    -3.7454 C.3     
  15 C15            7.5939     5.4895    -2.2343 C.3     
  16 C16            6.8882     4.1539    -2.1386 C.ar    
  17 C17            6.2581     3.5465    -1.0652 C.ar    
  18 C18            5.6741     2.3039    -1.2143 C.ar    
  19 C19            5.7177     1.6636    -2.4388 C.ar    
  20 C20            6.3451     2.2678    -3.5105 C.ar    
  21 C21            6.9317     3.5137    -3.3628 C.ar    
  22 N22            8.9452     6.4810    -4.0627 N.3     
  23 H23           -0.5445     1.7859    -0.8732 H       
  24 H24           -0.5275     1.7763     0.9067 H       
  25 H25           -0.8759    -0.4094     0.0082 H       
  26 H26            2.5676     0.1164    -0.0224 H       
  27 H27            5.4684     1.9650     0.8826 H       
  28 H28            5.0664     0.5638    -0.1387 H       
  29 H29            7.1391     4.3868    -5.3170 H       
  30 H30            8.6869     4.0087    -4.5023 H       
  31 H31            6.8298     6.3703    -4.0800 H       
  32 H32            8.5908     5.4226    -1.7985 H       
  33 H33            7.0116     6.2618    -1.7316 H       
  34 H34            6.2243     4.0458    -0.1081 H       
  35 H35            5.2618     0.6917    -2.5571 H       
  36 H36            6.3787     1.7669    -4.4667 H       
  37 H37            9.0524     6.5972    -5.0592 H       
  38 H38            8.9987     7.3693    -3.5872 H       
@<TRIPOS>BOND
   1    1    2 1
   2    1    6 1
   3    1   23 1
   4    1   24 1
   5    2   25 1
   6    3    4 1
   7    3    7 1
   8    3   12 1
   9    4    5 2
  10    5    6 1
  11    5    8 1
  12    6    7 2
  13    7   26 1
  14    8    9 1
  15    8   10 1
  16    8   11 1
  17   12   18 1
  18   12   27 1
  19   12   28 1
  20   13   14 1
  21   13   21 1
  22   13   29 1
  23   13   30 1
  24   14   15 1
  25   14   22 1
  26   14   31 1
  27   15   16 1
  28   15   32 1
  29   15   33 1
  30   16   17 ar
  31   16   21 ar
  32   17   18 ar
  33   17   34 1
  34   18   19 ar
  35   19   20 ar
  36   19   35 1
  37   20   21 ar
  38   20   36 1
  39   22   37 1
  40   22   38 1

#	End of record

