#	Name: ASD01811510
#	Creating user name:	WinNT
#	Creation time:	15. 06. 2019 19:26

#	Modifying user name:	WinNT
#	Modification time:	15. 06. 2019 19:26

#	Program:	/corina/corina34_cracker 3.40 0067  02.08.2006

@<TRIPOS>MOLECULE
ASD01811510
  64   68    0    0    0
SMALL
NO_CHARGES


@<TRIPOS>ATOM
   1 C1            -7.6536     2.4749    -4.1275 C.1     
   2 C2            -6.6437     3.2270    -3.4456 C.ar    
   3 C3            -5.4798     2.5965    -3.0012 C.ar    
   4 C4            -4.5110     3.3270    -2.3449 C.ar    
   5 C5            -4.6908     4.6813    -2.1262 C.ar    
   6 C6            -5.8419     5.3124    -2.5634 C.ar    
   7 C7            -6.8158     4.5953    -3.2270 C.ar    
   8 N8            -8.4548     1.8783    -4.6685 N.1     
   9 N9            -2.5315     7.8382    -0.3120 N.am    
  10 C10           -2.0123     7.3675    -1.6033 C.3     
  11 C11           -3.1163     6.5870    -2.3237 C.3     
  12 C12           -3.6282     5.4727    -1.4081 C.3     
  13 C13           -4.2207     6.0860    -0.1373 C.3     
  14 C14           -3.1293     6.8608     0.6078 C.3     
  15 C15           -2.4557     9.1410     0.0248 C.2     
  16 C16           -3.0587     9.6140     1.2894 C.ar    
  17 C17           -3.9984    10.6474     1.2733 C.ar    
  18 C18           -4.5622    11.0900     2.4531 C.ar    
  19 C19           -4.2014    10.5156     3.6562 C.ar    
  20 C20           -3.2634     9.4820     3.6864 C.ar    
  21 C21           -2.6951     9.0262     2.4990 C.ar    
  22 O22           -1.8917     9.9272    -0.7109 O.2     
  23 C23           -2.8779     8.8683     4.9760 C.2     
  24 N24           -3.4179     9.1344     6.1485 N.2     
  25 C25           -2.8190     8.3939     7.0794 C.2     
  26 C26           -1.8771     7.6387     6.4829 C.2     
  27 N27           -1.9045     7.9239     5.1536 N.pl3   
  28 O28           -3.5712     7.0450     8.8837 O.3     
  29 C29           -3.1061     8.3661     8.5708 C.3     
  30 C30           -0.9813     6.6577     7.2145 C.3     
  31 C31           -1.8973     5.5672     7.7980 C.3     
  32 C32           -2.5760     6.0641     9.0542 C.3     
  33 C33           -4.8214    11.0059     4.9393 C.3     
  34 C34           -4.3973    11.2807    -0.0347 C.3     
  35 H35           -5.3385     1.5392    -3.1707 H       
  36 H36           -3.6102     2.8406    -2.0007 H       
  37 H37           -5.9760     6.3697    -2.3891 H       
  38 H38           -7.7117     5.0901    -3.5720 H       
  39 H39           -1.7132     8.2220    -2.2103 H       
  40 H40           -1.1539     6.7167    -1.4367 H       
  41 H41           -3.9367     7.2610    -2.5702 H       
  42 H42           -2.7157     6.1508    -3.2387 H       
  43 H43           -2.8021     4.8133    -1.1418 H       
  44 H44           -5.0307     6.7647    -0.4045 H       
  45 H45           -4.6062     5.2932     0.5037 H       
  46 H46           -2.3620     6.1687     0.9547 H       
  47 H47           -3.5672     7.3810     1.4597 H       
  48 H48           -5.2883    11.8892     2.4353 H       
  49 H49           -1.9726     8.2237     2.5165 H       
  50 H50           -1.3420     7.5349     4.4657 H       
  51 H51           -2.1950     8.5815     9.1290 H       
  52 H52           -3.8752     9.0988     8.8153 H       
  53 H53           -0.2695     6.2132     6.5189 H       
  54 H54           -0.4497     7.1669     8.0184 H       
  55 H55           -2.6545     5.3002     7.0608 H       
  56 H56           -1.3021     4.6853     8.0346 H       
  57 H57           -1.8094     6.4716     9.7133 H       
  58 H58           -3.0278     5.2081     9.5554 H       
  59 H59           -5.6664    10.3691     5.2011 H       
  60 H60           -4.0797    10.9719     5.7373 H       
  61 H61           -5.1664    12.0314     4.8074 H       
  62 H62           -5.1881    10.6905    -0.4979 H       
  63 H63           -4.7584    12.2930     0.1470 H       
  64 H64           -3.5341    11.3166    -0.6992 H       
@<TRIPOS>BOND
   1    1    2 1
   2    1    8 3
   3    2    3 ar
   4    2    7 ar
   5    3    4 ar
   6    3   35 1
   7    4    5 ar
   8    4   36 1
   9    5    6 ar
  10    5   12 1
  11    6    7 ar
  12    6   37 1
  13    7   38 1
  14    9   10 1
  15    9   14 1
  16    9   15 am
  17   10   11 1
  18   10   39 1
  19   10   40 1
  20   11   12 1
  21   11   41 1
  22   11   42 1
  23   12   13 1
  24   12   43 1
  25   13   14 1
  26   13   44 1
  27   13   45 1
  28   14   46 1
  29   14   47 1
  30   15   16 1
  31   15   22 2
  32   16   17 ar
  33   16   21 ar
  34   17   18 ar
  35   17   34 1
  36   18   19 ar
  37   18   48 1
  38   19   20 ar
  39   19   33 1
  40   20   21 ar
  41   20   23 1
  42   21   49 1
  43   23   24 2
  44   23   27 1
  45   24   25 1
  46   25   26 2
  47   25   29 1
  48   26   27 1
  49   26   30 1
  50   27   50 1
  51   28   29 1
  52   28   32 1
  53   29   51 1
  54   29   52 1
  55   30   31 1
  56   30   53 1
  57   30   54 1
  58   31   32 1
  59   31   55 1
  60   31   56 1
  61   32   57 1
  62   32   58 1
  63   33   59 1
  64   33   60 1
  65   33   61 1
  66   34   62 1
  67   34   63 1
  68   34   64 1

#	End of record

