#	Name: ASD05130109
#	Creating user name:	WinNT
#	Creation time:	15. 06. 2019 20:56

#	Modifying user name:	WinNT
#	Modification time:	15. 06. 2019 20:56

#	Program:	/corina/corina34_cracker 3.40 0067  02.08.2006

@<TRIPOS>MOLECULE
ASD05130109
  73   77    0    0    0
SMALL
NO_CHARGES


@<TRIPOS>ATOM
   1 N1             1.2806     3.2987    -0.0864 N.am    
   2 C2             2.6700     3.7794    -0.0987 C.3     
   3 C3             3.5843     2.5368    -0.1381 C.3     
   4 C4             2.6535     1.4386    -0.7167 C.3     
   5 C5             1.2903     1.8245    -0.0903 C.3     
   6 C6             0.1804     4.0769    -0.0685 C.2     
   7 O7             0.2921     5.2875    -0.0613 O.2     
   8 N8            -1.0437     3.5131    -0.0587 N.am    
   9 N9             4.7331     2.7647    -1.0248 N.3     
  10 C10            5.5546     3.8840    -0.5450 C.3     
  11 C11            5.5381     1.5443    -1.1678 C.3     
  12 N12           -5.8239     4.0089     0.0059 N.am    
  13 C13           -6.9069     4.8008     0.1316 C.2     
  14 C14           -6.7471     6.2379     0.3667 C.2     
  15 C15           -5.4906     6.7712     0.4579 C.2     
  16 C16           -4.3691     5.9184     0.3223 C.ar    
  17 C17           -3.0649     6.4212     0.4081 C.ar    
  18 N18           -2.0339     5.6147     0.2811 N.ar    
  19 C19           -2.1765     4.3114     0.0680 C.ar    
  20 C20           -3.4317     3.7307    -0.0313 C.ar    
  21 C21           -4.5571     4.5377     0.0963 C.ar    
  22 O22           -8.0230     4.3199     0.0490 O.2     
  23 C23           -5.9969     2.5723    -0.2230 C.3     
  24 C24           -6.0566     2.2990    -1.7272 C.3     
  25 C25           -7.9383     7.1080     0.5044 C.ar    
  26 C26           -8.6910     7.0831     1.6797 C.ar    
  27 C27           -9.8012     7.8950     1.8061 C.ar    
  28 C28          -10.1705     8.7346     0.7695 C.ar    
  29 C29           -9.4253     8.7650    -0.4050 C.ar    
  30 C30           -8.3070     7.9577    -0.5370 C.ar    
  31 N31           -9.8027     9.6160    -1.4523 N.am    
  32 C32           -8.8605    10.1990    -2.2197 C.2     
  33 O33           -7.6875     9.9229    -2.0571 O.2     
  34 N34           -9.2184    11.0879    -3.1674 N.am    
  35 C35           -8.2518    11.6213    -4.0272 C.ar    
  36 C36           -8.5744    11.9016    -5.3485 C.ar    
  37 C37           -7.6181    12.4280    -6.1946 C.ar    
  38 C38           -6.3405    12.6760    -5.7273 C.ar    
  39 C39           -6.0160    12.3979    -4.4121 C.ar    
  40 C40           -6.9694    11.8768    -3.5595 C.ar    
  41 F41          -11.2576     9.5262     0.8984 F       
  42 Cl42          -8.2320     6.0312     2.9822 Cl      
  43 H43            2.8418     4.3942    -0.9822 H       
  44 H44            2.8700     4.3583     0.8030 H       
  45 H45            3.9171     2.2709     0.8653 H       
  46 H46            2.6132     1.4940    -1.8046 H       
  47 H47            2.9676     0.4477    -0.3889 H       
  48 H48            1.2189     1.4420     0.9279 H       
  49 H49            0.4711     1.4414    -0.6987 H       
  50 H50           -1.1352     2.5508    -0.1398 H       
  51 H51            5.9245     3.6604     0.4556 H       
  52 H52            6.3980     4.0311    -1.2197 H       
  53 H53            4.9509     4.7911    -0.5149 H       
  54 H54            4.9223     0.7504    -1.5905 H       
  55 H55            6.3818     1.7409    -1.8293 H       
  56 H56            5.9074     1.2359    -0.1897 H       
  57 H57           -5.3562     7.8288     0.6306 H       
  58 H58           -2.9051     7.4753     0.5807 H       
  59 H59           -3.5337     2.6697    -0.2051 H       
  60 H60           -5.1563     2.0313     0.2114 H       
  61 H61           -6.9238     2.2390     0.2439 H       
  62 H62           -6.1854     1.2301    -1.8975 H       
  63 H63           -6.8973     2.8400    -2.1617 H       
  64 H64           -5.1298     2.6323    -2.1941 H       
  65 H65          -10.3828     7.8744     2.7158 H       
  66 H66           -7.7250     7.9835    -1.4465 H       
  67 H67          -10.7420     9.7856    -1.6250 H       
  68 H68          -10.1461    11.3579    -3.2535 H       
  69 H69           -9.5720    11.7079    -5.7142 H       
  70 H70           -7.8683    12.6459    -7.2224 H       
  71 H71           -5.5943    13.0873    -6.3910 H       
  72 H72           -5.0172    12.5924    -4.0503 H       
  73 H73           -6.7168    11.6644    -2.5312 H       
@<TRIPOS>BOND
   1    1    2 1
   2    1    5 1
   3    1    6 am
   4    2    3 1
   5    2   43 1
   6    2   44 1
   7    3    4 1
   8    3    9 1
   9    3   45 1
  10    4    5 1
  11    4   46 1
  12    4   47 1
  13    5   48 1
  14    5   49 1
  15    6    7 2
  16    6    8 am
  17    8   19 1
  18    8   50 1
  19    9   10 1
  20    9   11 1
  21   10   51 1
  22   10   52 1
  23   10   53 1
  24   11   54 1
  25   11   55 1
  26   11   56 1
  27   12   13 am
  28   12   21 1
  29   12   23 1
  30   13   14 1
  31   13   22 2
  32   14   15 2
  33   14   25 1
  34   15   16 1
  35   15   57 1
  36   16   17 ar
  37   16   21 ar
  38   17   18 ar
  39   17   58 1
  40   18   19 ar
  41   19   20 ar
  42   20   21 ar
  43   20   59 1
  44   23   24 1
  45   23   60 1
  46   23   61 1
  47   24   62 1
  48   24   63 1
  49   24   64 1
  50   25   26 ar
  51   25   30 ar
  52   26   27 ar
  53   26   42 1
  54   27   28 ar
  55   27   65 1
  56   28   29 ar
  57   28   41 1
  58   29   30 ar
  59   29   31 1
  60   30   66 1
  61   31   32 am
  62   31   67 1
  63   32   33 2
  64   32   34 am
  65   34   35 1
  66   34   68 1
  67   35   36 ar
  68   35   40 ar
  69   36   37 ar
  70   36   69 1
  71   37   38 ar
  72   37   70 1
  73   38   39 ar
  74   38   71 1
  75   39   40 ar
  76   39   72 1
  77   40   73 1

#	End of record

