#	Name: ASD01811056
#	Creating user name:	WinNT
#	Creation time:	15. 06. 2019 19:25

#	Modifying user name:	WinNT
#	Modification time:	15. 06. 2019 19:25

#	Program:	/corina/corina34_cracker 3.40 0067  02.08.2006

@<TRIPOS>MOLECULE
ASD01811056
  44   47    0    0    0
SMALL
NO_CHARGES


@<TRIPOS>ATOM
   1 C1            -0.0168     1.3877     0.0097 C.ar    
   2 C2             0.0021    -0.0041     0.0020 C.ar    
   3 C3            -1.2594    -0.8135    -0.0075 C.3     
   4 C4            -2.4651    -0.0350     0.4065 C.2     
   5 C5            -2.5177     1.3064     0.4235 C.2     
   6 C6            -1.3243     2.0913     0.0396 C.2     
   7 C7            -1.4854    -1.3535    -1.4211 C.3     
   8 C8            -2.6816    -2.2702    -1.4233 C.ar    
   9 C9            -3.9427    -1.7567    -1.6665 C.ar    
  10 C10           -5.0417    -2.5917    -1.6697 C.ar    
  11 C11           -4.8790    -3.9541    -1.4275 C.ar    
  12 C12           -3.6063    -4.4660    -1.1832 C.ar    
  13 C13           -2.5136    -3.6228    -1.1879 C.ar    
  14 C14           -6.0569    -4.8567    -1.4293 C.ar    
  15 C15           -5.8941    -6.2192    -1.1871 C.ar    
  16 C16           -6.9932    -7.0540    -1.1900 C.ar    
  17 C17           -8.2543    -6.5406    -1.4331 C.ar    
  18 C18           -8.4216    -5.1889    -1.6746 C.ar    
  19 C19           -7.3303    -4.3438    -1.6675 C.ar    
  20 O20           -1.4107     3.2703    -0.2422 O.2     
  21 C21           -3.7606     1.9947     0.8234 C.2     
  22 O22           -4.7391     1.3473     1.1382 O.2     
  23 O23           -3.8099     3.3409     0.8393 O.3     
  24 N24            1.1120     2.0856     0.0026 N.ar    
  25 C25            2.2871     1.4951    -0.0040 C.ar    
  26 C26            2.3851     0.1122    -0.0046 C.ar    
  27 C27            1.2305    -0.6527    -0.0013 C.ar    
  28 H28           -1.1383    -1.6577     0.6713 H       
  29 H29           -3.3453    -0.5827     0.7092 H       
  30 H30           -1.6633    -0.5223    -2.1034 H       
  31 H31           -0.6034    -1.9064    -1.7441 H       
  32 H32           -4.0678    -0.7004    -1.8537 H       
  33 H33           -6.0260    -2.1897    -1.8593 H       
  34 H34           -3.4745    -5.5213    -0.9949 H       
  35 H35           -1.5266    -4.0185    -0.9987 H       
  36 H36           -4.9098    -6.6212    -0.9978 H       
  37 H37           -6.8682    -8.1103    -1.0024 H       
  38 H38           -9.1115    -7.1975    -1.4348 H       
  39 H39           -9.4084    -4.7933    -1.8643 H       
  40 H40           -7.4621    -3.2886    -1.8559 H       
  41 H41           -4.6455     3.7465     1.1082 H       
  42 H42            3.1857     2.0941    -0.0093 H       
  43 H43            3.3540    -0.3647    -0.0076 H       
  44 H44            1.2841    -1.7314    -0.0016 H       
@<TRIPOS>BOND
   1    1    2 ar
   2    1   24 ar
   3    1    6 1
   4    2    3 1
   5    2   27 ar
   6    3    4 1
   7    3    7 1
   8    3   28 1
   9    4    5 2
  10    4   29 1
  11    5    6 1
  12    5   21 1
  13    6   20 2
  14    7    8 1
  15    7   30 1
  16    7   31 1
  17    8    9 ar
  18    8   13 ar
  19    9   10 ar
  20    9   32 1
  21   10   11 ar
  22   10   33 1
  23   11   12 ar
  24   11   14 1
  25   12   13 ar
  26   12   34 1
  27   13   35 1
  28   14   15 ar
  29   14   19 ar
  30   15   16 ar
  31   15   36 1
  32   16   17 ar
  33   16   37 1
  34   17   18 ar
  35   17   38 1
  36   18   19 ar
  37   18   39 1
  38   19   40 1
  39   21   22 2
  40   21   23 1
  41   23   41 1
  42   24   25 ar
  43   25   26 ar
  44   25   42 1
  45   26   27 ar
  46   26   43 1
  47   27   44 1

#	End of record

