#	Name: ASD05143056
#	Creating user name:	WinNT
#	Creation time:	15. 06. 2019 20:57

#	Modifying user name:	WinNT
#	Modification time:	15. 06. 2019 20:57

#	Program:	/corina/corina34_cracker 3.40 0067  02.08.2006

@<TRIPOS>MOLECULE
ASD05143056
 145  148    0    0    0
SMALL
NO_CHARGES


@<TRIPOS>ATOM
   1 C1            -2.0790     5.5937     7.6586 C.2     
   2 C2            -1.5876     4.8807     8.8920 C.3     
   3 N3            -1.1953     6.1114     6.7825 N.am    
   4 O4            -3.2695     5.6973     7.4519 O.2     
   5 C5            -1.6729     6.8045     5.5835 C.3     
   6 C6            -2.5112     5.8432     4.7385 C.3     
   7 C7            -2.5180     7.9848     5.9886 C.2     
   8 C8            -1.6225     4.7092     4.2235 C.3     
   9 C9            -2.4607     3.7478     3.3786 C.3     
  10 N10           -1.6097     2.6621     2.8855 N.pl3   
  11 C11           -2.1469     1.6710     2.0983 C.2     
  12 N12           -3.4826     1.6990     1.7740 N.pl3   
  13 N13           -1.3897     0.7050     1.6596 N.2     
  14 O14           -3.0050     8.0294     7.0984 O.2     
  15 N15           -2.7324     8.9906     5.1176 N.am    
  16 C16           -3.5539    10.1380     5.5114 C.3     
  17 C17           -2.6485    11.3336     5.8141 C.3     
  18 C18           -1.4911    10.8844     6.7080 C.3     
  19 C19           -0.3526    10.3968     5.8495 C.2     
  20 O20           -0.5585     9.6491     4.9171 O.2     
  21 N21            0.9157    10.8130     6.1406 N.am    
  22 C22            1.9763    10.2832     5.2534 C.3     
  23 C23            2.1252    11.2209     4.0537 C.3     
  24 C24            2.7849    10.4674     2.8969 C.3     
  25 C25            3.7432    11.4037     2.1580 C.3     
  26 N26            3.6879    11.0992     0.7141 N.am    
  27 C27            5.1465    11.1930     2.6652 C.2     
  28 N28            5.5375    11.7630     3.8223 N.am    
  29 O29            5.9240    10.5106     2.0323 O.2     
  30 C30            2.8612    11.8744    -0.0396 C.2     
  31 O31            2.2198    12.7670     0.4730 O.2     
  32 C32            2.7533    11.6099    -1.5193 C.3     
  33 N33            1.5385    12.2848    -2.0313 N.am    
  34 C34            3.9883    12.1648    -2.2319 C.3     
  35 C35            0.4836    11.4614    -2.3064 C.2     
  36 O36            0.5738    10.2639    -2.1367 O.2     
  37 C37           -0.7944    12.0694    -2.8243 C.3     
  38 N38           -1.9218    11.1845    -2.4690 N.am    
  39 C39           -1.0023    13.4451    -2.1879 C.3     
  40 C40           -3.0243    11.7844    -1.9417 C.2     
  41 O41           -3.0516    12.9857    -1.7771 O.2     
  42 C42           -4.2105    10.9342    -1.5660 C.3     
  43 C43            3.9364    11.7917    -3.6910 C.2     
  44 C44            3.2369    12.5199    -4.7523 C.ar    
  45 C45            3.4711    11.7993    -5.9375 C.ar    
  46 N46            4.2553    10.7171    -5.6068 N.pl3   
  47 C47            4.5273    10.7322    -4.2658 C.2     
  48 C48            2.4617    13.6808    -4.7843 C.ar    
  49 C49            1.9340    14.1115    -5.9686 C.ar    
  50 C50            2.1618    13.4037    -7.1410 C.ar    
  51 C51            2.9241    12.2565    -7.1323 C.ar    
  52 N52           -4.7926    11.4604    -0.3102 N.am    
  53 C53           -3.7590     9.4875    -1.3558 C.3     
  54 C54           -4.9583     8.6257    -1.0557 C.ar    
  55 C55           -5.9949     8.5461    -1.9686 C.ar    
  56 C56           -7.0954     7.7588    -1.7006 C.ar    
  57 C57           -7.1617     7.0411    -0.5046 C.ar    
  58 C58           -6.1120     7.1260     0.4122 C.ar    
  59 C59           -5.0150     7.9131     0.1290 C.ar    
  60 C60           -4.4942    10.4919     4.3880 C.2     
  61 O61           -5.6924    10.3644     4.5254 O.2     
  62 C62           -1.0133    13.3059    -0.6643 C.3     
  63 C63           -1.3626    14.6543    -0.0314 C.3     
  64 N64           -1.3730    14.5210     1.4275 N.pl3   
  65 C65           -1.6633    15.6098     2.2152 C.2     
  66 N66           -1.9436    16.8237     1.6338 N.pl3   
  67 N67           -1.6726    15.4911     3.5132 N.2     
  68 N68           -3.9791    10.9564     3.2166 N.am    
  69 C69           -4.9487    11.2870     2.1531 C.3     
  70 C70           -4.3977    10.8204     0.8304 C.2     
  71 O71           -3.6178     9.8931     0.7793 O.2     
  72 C72           -8.3012     6.2221    -0.2195 C.1     
  73 N73           -9.2052     5.5724     0.0067 N.1     
  74 C74           -5.1683    12.8006     2.1119 C.3     
  75 C75           -5.5930    13.2922     3.4971 C.3     
  76 O76           -3.9533    13.4479     1.7286 O.3     
  77 H77           -0.9904     5.5656     9.4940 H       
  78 H78           -2.4407     4.5338     9.4752 H       
  79 H79           -0.9764     4.0271     8.5990 H       
  80 H80           -0.2431     6.0251     6.9459 H       
  81 H81           -0.8199     7.1515     5.0003 H       
  82 H82           -3.3131     5.4277     5.3488 H       
  83 H83           -2.9396     6.3815     3.8931 H       
  84 H84           -0.8206     5.1247     3.6132 H       
  85 H85           -1.1940     4.1709     5.0689 H       
  86 H86           -3.2626     3.3324     3.9889 H       
  87 H87           -2.8892     4.2862     2.5332 H       
  88 H88           -0.6673     2.6424     3.1143 H       
  89 H89           -4.0461     2.4179     2.1005 H       
  90 H90           -3.8616     0.9998     1.2186 H       
  91 H91           -1.7687     0.0058     1.1043 H       
  92 H92           -2.3429     8.9549     4.2300 H       
  93 H93           -4.1300     9.8840     6.4011 H       
  94 H94           -2.2525    11.7347     4.8811 H       
  95 H95           -3.2243    12.1049     6.3255 H       
  96 H96           -1.1541    11.7243     7.3155 H       
  97 H97           -1.8269    10.0770     7.3588 H       
  98 H98            1.1081    11.4141     6.8772 H       
  99 H99            2.9188    10.2345     5.7988 H       
 100 H100           1.6997     9.2874     4.9071 H       
 101 H101           1.1415    11.5735     3.7437 H       
 102 H102           2.7452    12.0727     4.3330 H       
 103 H103           3.3399     9.6148     3.2883 H       
 104 H104           2.0172    10.1156     2.2078 H       
 105 H105           3.4439    12.4385     2.3248 H       
 106 H106           4.2133    10.3837     0.3232 H       
 107 H107           4.9157    12.3087     4.3286 H       
 108 H108           6.4408    11.6273     4.1488 H       
 109 H109           2.6774    10.5368    -1.6948 H       
 110 H110           1.4950    13.2449    -2.1625 H       
 111 H111           4.0067    13.2503    -2.1349 H       
 112 H112           4.8874    11.7445    -1.7811 H       
 113 H113          -0.7375    12.1711    -3.9081 H       
 114 H114          -1.8789    10.2250    -2.6041 H       
 115 H115          -0.1915    14.1097    -2.4862 H       
 116 H116          -1.9535    13.8599    -2.5217 H       
 117 H117          -4.9560    10.9754    -2.3600 H       
 118 H118           4.5712    10.0460    -6.2319 H       
 119 H119           5.1225     9.9964    -3.7456 H       
 120 H120           2.2797    14.2361    -3.8760 H       
 121 H121           1.3345    15.0095    -5.9928 H       
 122 H122           1.7375    13.7566    -8.0694 H       
 123 H123           3.0959    11.7131    -8.0497 H       
 124 H124          -5.4111    12.2075    -0.2983 H       
 125 H125          -3.2681     9.1252    -2.2590 H       
 126 H126          -3.0610     9.4426    -0.5198 H       
 127 H127          -5.9425     9.1020    -2.8931 H       
 128 H128          -7.9040     7.6978    -2.4139 H       
 129 H129          -6.1571     6.5738     1.3393 H       
 130 H130          -4.2024     7.9797     0.8372 H       
 131 H131          -1.7568    12.5641    -0.3726 H       
 132 H132          -0.0287    12.9878    -0.3215 H       
 133 H133          -0.6191    15.3961    -0.3231 H       
 134 H134          -2.3471    14.9725    -0.3743 H       
 135 H135          -1.1752    13.6645     1.8376 H       
 136 H136          -1.9367    16.9120     0.6679 H       
 137 H137          -2.1484    17.5919     2.1896 H       
 138 H138          -1.8773    16.2593     4.0689 H       
 139 H139          -3.0239    11.0651     3.0872 H       
 140 H140          -5.8950    10.7840     2.3524 H       
 141 H141          -5.9488    13.0349     1.3881 H       
 142 H142          -4.8125    13.0579     4.2209 H       
 143 H143          -5.7494    14.3706     3.4677 H       
 144 H144          -6.5197    12.7985     3.7895 H       
 145 H145          -3.6244    13.1835     0.8585 H       
@<TRIPOS>BOND
   1    1    2 1
   2    1    3 am
   3    1    4 2
   4    2   77 1
   5    2   78 1
   6    2   79 1
   7    3    5 1
   8    3   80 1
   9    5    6 1
  10    5    7 1
  11    5   81 1
  12    6    8 1
  13    6   82 1
  14    6   83 1
  15    7   14 2
  16    7   15 am
  17    8    9 1
  18    8   84 1
  19    8   85 1
  20    9   10 1
  21    9   86 1
  22    9   87 1
  23   10   11 1
  24   10   88 1
  25   11   12 1
  26   11   13 2
  27   12   89 1
  28   12   90 1
  29   13   91 1
  30   15   16 1
  31   15   92 1
  32   16   17 1
  33   16   60 1
  34   16   93 1
  35   17   18 1
  36   17   94 1
  37   17   95 1
  38   18   19 1
  39   18   96 1
  40   18   97 1
  41   19   20 2
  42   19   21 am
  43   21   22 1
  44   21   98 1
  45   22   23 1
  46   22   99 1
  47   22  100 1
  48   23   24 1
  49   23  101 1
  50   23  102 1
  51   24   25 1
  52   24  103 1
  53   24  104 1
  54   25   26 1
  55   25   27 1
  56   25  105 1
  57   26   30 am
  58   26  106 1
  59   27   28 am
  60   27   29 2
  61   28  107 1
  62   28  108 1
  63   30   31 2
  64   30   32 1
  65   32   33 1
  66   32   34 1
  67   32  109 1
  68   33   35 am
  69   33  110 1
  70   34   43 1
  71   34  111 1
  72   34  112 1
  73   35   36 2
  74   35   37 1
  75   37   38 1
  76   37   39 1
  77   37  113 1
  78   38   40 am
  79   38  114 1
  80   39   62 1
  81   39  115 1
  82   39  116 1
  83   40   41 2
  84   40   42 1
  85   42   52 1
  86   42   53 1
  87   42  117 1
  88   43   44 1
  89   43   47 2
  90   44   45 ar
  91   44   48 ar
  92   45   46 1
  93   45   51 ar
  94   46   47 1
  95   46  118 1
  96   47  119 1
  97   48   49 ar
  98   48  120 1
  99   49   50 ar
 100   49  121 1
 101   50   51 ar
 102   50  122 1
 103   51  123 1
 104   52   70 am
 105   52  124 1
 106   53   54 1
 107   53  125 1
 108   53  126 1
 109   54   55 ar
 110   54   59 ar
 111   55   56 ar
 112   55  127 1
 113   56   57 ar
 114   56  128 1
 115   57   58 ar
 116   57   72 1
 117   58   59 ar
 118   58  129 1
 119   59  130 1
 120   60   61 2
 121   60   68 am
 122   62   63 1
 123   62  131 1
 124   62  132 1
 125   63   64 1
 126   63  133 1
 127   63  134 1
 128   64   65 1
 129   64  135 1
 130   65   66 1
 131   65   67 2
 132   66  136 1
 133   66  137 1
 134   67  138 1
 135   68   69 1
 136   68  139 1
 137   69   70 1
 138   69   74 1
 139   69  140 1
 140   70   71 2
 141   72   73 3
 142   74   75 1
 143   74   76 1
 144   74  141 1
 145   75  142 1
 146   75  143 1
 147   75  144 1
 148   76  145 1

#	End of record

