#	Name: ASD01148163
#	Creating user name:	WinNT
#	Creation time:	15. 06. 2019 19:02

#	Modifying user name:	WinNT
#	Modification time:	15. 06. 2019 19:02

#	Program:	/corina/corina34_cracker 3.40 0067  02.08.2006

@<TRIPOS>MOLECULE
ASD01148163
  40   42    0    0    0
SMALL
NO_CHARGES


@<TRIPOS>ATOM
   1 N1            -0.0111     1.3369     0.0377 N.pl3   
   2 C2             0.0054    -0.0025     0.0180 C.2     
   3 C3             1.1804    -0.7265     0.0059 C.2     
   4 C4             2.4618    -0.0026     0.0145 C.2     
   5 C5             2.3980     1.4703     0.0358 C.ar    
   6 C6             3.5455     2.2622     0.0460 C.ar    
   7 C7             3.3975     3.6360     0.0664 C.ar    
   8 N8             2.1990     4.1924     0.0765 N.ar    
   9 C9             1.0884     3.4865     0.0675 C.ar    
  10 C10            1.1382     2.0945     0.0470 C.ar    
  11 C11            1.1525    -2.1977    -0.0147 C.2     
  12 O12            0.0925    -2.7872     0.0771 O.2     
  13 N13            2.3014    -2.8919    -0.1353 N.am    
  14 O14            3.5270    -0.5936     0.0049 O.2     
  15 C15           -1.3052     2.0235     0.0435 C.3     
  16 C16           -1.7605     2.2412     1.4879 C.3     
  17 Cl17           4.8087     4.6470     0.0796 Cl      
  18 O18            1.4338    -6.8481    -0.6938 O.3     
  19 C19            2.7147    -6.3972    -1.1426 C.3     
  20 C20            2.6837    -4.8759    -1.3118 C.3     
  21 N21            2.2895    -4.2545    -0.0391 N.3     
  22 C22            0.9706    -4.7407     0.3915 C.3     
  23 C23            1.0187    -6.2633     0.5436 C.3     
  24 H24           -0.9343    -0.5348     0.0116 H       
  25 H25            4.5273     1.8123     0.0386 H       
  26 H26            0.1327     3.9893     0.0764 H       
  27 H27            3.1368    -2.4240    -0.2904 H       
  28 H28           -1.2074     2.9874    -0.4558 H       
  29 H29           -2.0416     1.4153    -0.4817 H       
  30 H30           -1.8584     1.2773     1.9873 H       
  31 H31           -1.0241     2.8494     2.0132 H       
  32 H32           -2.7234     2.7521     1.4923 H       
  33 H33            3.4733    -6.6664    -0.4077 H       
  34 H34            2.9508    -6.8650    -2.0984 H       
  35 H35            3.6737    -4.5214    -1.5987 H       
  36 H36            1.9630    -4.6103    -2.0852 H       
  37 H37            0.7101    -4.2874     1.3479 H       
  38 H38            0.2225    -4.4729    -0.3547 H       
  39 H39            0.0283    -6.6342     0.8073 H       
  40 H40            1.7280    -6.5285     1.3276 H       
@<TRIPOS>BOND
   1    1    2 1
   2    1   10 1
   3    1   15 1
   4    2    3 2
   5    2   24 1
   6    3    4 1
   7    3   11 1
   8    4    5 1
   9    4   14 2
  10    5    6 ar
  11    5   10 ar
  12    6    7 ar
  13    6   25 1
  14    7    8 ar
  15    7   17 1
  16    8    9 ar
  17    9   10 ar
  18    9   26 1
  19   11   12 2
  20   11   13 am
  21   13   21 1
  22   13   27 1
  23   15   16 1
  24   15   28 1
  25   15   29 1
  26   16   30 1
  27   16   31 1
  28   16   32 1
  29   18   19 1
  30   18   23 1
  31   19   20 1
  32   19   33 1
  33   19   34 1
  34   20   21 1
  35   20   35 1
  36   20   36 1
  37   21   22 1
  38   22   23 1
  39   22   37 1
  40   22   38 1
  41   23   39 1
  42   23   40 1

#	End of record

