#	Name: ASD01811065
#	Creating user name:	WinNT
#	Creation time:	15. 06. 2019 19:26

#	Modifying user name:	WinNT
#	Modification time:	15. 06. 2019 19:26

#	Program:	/corina/corina34_cracker 3.40 0067  02.08.2006

@<TRIPOS>MOLECULE
ASD01811065
  40   43    0    0    0
SMALL
NO_CHARGES


@<TRIPOS>ATOM
   1 C1            -0.0170     1.4059     0.0098 C.2     
   2 C2             0.0021    -0.0041     0.0020 C.2     
   3 C3            -1.2594    -0.8371    -0.0050 C.3     
   4 C4            -2.4615    -0.0109     0.3271 C.2     
   5 C5            -2.5099     1.3254     0.3414 C.2     
   6 C6            -1.3115     2.1434     0.0348 C.2     
   7 C7            -1.4441    -1.4538    -1.3930 C.3     
   8 C8            -2.6301    -2.3832    -1.3760 C.ar    
   9 C9            -3.8901    -1.8982    -1.6771 C.ar    
  10 C10           -4.9798    -2.7450    -1.6630 C.ar    
  11 C11           -4.8091    -4.0908    -1.3447 C.ar    
  12 C12           -3.5377    -4.5740    -1.0422 C.ar    
  13 C13           -2.4540    -3.7195    -1.0649 C.ar    
  14 C14           -5.9771    -5.0059    -1.3274 C.ar    
  15 C15           -5.8063    -6.3516    -1.0092 C.ar    
  16 C16           -6.8961    -7.1984    -0.9947 C.ar    
  17 C17           -8.1560    -6.7133    -1.2958 C.ar    
  18 C18           -8.3312    -5.3784    -1.6129 C.ar    
  19 C19           -7.2494    -4.5214    -1.6239 C.ar    
  20 O20           -1.3807     3.3378    -0.1816 O.2     
  21 C21           -3.7814     1.9995     0.6683 C.2     
  22 O22           -4.7706     1.3410     0.9210 O.2     
  23 O23           -3.8452     3.3451     0.6866 O.3     
  24 N24            1.1877     1.9135     0.0010 N.2     
  25 S25            2.2161     0.7404    -0.0088 S.3     
  26 N26            1.2206    -0.4587    -0.0044 N.2     
  27 H27           -1.1626    -1.6369     0.7291 H       
  28 H28           -3.3694    -0.5398     0.5768 H       
  29 H29           -1.6134    -0.6620    -2.1228 H       
  30 H30           -0.5484    -2.0126    -1.6644 H       
  31 H31           -4.0213    -0.8549    -1.9233 H       
  32 H32           -5.9632    -2.3652    -1.8979 H       
  33 H33           -3.3997    -5.6162    -0.7949 H       
  34 H34           -1.4681    -4.0929    -0.8306 H       
  35 H35           -4.8229    -6.7315    -0.7746 H       
  36 H36           -6.7649    -8.2416    -0.7481 H       
  37 H37           -9.0061    -7.3795    -1.2836 H       
  38 H38           -9.3171    -5.0050    -1.8476 H       
  39 H39           -7.3873    -3.4792    -1.8713 H       
  40 H40           -4.6996     3.7412     0.9062 H       
@<TRIPOS>BOND
   1    1    2 1
   2    1   24 2
   3    1    6 1
   4    2    3 1
   5    2   26 2
   6    3    4 1
   7    3    7 1
   8    3   27 1
   9    4    5 2
  10    4   28 1
  11    5    6 1
  12    5   21 1
  13    6   20 2
  14    7    8 1
  15    7   29 1
  16    7   30 1
  17    8    9 ar
  18    8   13 ar
  19    9   10 ar
  20    9   31 1
  21   10   11 ar
  22   10   32 1
  23   11   12 ar
  24   11   14 1
  25   12   13 ar
  26   12   33 1
  27   13   34 1
  28   14   15 ar
  29   14   19 ar
  30   15   16 ar
  31   15   35 1
  32   16   17 ar
  33   16   36 1
  34   17   18 ar
  35   17   37 1
  36   18   19 ar
  37   18   38 1
  38   19   39 1
  39   21   22 2
  40   21   23 1
  41   23   40 1
  42   24   25 1
  43   25   26 1

#	End of record

