#	Name: ASD08830008
#	Creating user name:	WinNT
#	Creation time:	15. 06. 2019 21:19

#	Modifying user name:	WinNT
#	Modification time:	15. 06. 2019 21:19

#	Program:	/corina/corina34_cracker 3.40 0067  02.08.2006

@<TRIPOS>MOLECULE
ASD08830008
  53   56    0    0    0
SMALL
NO_CHARGES


@<TRIPOS>ATOM
   1 C1            -0.0169     1.3935     0.0097 C.ar    
   2 C2             0.0021    -0.0041     0.0020 C.ar    
   3 C3             1.1737     2.1067     0.0022 C.ar    
   4 C4             2.3786     1.4397    -0.0132 C.ar    
   5 C5             2.4058     0.0397    -0.0218 C.ar    
   6 C6             1.2045    -0.6807    -0.0136 C.ar    
   7 C7             3.6906    -0.6716    -0.0393 C.2     
   8 C8             4.9819     0.1053    -0.0481 C.3     
   9 C9             6.1624    -0.8678    -0.0661 C.3     
  10 N10            7.4211    -0.1105    -0.0747 N.3     
  11 C11            7.5979     0.6292     1.1789 C.3     
  12 C12            8.5701    -0.9999    -0.3078 C.3     
  13 C13            9.7819    -0.1413    -0.6712 C.3     
  14 C14            9.9539     0.9612     0.3424 C.ar    
  15 C15            8.9360     1.3209     1.1997 C.ar    
  16 O16            3.7124    -1.8843    -0.0467 O.2     
  17 N17           -1.2125    -0.7058     0.0109 N.am    
  18 C18           -2.3517    -0.0453    -0.2905 C.2     
  19 C19           -2.2930     1.4140    -0.6644 C.3     
  20 O20           -1.2093     2.0434     0.0189 O.3     
  21 O21           -3.4173    -0.6239    -0.2607 O.2     
  22 C22           11.1736     1.6197     0.3997 C.ar    
  23 C23           11.3760     2.6395     1.3122 C.ar    
  24 C24           10.3475     3.0054     2.1759 C.ar    
  25 C25            9.1336     2.3452     2.1150 C.ar    
  26 O26           10.5354     4.0076     3.0757 O.3     
  27 C27            9.4351     4.3279     3.9293 C.3     
  28 O28           12.5739     3.2810     1.3654 O.3     
  29 C29           13.5818     2.8505     0.4485 C.3     
  30 H30            1.1553     3.1865     0.0080 H       
  31 H31            3.3036     1.9971    -0.0190 H       
  32 H32            1.2193    -1.7606    -0.0206 H       
  33 H33            5.0191     0.7382    -0.9348 H       
  34 H34            5.0376     0.7276     0.8450 H       
  35 H35            6.1252    -1.5006     0.8206 H       
  36 H36            6.1067    -1.4901    -0.9592 H       
  37 H37            6.8069     1.3734     1.2720 H       
  38 H38            7.5386    -0.0647     2.0174 H       
  39 H39            8.7826    -1.5687     0.5975 H       
  40 H40            8.3451    -1.6817    -1.1279 H       
  41 H41           10.6762    -0.7643    -0.6835 H       
  42 H42            9.6330     0.2951    -1.6589 H       
  43 H43           -1.2341    -1.6505     0.2296 H       
  44 H44           -2.1429     1.5071    -1.7400 H       
  45 H45           -3.2293     1.8977    -0.3861 H       
  46 H46           11.9699     1.3342    -0.2717 H       
  47 H47            8.3347     2.6282     2.7844 H       
  48 H48            8.5824     4.6344     3.3234 H       
  49 H49            9.1655     3.4516     4.5189 H       
  50 H50            9.7179     5.1419     4.5967 H       
  51 H51           13.2241     2.9823    -0.5727 H       
  52 H52           14.4847     3.4429     0.5965 H       
  53 H53           13.8053     1.7979     0.6221 H       
@<TRIPOS>BOND
   1    1    2 ar
   2    1    3 ar
   3    1   20 1
   4    2   17 1
   5    2    6 ar
   6    3    4 ar
   7    3   30 1
   8    4    5 ar
   9    4   31 1
  10    5    6 ar
  11    5    7 1
  12    6   32 1
  13    7    8 1
  14    7   16 2
  15    8    9 1
  16    8   33 1
  17    8   34 1
  18    9   10 1
  19    9   35 1
  20    9   36 1
  21   10   11 1
  22   10   12 1
  23   11   15 1
  24   11   37 1
  25   11   38 1
  26   12   13 1
  27   12   39 1
  28   12   40 1
  29   13   14 1
  30   13   41 1
  31   13   42 1
  32   14   15 ar
  33   14   22 ar
  34   15   25 ar
  35   17   18 am
  36   17   43 1
  37   18   19 1
  38   18   21 2
  39   19   20 1
  40   19   44 1
  41   19   45 1
  42   22   23 ar
  43   22   46 1
  44   23   24 ar
  45   23   28 1
  46   24   25 ar
  47   24   26 1
  48   25   47 1
  49   26   27 1
  50   27   48 1
  51   27   49 1
  52   27   50 1
  53   28   29 1
  54   29   51 1
  55   29   52 1
  56   29   53 1

#	End of record

