#	Name: ASD05510004
#	Creating user name:	WinNT
#	Creation time:	15. 06. 2019 21:01

#	Modifying user name:	WinNT
#	Modification time:	15. 06. 2019 21:01

#	Program:	/corina/corina34_cracker 3.40 0067  02.08.2006

@<TRIPOS>MOLECULE
ASD05510004
  41   44    0    0    0
SMALL
NO_CHARGES


@<TRIPOS>ATOM
   1 C1            -0.1814     1.4799    -1.1046 C.ar    
   2 C2            -0.2361     0.1673    -1.5290 C.ar    
   3 C3             0.9325    -0.5605    -1.6867 C.ar    
   4 C4             2.1606     0.0149    -1.4221 C.ar    
   5 C5             1.0498     2.0675    -0.8363 C.ar    
   6 C6             1.4512     3.4171    -0.3775 C.2     
   7 C7             2.2344     1.3349    -0.9935 C.ar    
   8 N8             3.3192     2.1415    -0.6636 N.am    
   9 C9             2.9217     3.3717    -0.2968 C.2     
  10 O10            3.6485     4.2872     0.0432 O.2     
  11 C11            0.6361     4.4736    -0.0922 C.2     
  12 C12           -0.8185     4.2933    -0.0747 C.2     
  13 C13           -1.3733     3.3683     0.7339 C.2     
  14 C14           -1.6808     5.1296    -0.9474 C.ar    
  15 Cl15           0.8527    -2.2104    -2.2210 Cl      
  16 C16            4.6554     1.7247    -0.7093 C.ar    
  17 C17            5.1093     0.7464     0.1655 C.ar    
  18 C18            6.4277     0.3376     0.1180 C.ar    
  19 C19            7.2953     0.9013    -0.7994 C.ar    
  20 C20            6.8464     1.8761    -1.6715 C.ar    
  21 C21            5.5277     2.2848    -1.6332 C.ar    
  22 C22           -3.2417     6.7290    -2.5041 C.ar    
  23 C23           -3.2004     5.3730    -2.7736 C.ar    
  24 C24           -2.4109     4.5505    -1.9887 C.ar    
  25 C25           -1.7796     6.5029    -0.7377 C.ar    
  26 N26           -2.5451     7.2460    -1.5107 N.ar    
  27 H27           -1.0913     2.0495    -0.9856 H       
  28 H28           -1.1905    -0.2928    -1.7381 H       
  29 H29            3.0647    -0.5623    -1.5482 H       
  30 H30            1.0627     5.4427     0.1206 H       
  31 H31           -2.4450     3.2354     0.7468 H       
  32 H32           -0.7460     2.7600     1.3687 H       
  33 H33            4.4323     0.3060     0.8824 H       
  34 H34            6.7814    -0.4230     0.7983 H       
  35 H35            8.3258     0.5799    -0.8346 H       
  36 H36            7.5267     2.3150    -2.3864 H       
  37 H37            5.1766     3.0427    -2.3178 H       
  38 H38           -3.8564     7.3739    -3.1146 H       
  39 H39           -3.7755     4.9609    -3.5896 H       
  40 H40           -2.3601     3.4882    -2.1765 H       
  41 H41           -1.2240     6.9627     0.0662 H       
@<TRIPOS>BOND
   1    1    2 ar
   2    1    5 ar
   3    1   27 1
   4    2    3 ar
   5    2   28 1
   6    3    4 ar
   7    3   15 1
   8    4    7 ar
   9    4   29 1
  10    5    7 ar
  11    5    6 1
  12    6    9 1
  13    6   11 2
  14    7    8 1
  15    8    9 am
  16    8   16 1
  17    9   10 2
  18   11   12 1
  19   11   30 1
  20   12   13 2
  21   12   14 1
  22   13   31 1
  23   13   32 1
  24   14   25 ar
  25   14   24 ar
  26   16   17 ar
  27   16   21 ar
  28   17   18 ar
  29   17   33 1
  30   18   19 ar
  31   18   34 1
  32   19   20 ar
  33   19   35 1
  34   20   21 ar
  35   20   36 1
  36   21   37 1
  37   22   23 ar
  38   22   26 ar
  39   22   38 1
  40   23   24 ar
  41   23   39 1
  42   24   40 1
  43   25   26 ar
  44   25   41 1

#	End of record

