#	Name: ASD01940551
#	Creating user name:	WinNT
#	Creation time:	15. 06. 2019 20:12

#	Modifying user name:	WinNT
#	Modification time:	15. 06. 2019 20:12

#	Program:	/corina/corina34_cracker 3.40 0067  02.08.2006

@<TRIPOS>MOLECULE
ASD01940551
  69   74    0    0    0
SMALL
NO_CHARGES


@<TRIPOS>ATOM
   1 C1            -0.1531     1.4045    -0.3626 C.ar    
   2 C2             0.1001     0.6047     0.7421 C.ar    
   3 C3             1.2550    -0.1636     0.7888 C.ar    
   4 C4             2.1534    -0.1294    -0.2703 C.ar    
   5 C5             1.8981     0.6684    -1.3692 C.ar    
   6 C6             0.7494     1.4342    -1.4185 C.ar    
   7 N7            -1.3202     2.1767    -0.4161 N.am    
   8 C8            -1.2451     3.5361    -0.1668 C.2     
   9 C9            -2.4256     4.3150    -0.2213 C.2     
  10 C10           -3.6968     3.6320    -0.5451 C.2     
  11 N11           -3.6519     2.2502    -0.7785 N.am    
  12 C12           -2.4877     1.5838    -0.7136 C.2     
  13 C13           -0.0476     4.1575     0.1344 C.2     
  14 C14           -0.0345     5.5334     0.3761 C.2     
  15 N15           -1.1662     6.2577     0.3204 N.am    
  16 C16           -2.3652     5.6747     0.0257 C.2     
  17 N17           -3.5077     6.4359    -0.0253 N.pl3   
  18 C18           -1.1117     7.6983     0.5807 C.3     
  19 O19            1.0211     6.0870     0.6426 O.2     
  20 C20            1.2292     3.3597     0.2016 C.3     
  21 C21           -4.8473     4.3077    -0.6123 C.2     
  22 C22           -4.8847     1.5281    -1.1024 C.3     
  23 N23            1.5143    -0.9709     1.9009 N.am    
  24 C24            1.1413    -0.5641     3.1305 C.2     
  25 C25            1.3096    -1.4655     4.2898 C.ar    
  26 O26            0.6665     0.5441     3.2861 O.2     
  27 C27           -4.2921     6.5984     1.1222 C.ar    
  28 C28           -3.8657     6.0765     2.3361 C.ar    
  29 C29           -4.6419     6.2382     3.4672 C.ar    
  30 C30           -5.8436     6.9195     3.3927 C.ar    
  31 C31           -6.2727     7.4413     2.1856 C.ar    
  32 C32           -5.4978     7.2880     1.0504 C.ar    
  33 F33           -5.9140     7.8023    -0.1275 F       
  34 O34           -2.4919     0.3873    -0.9285 O.2     
  35 I35           -7.0166     7.1608     5.1116 I       
  36 C36            0.9244    -1.0473     5.5647 C.ar    
  37 C37            1.0837    -1.8937     6.6423 C.ar    
  38 C38            1.6244    -3.1545     6.4617 C.ar    
  39 C39            2.0088    -3.5750     5.2008 C.ar    
  40 C40            1.8491    -2.7408     4.1137 C.ar    
  41 C41           -5.5630     1.8508    -2.4354 C.3     
  42 C42           -4.8315     0.5196    -2.2518 C.3     
  43 H43           -0.5998     0.5802     1.5643 H       
  44 H44            3.0525    -0.7267    -0.2345 H       
  45 H45            2.5982     0.6936    -2.1911 H       
  46 H46            0.5525     2.0565    -2.2790 H       
  47 H47           -3.7707     6.8608    -0.8567 H       
  48 H48           -0.1018     7.9749     0.8835 H       
  49 H49           -1.3810     8.2416    -0.3251 H       
  50 H50           -1.8117     7.9504     1.3773 H       
  51 H51            1.6436     3.2522    -0.8008 H       
  52 H52            1.9474     3.8764     0.8382 H       
  53 H53            1.0199     2.3735     0.6159 H       
  54 H54           -4.8734     5.3565    -0.3556 H       
  55 H55           -5.7513     3.8053    -0.9233 H       
  56 H56           -5.5278     1.2920    -0.2546 H       
  57 H57            1.9625    -1.8236     1.7873 H       
  58 H58           -2.9279     5.5441     2.3958 H       
  59 H59           -4.3102     5.8319     4.4113 H       
  60 H60           -7.2113     7.9726     2.1305 H       
  61 H61            0.5028    -0.0632     5.7071 H       
  62 H62            0.7861    -1.5715     7.6292 H       
  63 H63            1.7474    -3.8131     7.3088 H       
  64 H64            2.4305    -4.5602     5.0667 H       
  65 H65            2.1454    -3.0719     3.1293 H       
  66 H66           -6.6524     1.8266    -2.4646 H       
  67 H67           -5.0920     2.6004    -3.0713 H       
  68 H68           -3.8793     0.3934    -2.7669 H       
  69 H69           -5.4396    -0.3804    -2.1602 H       
@<TRIPOS>BOND
   1    1    2 ar
   2    1    6 ar
   3    1    7 1
   4    2    3 ar
   5    2   43 1
   6    3    4 ar
   7    3   23 1
   8    4    5 ar
   9    4   44 1
  10    5    6 ar
  11    5   45 1
  12    6   46 1
  13    7    8 1
  14    7   12 am
  15    8   13 2
  16    8    9 1
  17    9   10 1
  18    9   16 2
  19   10   11 1
  20   10   21 2
  21   11   12 am
  22   11   22 1
  23   12   34 2
  24   13   14 1
  25   13   20 1
  26   14   15 am
  27   14   19 2
  28   15   16 1
  29   15   18 1
  30   16   17 1
  31   17   27 1
  32   17   47 1
  33   18   48 1
  34   18   49 1
  35   18   50 1
  36   20   51 1
  37   20   52 1
  38   20   53 1
  39   21   54 1
  40   21   55 1
  41   22   41 1
  42   22   42 1
  43   22   56 1
  44   23   24 am
  45   23   57 1
  46   24   25 1
  47   24   26 2
  48   25   36 ar
  49   25   40 ar
  50   27   28 ar
  51   27   32 ar
  52   28   29 ar
  53   28   58 1
  54   29   30 ar
  55   29   59 1
  56   30   31 ar
  57   30   35 1
  58   31   32 ar
  59   31   60 1
  60   32   33 1
  61   36   37 ar
  62   36   61 1
  63   37   38 ar
  64   37   62 1
  65   38   39 ar
  66   38   63 1
  67   39   40 ar
  68   39   64 1
  69   40   65 1
  70   41   42 1
  71   41   66 1
  72   41   67 1
  73   42   68 1
  74   42   69 1

#	End of record

