#	Name: ASD01880315
#	Creating user name:	WinNT
#	Creation time:	15. 06. 2019 19:40

#	Modifying user name:	WinNT
#	Modification time:	15. 06. 2019 19:40

#	Program:	/corina/corina34_cracker 3.40 0067  02.08.2006

@<TRIPOS>MOLECULE
ASD01880315
  48   50    0    0    0
SMALL
NO_CHARGES


@<TRIPOS>ATOM
   1 C1            -0.0161     1.3387     0.0094 C.2     
   2 C2             0.0021    -0.0041     0.0020 C.2     
   3 N3             1.1657    -0.7198    -0.0129 N.am    
   4 C4             2.3753    -0.1257    -0.0209 C.2     
   5 C5             2.4546     1.3393    -0.0138 C.ar    
   6 C6             1.2484     2.0753     0.0013 C.ar    
   7 O7             3.3913    -0.7974    -0.0334 O.2     
   8 C8             1.0961    -2.1832    -0.0201 C.3     
   9 C9             1.0581    -2.6849    -1.4650 C.3     
  10 C10            0.9854    -4.2131    -1.4725 C.3     
  11 C11            3.6767     2.0123    -0.0219 C.ar    
  12 C12            3.6963     3.3892    -0.0152 C.ar    
  13 C13            2.5140     4.1172     0.0001 C.ar    
  14 C14            1.2906     3.4750     0.0080 C.ar    
  15 O15            0.1386     4.1953     0.0234 O.3     
  16 C16            0.2636     5.6188     0.0308 C.3     
  17 C17           -1.1287     6.2529     0.0480 C.3     
  18 C18           -0.9970     7.7541     0.0558 C.ar    
  19 C19           -0.9481     8.4488    -1.1387 C.ar    
  20 C20           -0.8273     9.8250    -1.1342 C.ar    
  21 C21           -0.7551    10.5099     0.0701 C.ar    
  22 C22           -0.8043     9.8104     1.2672 C.ar    
  23 C23           -0.9308     8.4348     1.2574 C.ar    
  24 O24           -0.6358    11.8636     0.0771 O.3     
  25 C25           -0.5669    12.5022     1.3537 C.3     
  26 H26           -0.9561     1.8706     0.0167 H       
  27 H27           -0.9370    -0.5374     0.0085 H       
  28 H28            1.9727    -2.5911     0.4832 H       
  29 H29            0.1948    -2.5066     0.5006 H       
  30 H30            0.1815    -2.2770    -1.9683 H       
  31 H31            1.9594    -2.3614    -1.9858 H       
  32 H32            0.9583    -4.5705    -2.5019 H       
  33 H33            1.8620    -4.6210    -0.9692 H       
  34 H34            0.0841    -4.5366    -0.9517 H       
  35 H35            4.6025     1.4563    -0.0331 H       
  36 H36            4.6429     3.9092    -0.0215 H       
  37 H37            2.5510     5.1966     0.0060 H       
  38 H38            0.8157     5.9304     0.9174 H       
  39 H39            0.7987     5.9412    -0.8624 H       
  40 H40           -1.6809     5.9412    -0.8387 H       
  41 H41           -1.6638     5.9304     0.9412 H       
  42 H42           -1.0040     7.9151    -2.0759 H       
  43 H43           -0.7889    10.3671    -2.0674 H       
  44 H44           -0.7483    10.3414     2.2060 H       
  45 H45           -0.9692     7.8899     2.1890 H       
  46 H46           -0.4734    13.5794     1.2165 H       
  47 H47           -1.4739    12.2851     1.9179 H       
  48 H48            0.2991    12.1290     1.9003 H       
@<TRIPOS>BOND
   1    1    2 2
   2    1    6 1
   3    1   26 1
   4    2    3 1
   5    2   27 1
   6    3    4 am
   7    3    8 1
   8    4    5 1
   9    4    7 2
  10    5    6 ar
  11    5   11 ar
  12    6   14 ar
  13    8    9 1
  14    8   28 1
  15    8   29 1
  16    9   10 1
  17    9   30 1
  18    9   31 1
  19   10   32 1
  20   10   33 1
  21   10   34 1
  22   11   12 ar
  23   11   35 1
  24   12   13 ar
  25   12   36 1
  26   13   14 ar
  27   13   37 1
  28   14   15 1
  29   15   16 1
  30   16   17 1
  31   16   38 1
  32   16   39 1
  33   17   18 1
  34   17   40 1
  35   17   41 1
  36   18   19 ar
  37   18   23 ar
  38   19   20 ar
  39   19   42 1
  40   20   21 ar
  41   20   43 1
  42   21   22 ar
  43   21   24 1
  44   22   23 ar
  45   22   44 1
  46   23   45 1
  47   24   25 1
  48   25   46 1
  49   25   47 1
  50   25   48 1

#	End of record

