#	Name: ASD03240327
#	Creating user name:	WinNT
#	Creation time:	15. 06. 2019 20:34

#	Modifying user name:	WinNT
#	Modification time:	15. 06. 2019 20:34

#	Program:	/corina/corina34_cracker 3.40 0067  02.08.2006

@<TRIPOS>MOLECULE
ASD03240327
  50   54    0    0    0
SMALL
NO_CHARGES


@<TRIPOS>ATOM
   1 N1            -0.0159     1.3204     0.0093 N.2     
   2 C2             0.0021    -0.0041     0.0020 C.2     
   3 N3             1.3084    -0.4312    -0.0128 N.pl3   
   4 C4             2.0989     0.6928    -0.0143 C.2     
   5 C5             1.2395     1.7834    -0.0002 C.2     
   6 C6             3.5738     0.7330    -0.0277 C.ar    
   7 C7             4.3066    -0.1065     0.8151 C.ar    
   8 C8             5.6850    -0.0638     0.7968 C.ar    
   9 C9             6.3423     0.8082    -0.0533 C.ar    
  10 C10            5.6230     1.6429    -0.8904 C.ar    
  11 C11            4.2443     1.6067    -0.8874 C.ar    
  12 C12            1.6419     3.2095     0.0032 C.ar    
  13 C13            0.8745     4.1550    -0.6762 C.ar    
  14 C14            1.2543     5.4815    -0.6695 C.ar    
  15 C15            2.3940     5.8742     0.0094 C.ar    
  16 C16            3.1594     4.9407     0.6852 C.ar    
  17 C17            2.7864     3.6122     0.6905 C.ar    
  18 C18           -1.0367    -0.9594     0.0072 C.2     
  19 C19           -0.6922    -2.2793    -0.0028 C.2     
  20 C20            0.6795    -2.6190    -0.0178 C.2     
  21 N21            1.5999    -1.6831    -0.0223 N.2     
  22 C22            2.8036     7.3244     0.0124 C.3     
  23 N23            1.6950     8.2309    -0.3152 N.3     
  24 C24            3.5889     7.7401     1.2675 C.3     
  25 C25            4.0856     7.6041    -0.7895 C.3     
  26 C26            4.4812     8.5773     0.3359 C.3     
  27 C27            1.0823    -4.0437    -0.0284 C.2     
  28 O28            0.2348    -4.9148    -0.0242 O.2     
  29 N29            2.3887    -4.3747    -0.0427 N.am    
  30 H30            3.7948    -0.7870     1.4795 H       
  31 H31            6.2527    -0.7121     1.4477 H       
  32 H32            7.4219     0.8377    -0.0631 H       
  33 H33            6.1426     2.3215    -1.5508 H       
  34 H34            3.6843     2.2555    -1.5445 H       
  35 H35           -0.0152     3.8496    -1.2069 H       
  36 H36            0.6610     6.2147    -1.1956 H       
  37 H37            4.0482     5.2531     1.2132 H       
  38 H38            3.3823     2.8850     1.2221 H       
  39 H39           -2.0728    -0.6548     0.0192 H       
  40 H40           -1.4510    -3.0478     0.0010 H       
  41 H41            1.2235     7.9360    -1.1571 H       
  42 H42            1.0477     8.3037     0.4553 H       
  43 H43            3.0069     8.3385     1.9685 H       
  44 H44            4.1131     6.9141     1.7481 H       
  45 H45            4.7459     6.7408    -0.8724 H       
  46 H46            3.9040     8.0927    -1.7468 H       
  47 H47            4.1178     9.5934     0.1823 H       
  48 H48            5.5396     8.5397     0.5937 H       
  49 H49            3.0651    -3.6794    -0.0461 H       
  50 H50            2.6526    -5.3081    -0.0497 H       
@<TRIPOS>BOND
   1    1    2 2
   2    1    5 1
   3    2    3 1
   4    2   18 1
   5    3    4 1
   6    3   21 1
   7    4    5 2
   8    4    6 1
   9    5   12 1
  10    6    7 ar
  11    6   11 ar
  12    7    8 ar
  13    7   30 1
  14    8    9 ar
  15    8   31 1
  16    9   10 ar
  17    9   32 1
  18   10   11 ar
  19   10   33 1
  20   11   34 1
  21   12   13 ar
  22   12   17 ar
  23   13   14 ar
  24   13   35 1
  25   14   15 ar
  26   14   36 1
  27   15   16 ar
  28   15   22 1
  29   16   17 ar
  30   16   37 1
  31   17   38 1
  32   18   19 2
  33   18   39 1
  34   19   20 1
  35   19   40 1
  36   20   21 2
  37   20   27 1
  38   22   23 1
  39   22   24 1
  40   22   25 1
  41   23   41 1
  42   23   42 1
  43   24   26 1
  44   24   43 1
  45   24   44 1
  46   25   26 1
  47   25   45 1
  48   25   46 1
  49   26   47 1
  50   26   48 1
  51   27   28 2
  52   27   29 am
  53   29   49 1
  54   29   50 1

#	End of record

