#	Name: ASD05250022
#	Creating user name:	WinNT
#	Creation time:	15. 06. 2019 20:58

#	Modifying user name:	WinNT
#	Modification time:	15. 06. 2019 20:58

#	Program:	/corina/corina34_cracker 3.40 0067  02.08.2006

@<TRIPOS>MOLECULE
ASD05250022
  82   85    0    0    0
SMALL
NO_CHARGES


@<TRIPOS>ATOM
   1 C1             1.1277     4.3778     3.1328 C.3     
   2 C2             0.1394     3.3591     2.6233 C.2     
   3 C3             0.3245     1.8927     2.9722 C.3     
   4 C4             1.7765     1.5060     2.7775 C.3     
   5 C5             2.7864     2.5056     3.3477 C.3     
   6 C6             2.5236     3.8949     2.7378 C.3     
   7 C7             2.1044     0.1110     3.2997 C.3     
   8 C8             3.4682    -0.3082     2.7268 C.3     
   9 C9             4.5640     0.6464     3.2072 C.3     
  10 C10            4.1864     2.0866     2.8934 C.3     
  11 C11            5.8834     0.3272     2.4960 C.3     
  12 C12            7.0015     1.2071     3.0624 C.3     
  13 C13            6.5867     2.6317     2.8015 C.2     
  14 C14            5.2500     3.0786     3.3800 C.3     
  15 C15            6.5259    -1.0605     2.7109 C.3     
  16 C16            7.9282    -0.8219     2.1188 C.3     
  17 C17            8.2266     0.6639     2.3299 C.3     
  18 C18            2.7037     2.6357     4.8616 C.3     
  19 O19            1.1443    -0.8574     2.8693 O.3     
  20 C20           -0.2086     1.6086     4.3711 C.3     
  21 C21           -0.5553     1.1192     1.9601 C.3     
  22 O22           -0.7990     3.7004     1.9404 O.2     
  23 C23            4.7787     0.4129     4.7104 C.3     
  24 C24            5.7582     0.5598     0.9890 C.3     
  25 C25            9.4733     0.8273     3.2049 C.3     
  26 C26            9.8516     2.3078     3.2821 C.3     
  27 C27           11.1555     2.4606     4.0679 C.3     
  28 O28            8.8107     3.0317     3.9411 O.3     
  29 C29           10.0407     2.8603     1.8679 C.3     
  30 C30           11.5282     3.9188     4.1439 C.2     
  31 C31           12.6762     4.3274     3.6631 C.2     
  32 C32           13.6671     3.3270     3.1261 C.3     
  33 C33           13.0060     5.7978     3.6470 C.3     
  34 O34            7.2724     3.3939     2.1696 O.2     
  35 H35            0.9320     5.3419     2.6457 H       
  36 H36            1.0350     4.5079     4.2048 H       
  37 H37            1.9601     1.4800     1.6759 H       
  38 H38            2.5956     3.8253     1.6536 H       
  39 H39            3.2674     4.5960     3.1129 H       
  40 H40            2.1456     0.0964     4.3847 H       
  41 H41            3.6955    -1.3189     3.0705 H       
  42 H42            3.4002    -0.3019     1.6417 H       
  43 H43            4.1491     2.2023     1.7892 H       
  44 H44            7.1435     1.0483     4.1352 H       
  45 H45            5.0270     4.0768     3.0069 H       
  46 H46            5.3180     3.0897     4.4609 H       
  47 H47            6.5933    -1.3138     3.7643 H       
  48 H48            5.9918    -1.8236     2.1483 H       
  49 H49            8.6604    -1.4248     2.6599 H       
  50 H50            7.9487    -1.0741     1.0631 H       
  51 H51            8.3693     1.1704     1.3795 H       
  52 H52            2.7659     1.6466     5.3152 H       
  53 H53            3.5287     3.2519     5.2189 H       
  54 H54            1.7571     3.1019     5.1350 H       
  55 H55            1.3226    -1.7545     3.1834 H       
  56 H56           -1.2555     1.9068     4.4285 H       
  57 H57           -0.1222     0.5430     4.5834 H       
  58 H58            0.3705     2.1728     5.1022 H       
  59 H59           -0.2180     1.3350     0.9463 H       
  60 H60           -0.4727     0.0491     2.1505 H       
  61 H61           -1.5944     1.4289     2.0710 H       
  62 H62            5.1994    -0.5803     4.8673 H       
  63 H63            5.4655     1.1641     5.1004 H       
  64 H64            3.8236     0.4892     5.2300 H       
  65 H65            5.5018     1.6027     0.8024 H       
  66 H66            6.7068     0.3267     0.5053 H       
  67 H67            4.9767    -0.0842     0.5856 H       
  68 H68            9.2654     0.4527     4.2071 H       
  69 H69           10.2987     0.2635     2.7702 H       
  70 H70           11.0208     2.0670     5.0753 H       
  71 H71           11.9495     1.9084     3.5652 H       
  72 H72            8.6359     2.7344     4.8445 H       
  73 H73            9.1356     2.6866     1.2859 H       
  74 H74           10.2395     3.9307     1.9196 H       
  75 H75           10.8816     2.3571     1.3907 H       
  76 H76           10.8488     4.6270     4.5948 H       
  77 H77           13.4285     3.1012     2.0868 H       
  78 H78           14.6726     3.7436     3.1857 H       
  79 H79           13.6170     2.4127     3.7173 H       
  80 H80           13.5065     6.0681     4.5768 H       
  81 H81           13.6632     6.0136     2.8046 H       
  82 H82           12.0868     6.3752     3.5480 H       
@<TRIPOS>BOND
   1    1    2 1
   2    1    6 1
   3    1   35 1
   4    1   36 1
   5    2    3 1
   6    2   22 2
   7    3   20 1
   8    3   21 1
   9    3    4 1
  10    4    5 1
  11    4    7 1
  12    4   37 1
  13    5    6 1
  14    5   18 1
  15    5   10 1
  16    6   38 1
  17    6   39 1
  18    7    8 1
  19    7   19 1
  20    7   40 1
  21    8    9 1
  22    8   41 1
  23    8   42 1
  24    9   11 1
  25    9   23 1
  26    9   10 1
  27   10   14 1
  28   10   43 1
  29   11   15 1
  30   11   24 1
  31   11   12 1
  32   12   13 1
  33   12   17 1
  34   12   44 1
  35   13   14 1
  36   13   34 2
  37   14   45 1
  38   14   46 1
  39   15   16 1
  40   15   47 1
  41   15   48 1
  42   16   17 1
  43   16   49 1
  44   16   50 1
  45   17   25 1
  46   17   51 1
  47   18   52 1
  48   18   53 1
  49   18   54 1
  50   19   55 1
  51   20   56 1
  52   20   57 1
  53   20   58 1
  54   21   59 1
  55   21   60 1
  56   21   61 1
  57   23   62 1
  58   23   63 1
  59   23   64 1
  60   24   65 1
  61   24   66 1
  62   24   67 1
  63   25   26 1
  64   25   68 1
  65   25   69 1
  66   26   27 1
  67   26   28 1
  68   26   29 1
  69   27   30 1
  70   27   70 1
  71   27   71 1
  72   28   72 1
  73   29   73 1
  74   29   74 1
  75   29   75 1
  76   30   31 2
  77   30   76 1
  78   31   32 1
  79   31   33 1
  80   32   77 1
  81   32   78 1
  82   32   79 1
  83   33   80 1
  84   33   81 1
  85   33   82 1

#	End of record

