#	Name: ASD03740246
#	Creating user name:	WinNT
#	Creation time:	15. 06. 2019 20:46

#	Modifying user name:	WinNT
#	Modification time:	15. 06. 2019 20:46

#	Program:	/corina/corina34_cracker 3.40 0067  02.08.2006

@<TRIPOS>MOLECULE
ASD03740246
  63   67    0    0    0
SMALL
NO_CHARGES


@<TRIPOS>ATOM
   1 C1            -0.0187     1.5258     0.0104 C.3     
   2 C2             0.0021    -0.0041     0.0020 C.3     
   3 N3             0.7106    -0.4894     1.1889 N.am    
   4 C4             1.9984    -0.1474     1.3917 C.2     
   5 C5             2.7119    -0.6361     2.5868 C.ar    
   6 C6             2.0329    -1.4535     3.4972 C.ar    
   7 C7             2.6360    -1.9380     4.6256 C.ar    
   8 C8             3.9768    -1.5806     4.8386 C.ar    
   9 C9             4.6775    -0.7530     3.9178 C.ar    
  10 N10            5.9447    -0.5952     4.3959 N.pl3   
  11 C11            6.0482    -1.2905     5.5928 C.2     
  12 C12            7.3093    -1.2933     6.3641 C.ar    
  13 C13            7.9785    -0.0636     6.5098 C.ar    
  14 C14            9.1907    -0.0230     7.1704 C.ar    
  15 C15            9.7178    -1.1811     7.7136 C.ar    
  16 C16            9.0424    -2.3843     7.6005 C.ar    
  17 C17            7.8381    -2.4466     6.9250 C.ar    
  18 O18            7.3711     1.0547     6.0514 O.3     
  19 C19            7.3890     1.3775     4.6609 C.3     
  20 C20            7.0636     0.1484     3.8120 C.3     
  21 C21            4.8731    -1.8949     5.8747 C.2     
  22 C22            4.5775    -2.7500     7.0799 C.3     
  23 C23            3.4321    -2.1257     7.8795 C.3     
  24 C24            3.1319    -2.9938     9.1031 C.3     
  25 C25            2.7293    -4.3974     8.6463 C.3     
  26 C26            3.8746    -5.0216     7.8467 C.3     
  27 C27            4.1748    -4.1535     6.6231 C.3     
  28 C28            4.0511    -0.2735     2.7754 C.ar    
  29 O29            2.5722     0.5640     0.5896 O.2     
  30 C30           -1.4117    -0.5257     0.0127 C.2     
  31 O31           -2.3109     0.1573    -0.4173 O.2     
  32 O32           -1.6721    -1.7490     0.4999 O.3     
  33 C33            0.7182    -0.4975    -1.2568 C.3     
  34 H34            1.0039     1.9031     0.0027 H       
  35 H35           -0.5459     1.8868    -0.8726 H       
  36 H36           -0.5289     1.8773     0.9072 H       
  37 H37            0.2529    -1.0568     1.8287 H       
  38 H38            1.0017    -1.7094     3.3033 H       
  39 H39            2.1035    -2.5679     5.3228 H       
  40 H40            9.7260     0.9105     7.2625 H       
  41 H41           10.6655    -1.1463     8.2304 H       
  42 H42            9.4581    -3.2779     8.0421 H       
  43 H43            7.3128    -3.3859     6.8349 H       
  44 H44            6.6507     2.1548     4.4639 H       
  45 H45            8.3783     1.7475     4.3915 H       
  46 H46            7.9397    -0.4982     3.7634 H       
  47 H47            6.7979     0.4667     2.8039 H       
  48 H48            5.4664    -2.8132     7.7075 H       
  49 H49            3.7190    -1.1257     8.2050 H       
  50 H50            2.5431    -2.0625     7.2520 H       
  51 H51            4.0209    -3.0570     9.7307 H       
  52 H52            2.3159    -2.5490     9.6728 H       
  53 H53            2.5154    -5.0158     9.5180 H       
  54 H54            1.8403    -4.3341     8.0188 H       
  55 H55            4.7636    -5.0848     8.4743 H       
  56 H56            3.5878    -6.0216     7.5213 H       
  57 H57            3.2858    -4.0903     5.9956 H       
  58 H58            4.9908    -4.5983     6.0535 H       
  59 H59            4.5716     0.3538     2.0668 H       
  60 H60           -2.5941    -2.0401     0.4858 H       
  61 H61            1.7408    -0.1202    -1.2645 H       
  62 H62            0.7330    -1.5874    -1.2628 H       
  63 H63            0.1910    -0.1364    -2.1398 H       
@<TRIPOS>BOND
   1    1    2 1
   2    1   34 1
   3    1   35 1
   4    1   36 1
   5    2    3 1
   6    2   30 1
   7    2   33 1
   8    3    4 am
   9    3   37 1
  10    4    5 1
  11    4   29 2
  12    5    6 ar
  13    5   28 ar
  14    6    7 ar
  15    6   38 1
  16    7    8 ar
  17    7   39 1
  18    8    9 ar
  19    8   21 1
  20    9   10 1
  21    9   28 ar
  22   10   11 1
  23   10   20 1
  24   11   12 1
  25   11   21 2
  26   12   13 ar
  27   12   17 ar
  28   13   14 ar
  29   13   18 1
  30   14   15 ar
  31   14   40 1
  32   15   16 ar
  33   15   41 1
  34   16   17 ar
  35   16   42 1
  36   17   43 1
  37   18   19 1
  38   19   20 1
  39   19   44 1
  40   19   45 1
  41   20   46 1
  42   20   47 1
  43   21   22 1
  44   22   23 1
  45   22   27 1
  46   22   48 1
  47   23   24 1
  48   23   49 1
  49   23   50 1
  50   24   25 1
  51   24   51 1
  52   24   52 1
  53   25   26 1
  54   25   53 1
  55   25   54 1
  56   26   27 1
  57   26   55 1
  58   26   56 1
  59   27   57 1
  60   27   58 1
  61   28   59 1
  62   30   31 2
  63   30   32 1
  64   32   60 1
  65   33   61 1
  66   33   62 1
  67   33   63 1

#	End of record

