#	Name: ASD01914182
#	Creating user name:	WinNT
#	Creation time:	15. 06. 2019 20:03

#	Modifying user name:	WinNT
#	Modification time:	15. 06. 2019 20:03

#	Program:	/corina/corina34_cracker 3.40 0067  02.08.2006

@<TRIPOS>MOLECULE
ASD01914182
  31   32    0    0    0
SMALL
NO_CHARGES


@<TRIPOS>ATOM
   1 N1            -0.0169     1.3965     0.0097 N.2     
   2 N2             0.0021    -0.0041     0.0020 N.pl3   
   3 C3             1.2284     1.8226     0.0001 C.2     
   4 C4             2.0722     0.6950    -0.0140 C.2     
   5 C5             1.2909    -0.4070    -0.0125 C.2     
   6 C6             1.7727    -1.8348    -0.0243 C.3     
   7 C7             1.6661     3.2408     0.0031 C.ar    
   8 C8             3.0185     3.5554    -0.1136 C.ar    
   9 C9             3.4199     4.8757    -0.1108 C.ar    
  10 C10            2.4824     5.8861     0.0078 C.ar    
  11 C11            1.1389     5.5794     0.1244 C.ar    
  12 C12            0.7258     4.2623     0.1169 C.ar    
  13 C13            2.0682    -2.2852     1.4078 C.3     
  14 C14            0.1235     6.6854     0.2541 C.3     
  15 C15           -0.3549     7.1043    -1.1375 C.3     
  16 H16           -0.7755    -0.5839     0.0066 H       
  17 H17            3.1521     0.7089    -0.0246 H       
  18 H18            1.0024    -2.4747    -0.4548 H       
  19 H19            2.6810    -1.9068    -0.6225 H       
  20 H20            3.7513     2.7674    -0.2058 H       
  21 H21            4.4679     5.1207    -0.2008 H       
  22 H22            2.8009     6.9180     0.0096 H       
  23 H23           -0.3236     4.0239     0.2080 H       
  24 H24            2.4167    -3.3180     1.3992 H       
  25 H25            2.8385    -1.6454     1.8383 H       
  26 H26            1.1599    -2.2132     2.0060 H       
  27 H27           -0.7257     6.3323     0.8392 H       
  28 H28            0.5791     7.5401     0.7542 H       
  29 H29            0.4942     7.4575    -1.7226 H       
  30 H30           -0.8105     6.2497    -1.6377 H       
  31 H31           -1.0893     7.9043    -1.0437 H       
@<TRIPOS>BOND
   1    1    2 1
   2    1    3 2
   3    2    5 1
   4    2   16 1
   5    3    4 1
   6    3    7 1
   7    4    5 2
   8    4   17 1
   9    5    6 1
  10    6   13 1
  11    6   18 1
  12    6   19 1
  13    7    8 ar
  14    7   12 ar
  15    8    9 ar
  16    8   20 1
  17    9   10 ar
  18    9   21 1
  19   10   11 ar
  20   10   22 1
  21   11   12 ar
  22   11   14 1
  23   12   23 1
  24   13   24 1
  25   13   25 1
  26   13   26 1
  27   14   15 1
  28   14   27 1
  29   14   28 1
  30   15   29 1
  31   15   30 1
  32   15   31 1

#	End of record

