#	Name: ASD01900701
#	Creating user name:	WinNT
#	Creation time:	15. 06. 2019 19:52

#	Modifying user name:	WinNT
#	Modification time:	15. 06. 2019 19:52

#	Program:	/corina/corina34_cracker 3.40 0067  02.08.2006

@<TRIPOS>MOLECULE
ASD01900701
  32   35    0    0    0
SMALL
NO_CHARGES


@<TRIPOS>ATOM
   1 C1            -0.0183     1.4026     0.1323 C.ar    
   2 C2            -0.0081     0.0177     0.1212 C.ar    
   3 C3             1.1829    -0.6778     0.0628 C.ar    
   4 C4             2.3875     0.0113     0.0137 C.ar    
   5 C5             2.3724     1.4127     0.0290 C.ar    
   6 O6             3.5588    -0.6564    -0.0553 O.3     
   7 C7             4.7334    -0.0514     0.1912 C.2     
   8 C8             4.8724     1.2956     0.2216 C.2     
   9 C9             3.6750     2.1247    -0.0107 C.2     
  10 C10            5.9224    -0.8905     0.4400 C.2     
  11 N11            7.1378    -0.3024     0.6951 N.2     
  12 C12            8.2757    -0.8823     0.4467 C.2     
  13 C13            8.2188    -2.2667    -0.1339 C.3     
  14 C14            7.0752    -2.9781     0.6487 C.3     
  15 C15            5.8138    -2.2524     0.4223 C.2     
  16 C16            1.1700     2.1048     0.0863 C.ar    
  17 S17            9.5718    -3.3487     0.4444 S.3     
  18 C18            8.5127    -4.7846     0.4993 C.2     
  19 N19            7.2705    -4.3806     0.5894 N.2     
  20 N20            3.7558     3.4132    -0.2391 N.2     
  21 O21            2.5972     4.1420    -0.6019 O.3     
  22 H22           -0.9575     1.9343     0.1724 H       
  23 H23           -0.9418    -0.5238     0.1591 H       
  24 H24            1.1778    -1.7577     0.0557 H       
  25 H25            5.8338     1.7500     0.4103 H       
  26 H26            9.2165    -0.3919     0.6486 H       
  27 H27            8.0796    -2.2699    -1.2150 H       
  28 H28            7.3262    -2.7359     1.6814 H       
  29 H29            4.8756    -2.7584     0.2489 H       
  30 H30            1.1641     3.1848     0.0945 H       
  31 H31            8.8411    -5.8128     0.4634 H       
  32 H32            2.7555     5.0844    -0.7497 H       
@<TRIPOS>BOND
   1    1    2 ar
   2    1   16 ar
   3    1   22 1
   4    2    3 ar
   5    2   23 1
   6    3    4 ar
   7    3   24 1
   8    4    5 ar
   9    4    6 1
  10    5   16 ar
  11    5    9 1
  12    6    7 1
  13    7    8 2
  14    7   10 1
  15    8    9 1
  16    8   25 1
  17    9   20 2
  18   10   11 1
  19   10   15 2
  20   11   12 2
  21   12   13 1
  22   12   26 1
  23   13   14 1
  24   13   17 1
  25   13   27 1
  26   14   15 1
  27   14   19 1
  28   14   28 1
  29   15   29 1
  30   16   30 1
  31   17   18 1
  32   18   19 2
  33   18   31 1
  34   20   21 1
  35   21   32 1

#	End of record

