#	Name: ASD01914078
#	Creating user name:	WinNT
#	Creation time:	15. 06. 2019 20:02

#	Modifying user name:	WinNT
#	Modification time:	15. 06. 2019 20:02

#	Program:	/corina/corina34_cracker 3.40 0067  02.08.2006

@<TRIPOS>MOLECULE
ASD01914078
  38   39    0    0    0
SMALL
NO_CHARGES


@<TRIPOS>ATOM
   1 C1            -0.0167     1.3810     0.0096 C.ar    
   2 C2             0.0021    -0.0041     0.0020 C.ar    
   3 C3             2.4001     0.0319    -0.0208 C.ar    
   4 C4             2.3774     1.4190    -0.0131 C.ar    
   5 O5             3.5874    -0.6291    -0.0362 O.3     
   6 C6             3.5349    -2.0571    -0.0433 C.3     
   7 C7             4.9362    -2.6112    -0.0603 C.ar    
   8 N8             5.1172    -3.9180    -0.0691 N.ar    
   9 C9             6.3202    -4.4535    -0.0840 C.ar    
  10 C10            7.4569    -3.6445    -0.0905 C.ar    
  11 C11            7.2971    -2.2534    -0.0814 C.ar    
  12 C12            6.0119    -1.7411    -0.0720 C.ar    
  13 C13            8.8074    -4.2458    -0.1062 C.2     
  14 N14            8.9482    -5.5862    -0.1144 N.am    
  15 O15            9.7908    -3.5314    -0.1117 O.2     
  16 C16            1.2093    -0.6795    -0.0132 C.ar    
  17 C17           10.2864    -6.1821    -0.1299 C.3     
  18 F18           -1.1586    -0.6954     0.0099 F       
  19 C19            1.1696     2.0900     0.0021 C.ar    
  20 C20           10.8169    -6.2820     1.3017 C.3     
  21 C21           10.2148    -7.5807    -0.7461 C.3     
  22 H22           -0.9596     1.9075     0.0170 H       
  23 H23            3.3037     1.9743    -0.0186 H       
  24 H24            3.0170    -2.4061     0.8500 H       
  25 H25            2.9992    -2.3965    -0.9299 H       
  26 H26            6.4279    -5.5281    -0.0909 H       
  27 H27            8.1549    -1.5973    -0.0860 H       
  28 H28            5.8501    -0.6733    -0.0648 H       
  29 H29            8.1634    -6.1563    -0.1100 H       
  30 H30            1.2246    -1.7594    -0.0188 H       
  31 H31           10.9553    -5.5578    -0.7225 H       
  32 H32            1.1526     3.1698     0.0078 H       
  33 H33           10.1481    -6.9063     1.8942 H       
  34 H34           11.8126    -6.7254     1.2901 H       
  35 H35           10.8679    -5.2856     1.7406 H       
  36 H36            9.8369    -7.5095    -1.7660 H       
  37 H37           11.2105    -8.0240    -0.7577 H       
  38 H38            9.5460    -8.2049    -0.1536 H       
@<TRIPOS>BOND
   1    1    2 ar
   2    1   19 ar
   3    1   22 1
   4    2   16 ar
   5    2   18 1
   6    3    4 ar
   7    3    5 1
   8    3   16 ar
   9    4   19 ar
  10    4   23 1
  11    5    6 1
  12    6    7 1
  13    6   24 1
  14    6   25 1
  15    7    8 ar
  16    7   12 ar
  17    8    9 ar
  18    9   10 ar
  19    9   26 1
  20   10   11 ar
  21   10   13 1
  22   11   12 ar
  23   11   27 1
  24   12   28 1
  25   13   14 am
  26   13   15 2
  27   14   17 1
  28   14   29 1
  29   16   30 1
  30   17   20 1
  31   17   21 1
  32   17   31 1
  33   19   32 1
  34   20   33 1
  35   20   34 1
  36   20   35 1
  37   21   36 1
  38   21   37 1
  39   21   38 1

#	End of record

