#	Name: ASD05720217
#	Creating user name:	WinNT
#	Creation time:	15. 06. 2019 21:02

#	Modifying user name:	WinNT
#	Modification time:	15. 06. 2019 21:02

#	Program:	/corina/corina34_cracker 3.40 0067  02.08.2006

@<TRIPOS>MOLECULE
ASD05720217
  57   62    0    0    0
SMALL
NO_CHARGES


@<TRIPOS>ATOM
   1 P1            -0.0180     1.4758     0.0102 P.3     
   2 O2             0.0021    -0.0041     0.0020 O.2     
   3 O3             1.4924     2.0330    -0.0013 O.3     
   4 O4            -0.7967     2.0091    -1.2942 O.3     
   5 O5            -0.7716     1.9950     1.3348 O.3     
   6 C6            -2.0945     1.5864     1.6883 C.3     
   7 N7            -2.4871     2.2344     2.9422 N.pl3   
   8 N8            -3.7104     2.0882     3.6161 N.2     
   9 C9            -3.6418     2.8417     4.6922 C.2     
  10 N10           -2.4448     3.4438     4.7190 N.2     
  11 C11           -1.7443     3.0815     3.6769 C.2     
  12 C12           -4.7116     2.9994     5.7068 C.ar    
  13 C13           -4.5115     3.8344     6.8090 C.ar    
  14 C14           -5.5070     3.9805     7.7522 C.ar    
  15 C15           -6.7134     3.2940     7.6045 C.ar    
  16 C16           -6.9115     2.4601     6.5026 C.ar    
  17 C17           -5.9194     2.3188     5.5579 C.ar    
  18 C18           -9.1284     3.7472     8.3654 C.2     
  19 N19           -9.8092     3.9642     7.2358 N.2     
  20 C20          -11.1024     4.2254     7.2669 C.2     
  21 C21          -11.7820     4.2787     8.5009 C.2     
  22 C22          -11.0963     4.0597     9.6458 C.2     
  23 N23           -9.7573     3.7909     9.5815 N.pl3   
  24 N24           -8.8022     3.5279    10.5699 N.2     
  25 C25           -7.6370     3.3298    10.0040 C.2     
  26 C26           -7.7822     3.4497     8.6165 C.2     
  27 O27          -13.5254     4.8958     4.7282 O.3     
  28 C28          -13.1021     4.7221     5.9851 C.2     
  29 N29          -11.7940     4.4484     6.0835 N.am    
  30 C30          -11.2101     4.4230     4.7337 C.3     
  31 C31          -12.4052     4.7310     3.8111 C.3     
  32 C32          -10.6425     3.0609     4.4279 C.ar    
  33 C33           -9.6293     2.9365     3.4958 C.ar    
  34 C34           -9.1139     1.6790     3.2222 C.ar    
  35 C35           -9.6392     0.5888     3.8993 C.ar    
  36 C36          -10.6516     0.7905     4.8177 C.ar    
  37 N37          -11.1144     2.0022     5.0565 N.ar    
  38 O38          -13.8364     4.8053     6.9494 O.2     
  39 F39           -3.3433     4.4980     6.9509 F       
  40 H40            2.0070     1.7589    -0.7727 H       
  41 H41           -0.8486     2.9728    -1.3546 H       
  42 H42           -2.7873     1.8749     0.8978 H       
  43 H43           -2.1187     0.5041     1.8155 H       
  44 H44           -0.7414     3.4079     3.4444 H       
  45 H45           -5.3532     4.6255     8.6047 H       
  46 H46           -7.8450     1.9290     6.3886 H       
  47 H47           -6.0754     1.6768     4.7034 H       
  48 H48          -12.8401     4.4928     8.5316 H       
  49 H49          -11.6006     4.0969    10.6001 H       
  50 H50           -6.7163     3.1066    10.5225 H       
  51 H51          -10.4420     5.1901     4.6343 H       
  52 H52          -12.5874     3.8989     3.1311 H       
  53 H53          -12.2299     5.6506     3.2528 H       
  54 H54           -9.2444     3.8079     2.9870 H       
  55 H55           -8.3224     1.5515     2.4986 H       
  56 H56           -9.2619    -0.4055     3.7109 H       
  57 H57          -11.0661    -0.0534     5.3492 H       
@<TRIPOS>BOND
   1    1    2 2
   2    1    3 1
   3    1    4 1
   4    1    5 1
   5    3   40 1
   6    4   41 1
   7    5    6 1
   8    6    7 1
   9    6   42 1
  10    6   43 1
  11    7    8 1
  12    7   11 1
  13    8    9 2
  14    9   10 1
  15    9   12 1
  16   10   11 2
  17   11   44 1
  18   12   13 ar
  19   12   17 ar
  20   13   14 ar
  21   13   39 1
  22   14   15 ar
  23   14   45 1
  24   15   16 ar
  25   15   26 1
  26   16   17 ar
  27   16   46 1
  28   17   47 1
  29   18   19 1
  30   18   23 1
  31   18   26 2
  32   19   20 2
  33   20   21 1
  34   20   29 1
  35   21   22 2
  36   21   48 1
  37   22   23 1
  38   22   49 1
  39   23   24 1
  40   24   25 2
  41   25   26 1
  42   25   50 1
  43   27   28 1
  44   27   31 1
  45   28   29 am
  46   28   38 2
  47   29   30 1
  48   30   31 1
  49   30   32 1
  50   30   51 1
  51   31   52 1
  52   31   53 1
  53   32   33 ar
  54   32   37 ar
  55   33   34 ar
  56   33   54 1
  57   34   35 ar
  58   34   55 1
  59   35   36 ar
  60   35   56 1
  61   36   37 ar
  62   36   57 1

#	End of record

