#	Name: ASD01180185
#	Creating user name:	WinNT
#	Creation time:	15. 06. 2019 19:06

#	Modifying user name:	WinNT
#	Modification time:	15. 06. 2019 19:06

#	Program:	/corina/corina34_cracker 3.40 0067  02.08.2006

@<TRIPOS>MOLECULE
ASD01180185
  61   63    0    0    0
SMALL
NO_CHARGES


@<TRIPOS>ATOM
   1 C1             1.1487     1.4956     0.0272 C.ar    
   2 C2             0.9566     0.1293     0.0518 C.ar    
   3 C3             2.0512    -0.7278    -0.0409 C.ar    
   4 C4             3.3368    -0.1983    -0.1582 C.ar    
   5 C5             3.5165     1.1726    -0.1817 C.ar    
   6 C6             2.4252     2.0164    -0.0892 C.ar    
   7 C7             1.8506    -2.1976    -0.0144 C.ar    
   8 C8             2.4386    -3.0013    -0.9892 C.ar    
   9 C9             2.2490    -4.3680    -0.9595 C.ar    
  10 C10            1.4767    -4.9403     0.0352 C.ar    
  11 C11            0.8904    -4.1473     1.0051 C.ar    
  12 C12            1.0783    -2.7801     0.9886 C.ar    
  13 C13            1.2730    -6.4332     0.0620 C.3     
  14 C14            2.2173    -7.0584     1.0908 C.3     
  15 N15           -0.1140    -6.7303     0.4283 N.pl3   
  16 C16           -1.1108    -6.6729    -0.5309 C.ar    
  17 N17           -2.3753    -6.8460    -0.1709 N.ar    
  18 C18           -3.3558    -6.7999    -1.0485 C.ar    
  19 C19           -3.0886    -6.5652    -2.3980 C.ar    
  20 C20           -1.7591    -6.3785    -2.8071 C.ar    
  21 C21           -0.7717    -6.4284    -1.8607 C.ar    
  22 C22           -4.1880    -6.5147    -3.3808 C.2     
  23 N23           -5.4612    -6.6958    -2.9775 N.am    
  24 O24           -3.9453    -6.3097    -4.5545 O.2     
  25 C25           -6.5527    -6.6456    -3.9533 C.3     
  26 C26           -7.8857    -6.8804    -3.2399 C.3     
  27 C27           -9.0086    -6.8288    -4.2437 C.2     
  28 O28          -10.2766    -7.0091    -3.8421 O.3     
  29 O29           -8.7675    -6.6251    -5.4100 O.2     
  30 C30            2.0911    -8.5823     1.0391 C.3     
  31 C31            2.5907    -9.0898    -0.3150 C.3     
  32 C32            2.9314    -9.2018     2.1576 C.3     
  33 F33            4.4033    -1.0228    -0.2481 F       
  34 H34            0.3000     2.1601     0.0945 H       
  35 H35           -0.0407    -0.2750     0.1432 H       
  36 H36            4.5106     1.5847    -0.2721 H       
  37 H37            2.5698     3.0866    -0.1080 H       
  38 H38            3.0411    -2.5554    -1.7667 H       
  39 H39            2.7042    -4.9919    -1.7145 H       
  40 H40            0.2878    -4.5993     1.7790 H       
  41 H41            0.6204    -2.1618     1.7466 H       
  42 H42            1.4849    -6.8466    -0.9240 H       
  43 H43            3.2439    -6.7709     0.8636 H       
  44 H44            1.9534    -6.7055     2.0878 H       
  45 H45           -0.3340    -6.9672     1.3429 H       
  46 H46           -4.3748    -6.9451    -0.7215 H       
  47 H47           -1.5210    -6.1951    -3.8444 H       
  48 H48            0.2613    -6.2887    -2.1429 H       
  49 H49           -5.6548    -6.8593    -2.0412 H       
  50 H50           -6.5654    -5.6675    -4.4343 H       
  51 H51           -6.4026    -7.4190    -4.7066 H       
  52 H52           -7.8730    -7.8585    -2.7589 H       
  53 H53           -8.0359    -6.1070    -2.4867 H       
  54 H54          -10.9627    -6.9672    -4.5222 H       
  55 H55            1.0465    -8.8650     1.1702 H       
  56 H56            2.0371    -8.5971    -1.1144 H       
  57 H57            3.6526    -8.8665    -0.4174 H       
  58 H58            2.4381   -10.1672    -0.3780 H       
  59 H59            2.5754    -8.8403     3.1223 H       
  60 H60            2.8414   -10.2875     2.1208 H       
  61 H61            3.9759    -8.9191     2.0265 H       
@<TRIPOS>BOND
   1    1    2 ar
   2    1    6 ar
   3    1   34 1
   4    2    3 ar
   5    2   35 1
   6    3    4 ar
   7    3    7 1
   8    4    5 ar
   9    4   33 1
  10    5    6 ar
  11    5   36 1
  12    6   37 1
  13    7    8 ar
  14    7   12 ar
  15    8    9 ar
  16    8   38 1
  17    9   10 ar
  18    9   39 1
  19   10   11 ar
  20   10   13 1
  21   11   12 ar
  22   11   40 1
  23   12   41 1
  24   13   14 1
  25   13   15 1
  26   13   42 1
  27   14   30 1
  28   14   43 1
  29   14   44 1
  30   15   16 1
  31   15   45 1
  32   16   17 ar
  33   16   21 ar
  34   17   18 ar
  35   18   19 ar
  36   18   46 1
  37   19   20 ar
  38   19   22 1
  39   20   21 ar
  40   20   47 1
  41   21   48 1
  42   22   23 am
  43   22   24 2
  44   23   25 1
  45   23   49 1
  46   25   26 1
  47   25   50 1
  48   25   51 1
  49   26   27 1
  50   26   52 1
  51   26   53 1
  52   27   28 1
  53   27   29 2
  54   28   54 1
  55   30   31 1
  56   30   32 1
  57   30   55 1
  58   31   56 1
  59   31   57 1
  60   31   58 1
  61   32   59 1
  62   32   60 1
  63   32   61 1

#	End of record

