#	Name: ASD01908259
#	Creating user name:	WinNT
#	Creation time:	15. 06. 2019 19:54

#	Modifying user name:	WinNT
#	Modification time:	15. 06. 2019 19:54

#	Program:	/corina/corina34_cracker 3.40 0067  02.08.2006

@<TRIPOS>MOLECULE
ASD01908259
  27   28    0    0    0
SMALL
NO_CHARGES


@<TRIPOS>ATOM
   1 C1            -1.1970     1.3251    -1.1761 C.ar    
   2 N2            -1.2115     0.0020    -1.2008 N.ar    
   3 C3            -1.2077    -0.6533    -2.3499 C.ar    
   4 C4            -1.1884     0.0631    -3.5363 C.ar    
   5 C5            -1.1736     1.4476    -3.4731 C.ar    
   6 N6            -1.1784     2.0394    -2.2900 N.ar    
   7 O7            -1.2072     1.9638     0.0184 O.3     
   8 C8            -1.0928     3.3189     0.0187 C.ar    
   9 C9            -2.2254     4.1146    -0.1293 C.ar    
  10 C10           -2.1036     5.4945    -0.1283 C.ar    
  11 C11           -0.8589     6.0786     0.0195 C.ar    
  12 C12            0.2657     5.2886     0.1659 C.ar    
  13 C13            0.1505     3.9107     0.1721 C.ar    
  14 N14           -0.7307     7.5533     0.0203 N.pl3   
  15 O15           -1.7208     8.2508    -0.1091 O.2     
  16 O16            0.3650     8.0692     0.1503 O.2     
  17 O17           -3.4486     3.5386    -0.2749 O.3     
  18 C18           -4.5660     4.4171    -0.4219 C.3     
  19 H19           -1.2192    -1.7332    -2.3636 H       
  20 H20           -1.1845    -0.4461    -4.4887 H       
  21 H21           -1.1580     2.0361    -4.3786 H       
  22 H22           -2.9806     6.1142    -0.2433 H       
  23 H23            1.2361     5.7486     0.2804 H       
  24 H24            1.0302     3.2957     0.2915 H       
  25 H25           -4.6454     5.0545     0.4588 H       
  26 H26           -4.4269     5.0370    -1.3076 H       
  27 H27           -5.4782     3.8301    -0.5289 H       
@<TRIPOS>BOND
   1    1    2 ar
   2    1    6 ar
   3    1    7 1
   4    2    3 ar
   5    3    4 ar
   6    3   19 1
   7    4    5 ar
   8    4   20 1
   9    5    6 ar
  10    5   21 1
  11    7    8 1
  12    8    9 ar
  13    8   13 ar
  14    9   10 ar
  15    9   17 1
  16   10   11 ar
  17   10   22 1
  18   11   12 ar
  19   11   14 1
  20   12   13 ar
  21   12   23 1
  22   13   24 1
  23   14   15 2
  24   14   16 2
  25   17   18 1
  26   18   25 1
  27   18   26 1
  28   18   27 1

#	End of record

