#	Name: ASD07930538
#	Creating user name:	WinNT
#	Creation time:	15. 06. 2019 21:12

#	Modifying user name:	WinNT
#	Modification time:	15. 06. 2019 21:12

#	Program:	/corina/corina34_cracker 3.40 0067  02.08.2006

@<TRIPOS>MOLECULE
ASD07930538
  45   47    0    0    0
SMALL
NO_CHARGES


@<TRIPOS>ATOM
   1 C1            -0.0343     1.4581     0.0424 C.3     
   2 N2             0.7953    -0.4133    -2.1302 N.2     
   3 N3            -0.8904    -1.7835    -1.2685 N.pl3   
   4 C4            -0.9149    -2.8271    -0.2383 C.3     
   5 C5            -1.2299    -2.1885     1.1215 C.3     
   6 S6             0.0062    -0.8913     1.4434 S.o2    
   7 N7            -0.0140    -0.0067     0.0315 N.am    
   8 C8            -0.0113    -0.7260    -1.1552 C.2     
   9 C9             0.4501    -3.5153    -0.1756 C.3     
  10 C10           -1.9764    -3.8423    -0.5755 C.ar    
  11 C11           -2.8068    -3.6380    -1.6597 C.ar    
  12 C12           -3.7847    -4.5743    -1.9703 C.ar    
  13 C13           -3.9250    -5.7139    -1.1895 C.ar    
  14 C14           -3.0922    -5.9142    -0.1058 C.ar    
  15 C15           -2.1146    -4.9822     0.1989 C.ar    
  16 O16           -0.4576     0.0117     2.4377 O.2     
  17 O17            1.3141    -1.4440     1.5003 O.2     
  18 F18           -1.3009    -5.1803     1.2590 F       
  19 N19           -4.6274    -4.3692    -3.0682 N.am    
  20 C20           -5.0470    -5.4195    -3.8012 C.2     
  21 O21           -4.6172    -6.5331    -3.5694 O.2     
  22 C22           -6.0274    -5.2182    -4.8842 C.2     
  23 O23           -6.5913    -4.0545    -5.2594 O.3     
  24 N24           -7.3580    -4.2113    -6.1807 N.2     
  25 C25           -7.4250    -5.4566    -6.5524 C.2     
  26 C26           -6.5435    -6.1754    -5.7150 C.2     
  27 C27           -8.2733    -6.0208    -7.6629 C.3     
  28 H28            0.9883     1.8357     0.0393 H       
  29 H29           -0.5582     1.8209    -0.8419 H       
  30 H30           -0.5479     1.8077     0.9380 H       
  31 H31            1.4071     0.3331    -2.0332 H       
  32 H32           -1.4883    -1.8387    -2.0303 H       
  33 H33           -2.2269    -1.7485     1.0987 H       
  34 H34           -1.1799    -2.9460     1.9036 H       
  35 H35            1.2166    -2.7804     0.0704 H       
  36 H36            0.4312    -4.2908     0.5902 H       
  37 H37            0.6749    -3.9652    -1.1426 H       
  38 H38           -2.6962    -2.7508    -2.2655 H       
  39 H39           -4.6849    -6.4430    -1.4290 H       
  40 H40           -3.2010    -6.8004     0.5018 H       
  41 H41           -4.9097    -3.4710    -3.3018 H       
  42 H42           -6.3316    -7.2344    -5.7236 H       
  43 H43           -7.7108    -5.9997    -8.5963 H       
  44 H44           -8.5453    -7.0493    -7.4257 H       
  45 H45           -9.1773    -5.4213    -7.7699 H       
@<TRIPOS>BOND
   1    1    7 1
   2    1   28 1
   3    1   29 1
   4    1   30 1
   5    2    8 2
   6    2   31 1
   7    3    4 1
   8    3    8 1
   9    3   32 1
  10    4    5 1
  11    4    9 1
  12    4   10 1
  13    5    6 1
  14    5   33 1
  15    5   34 1
  16    6    7 am
  17    6   16 2
  18    6   17 2
  19    7    8 1
  20    9   35 1
  21    9   36 1
  22    9   37 1
  23   10   11 ar
  24   10   15 ar
  25   11   12 ar
  26   11   38 1
  27   12   13 ar
  28   12   19 1
  29   13   14 ar
  30   13   39 1
  31   14   15 ar
  32   14   40 1
  33   15   18 1
  34   19   20 am
  35   19   41 1
  36   20   21 2
  37   20   22 1
  38   22   23 1
  39   22   26 2
  40   23   24 1
  41   24   25 2
  42   25   26 1
  43   25   27 1
  44   26   42 1
  45   27   43 1
  46   27   44 1
  47   27   45 1

#	End of record

