#	Name: ASD01882955
#	Creating user name:	WinNT
#	Creation time:	15. 06. 2019 19:45

#	Modifying user name:	WinNT
#	Modification time:	15. 06. 2019 19:45

#	Program:	/corina/corina34_cracker 3.40 0067  02.08.2006

@<TRIPOS>MOLECULE
ASD01882955
  45   48    0    0    0
SMALL
NO_CHARGES


@<TRIPOS>ATOM
   1 C1            -0.0170     1.4009     0.0097 C.2     
   2 C2             0.0021    -0.0041     0.0020 C.2     
   3 C3            -1.2235    -0.6971     0.0099 C.2     
   4 C4            -2.3887    -0.0098     0.0247 C.2     
   5 N5            -2.4085     1.3474     0.0322 N.am    
   6 C6            -1.2693     2.0642     0.0312 C.2     
   7 C7            -3.6960     2.0462     0.0477 C.3     
   8 C8            -4.1245     2.2782     1.4738 C.ar    
   9 C9            -3.7483     3.4384     2.1262 C.ar    
  10 C10           -4.1382     3.6562     3.4321 C.ar    
  11 C11           -4.9125     2.7048     4.0932 C.ar    
  12 C12           -5.2886     1.5378     3.4310 C.ar    
  13 C13           -4.8974     1.3327     2.1235 C.ar    
  14 C14           -5.3343     2.9332     5.4972 C.ar    
  15 C15            1.2848    -0.7407    -0.0146 C.ar    
  16 C16            1.2048     2.1477     0.0021 C.1     
  17 N17            2.1741     2.7402    -0.0040 N.1     
  18 O18           -1.3147     3.2825     0.0383 O.2     
  19 C19            1.6494    -1.5380     1.0715 C.ar    
  20 C20            2.8470    -2.2223     1.0497 C.ar    
  21 C21            3.6861    -2.1197    -0.0457 C.ar    
  22 C22            3.3307    -1.3310    -1.1257 C.ar    
  23 C23            2.1332    -0.6461    -1.1190 C.ar    
  24 C24           -6.1109     1.9899     6.1759 C.ar    
  25 C25           -6.4810     2.2418     7.4811 C.ar    
  26 N26           -6.1120     3.3542     8.0868 N.ar    
  27 C27           -5.3794     4.2696     7.4822 C.ar    
  28 C28           -4.9611     4.0948     6.1790 C.ar    
  29 H29           -1.2335    -1.7771     0.0039 H       
  30 H30           -3.3226    -0.5523     0.0303 H       
  31 H31           -3.5954     3.0045    -0.4619 H       
  32 H32           -4.4445     1.4401    -0.4626 H       
  33 H33           -3.1479     4.1750     1.6130 H       
  34 H34           -3.8436     4.5623     3.9407 H       
  35 H35           -5.8886     0.7971     3.9387 H       
  36 H36           -5.1883     0.4287     1.6093 H       
  37 H37            0.9955    -1.6187     1.9273 H       
  38 H38            3.1305    -2.8393     1.8896 H       
  39 H39            4.6228    -2.6572    -0.0577 H       
  40 H40            3.9902    -1.2548    -1.9775 H       
  41 H41            1.8569    -0.0308    -1.9625 H       
  42 H42           -6.4171     1.0775     5.6859 H       
  43 H43           -7.0810     1.5189     8.0137 H       
  44 H44           -5.0997     5.1660     8.0158 H       
  45 H45           -4.3615     4.8483     5.6901 H       
@<TRIPOS>BOND
   1    1    2 2
   2    1   16 1
   3    1    6 1
   4    2    3 1
   5    2   15 1
   6    3    4 2
   7    3   29 1
   8    4    5 1
   9    4   30 1
  10    5    7 1
  11    5    6 am
  12    6   18 2
  13    7    8 1
  14    7   31 1
  15    7   32 1
  16    8    9 ar
  17    8   13 ar
  18    9   10 ar
  19    9   33 1
  20   10   11 ar
  21   10   34 1
  22   11   12 ar
  23   11   14 1
  24   12   13 ar
  25   12   35 1
  26   13   36 1
  27   14   24 ar
  28   14   28 ar
  29   15   19 ar
  30   15   23 ar
  31   16   17 3
  32   19   20 ar
  33   19   37 1
  34   20   21 ar
  35   20   38 1
  36   21   22 ar
  37   21   39 1
  38   22   23 ar
  39   22   40 1
  40   23   41 1
  41   24   25 ar
  42   24   42 1
  43   25   26 ar
  44   25   43 1
  45   26   27 ar
  46   27   28 ar
  47   27   44 1
  48   28   45 1

#	End of record

