#	Name: ASD01814478
#	Creating user name:	WinNT
#	Creation time:	15. 06. 2019 19:32

#	Modifying user name:	WinNT
#	Modification time:	15. 06. 2019 19:32

#	Program:	/corina/corina34_cracker 3.40 0067  02.08.2006

@<TRIPOS>MOLECULE
ASD01814478
  47   51    0    0    0
SMALL
NO_CHARGES


@<TRIPOS>ATOM
   1 C1            -0.0167     1.3807     0.0096 C.ar    
   2 C2             0.0021    -0.0041     0.0020 C.ar    
   3 N3             1.1326    -0.6807    -0.0124 N.ar    
   4 C4             2.3086    -0.0710    -0.0203 C.ar    
   5 C5             2.3610     1.3370    -0.0133 C.ar    
   6 C6             1.1830     2.0750     0.0019 C.ar    
   7 N7             3.4841    -0.7903    -0.0349 N.pl3   
   8 N8             4.6482    -0.2533    -0.0428 N.2     
   9 C9             4.8546     1.0371    -0.0378 C.2     
  10 C10            3.6943     1.9627    -0.0222 C.2     
  11 C11            3.3984    -2.2528    -0.0414 C.3     
  12 C12            3.3557    -2.7472    -1.4644 C.ar    
  13 C13            4.5297    -3.0473    -2.1386 C.ar    
  14 C14            4.4430    -3.4989    -3.4461 C.ar    
  15 C15            3.1966    -3.6343    -4.0311 C.ar    
  16 N16            2.1002    -3.3390    -3.3584 N.ar    
  17 C17            2.1459    -2.9124    -2.1113 C.ar    
  18 Cl18           3.0734    -4.1984    -5.6683 Cl      
  19 C19            6.0309     1.9106    -0.0447 C.2     
  20 N20            5.5600     3.1762    -0.0341 N.am    
  21 N21            4.1629     3.1751    -0.0208 N.2     
  22 O22            7.2001     1.5644    -0.0572 O.2     
  23 C23            6.3582     4.3259    -0.0361 C.ar    
  24 C24            7.3119     4.5092    -1.0288 C.ar    
  25 C25            8.0977     5.6452    -1.0282 C.ar    
  26 C26            7.9355     6.5992    -0.0406 C.ar    
  27 C27            6.9869     6.4195     0.9498 C.ar    
  28 C28            6.1942     5.2889     0.9517 C.ar    
  29 C29            5.1606     5.0940     2.0309 C.3     
  30 C30            6.8141     7.4617     2.0245 C.3     
  31 H31           -0.9559     1.9138     0.0170 H       
  32 H32           -0.9338    -0.5431     0.0084 H       
  33 H33            1.2020     3.1548     0.0072 H       
  34 H34            4.2704    -2.6700     0.4622 H       
  35 H35            2.4936    -2.5660     0.4794 H       
  36 H36            5.4891    -2.9315    -1.6563 H       
  37 H37            5.3370    -3.7416    -4.0013 H       
  38 H38            1.2274    -2.6808    -1.5926 H       
  39 H39            7.4393     3.7642    -1.8003 H       
  40 H40            8.8398     5.7882    -1.7997 H       
  41 H41            8.5512     7.4865    -0.0423 H       
  42 H42            4.2156     5.5340     1.7126 H       
  43 H43            5.0222     4.0284     2.2133 H       
  44 H44            5.4966     5.5788     2.9476 H       
  45 H45            6.0750     8.1957     1.7033 H       
  46 H46            6.4754     6.9833     2.9435 H       
  47 H47            7.7667     7.9599     2.2041 H       
@<TRIPOS>BOND
   1    1    2 ar
   2    1    6 ar
   3    1   31 1
   4    2    3 ar
   5    2   32 1
   6    3    4 ar
   7    4    5 ar
   8    4    7 1
   9    5    6 ar
  10    5   10 1
  11    6   33 1
  12    7    8 1
  13    7   11 1
  14    8    9 2
  15    9   10 1
  16    9   19 1
  17   10   21 2
  18   11   12 1
  19   11   34 1
  20   11   35 1
  21   12   13 ar
  22   12   17 ar
  23   13   14 ar
  24   13   36 1
  25   14   15 ar
  26   14   37 1
  27   15   16 ar
  28   15   18 1
  29   16   17 ar
  30   17   38 1
  31   19   20 am
  32   19   22 2
  33   20   21 1
  34   20   23 1
  35   23   24 ar
  36   23   28 ar
  37   24   25 ar
  38   24   39 1
  39   25   26 ar
  40   25   40 1
  41   26   27 ar
  42   26   41 1
  43   27   28 ar
  44   27   30 1
  45   28   29 1
  46   29   42 1
  47   29   43 1
  48   29   44 1
  49   30   45 1
  50   30   46 1
  51   30   47 1

#	End of record

