#	Name: ASD05430045
#	Creating user name:	WinNT
#	Creation time:	15. 06. 2019 20:59

#	Modifying user name:	WinNT
#	Modification time:	15. 06. 2019 20:59

#	Program:	/corina/corina34_cracker 3.40 0067  02.08.2006

@<TRIPOS>MOLECULE
ASD05430045
  69   74    0    0    0
SMALL
NO_CHARGES


@<TRIPOS>ATOM
   1 C1            -0.0890     1.1758    -0.3927 C.ar    
   2 C2            -0.0152    -0.0171     0.3257 C.ar    
   3 C3            -1.1463    -0.5266     0.9503 C.ar    
   4 C4            -2.3467     0.1442     0.8631 C.ar    
   5 C5            -2.4282     1.3412     0.1443 C.ar    
   6 C6            -1.2884     1.8568    -0.4801 C.ar    
   7 C7            -4.8572    -0.1303    -0.2075 C.3     
   8 C8            -4.8620     1.3704    -0.0437 C.2     
   9 C9            -3.7098     2.0594     0.0501 C.2     
  10 C10           -6.1970    -0.6247    -0.7533 C.3     
  11 C11           -6.8390     0.4172    -1.6748 C.3     
  12 N12           -7.1229     1.6255    -0.9031 N.pl3   
  13 C13           -6.1629     2.0598     0.0102 C.2     
  14 C14           -8.3546     2.3950    -1.0624 C.3     
  15 C15           -8.7727     2.9264     0.3133 C.3     
  16 O16           -7.6887     3.6214     0.9207 O.3     
  17 N17           -6.4249     3.0001     0.8550 N.2     
  18 C18           -8.1144     3.5493    -2.0010 C.ar    
  19 C19           -9.0780     3.8965    -2.9295 C.ar    
  20 O20            1.0203     1.6718    -1.0025 O.3     
  21 C21            0.8720     2.8981    -1.7212 C.3     
  22 C22            1.7917    -1.1697     1.5643 C.2     
  23 N23            1.2031    -0.7038     0.4172 N.pl3   
  24 C24            2.9432    -1.7642     1.1981 C.2     
  25 N25            3.0594    -1.6669    -0.1346 N.2     
  26 C26            2.0234    -1.0338    -0.6139 C.2     
  27 C27            3.9309    -2.4244     2.1254 C.3     
  28 C28           -8.8590     4.9551    -3.7905 C.ar    
  29 C29           -7.6740     5.6680    -3.7229 C.ar    
  30 C30           -6.7096     5.3194    -2.7925 C.ar    
  31 C31           -6.9330     4.2637    -1.9291 C.ar    
  32 F32           -7.4587     6.7028    -4.5643 F       
  33 C33           -5.9649    -1.9135    -1.5502 C.3     
  34 O34           -5.2961    -2.8691    -0.7070 O.3     
  35 P35           -5.9376    -3.2249     0.7431 P.3     
  36 O36           -6.5118    -1.8207     1.3256 O.3     
  37 C37           -7.1438    -0.8964     0.4212 C.3     
  38 O38           -7.0381    -4.2024     0.5891 O.2     
  39 C39           -4.6536    -3.8891     1.8537 C.3     
  40 H40           -1.0849    -1.4510     1.5054 H       
  41 H41           -3.2247    -0.2545     1.3495 H       
  42 H42           -1.3469     2.7810    -1.0358 H       
  43 H43           -4.0628    -0.4127    -0.8984 H       
  44 H44           -4.6711    -0.5957     0.7604 H       
  45 H45           -3.7253     3.1393     0.0562 H       
  46 H46           -6.1537     0.6565    -2.4880 H       
  47 H47           -7.7677     0.0193    -2.0840 H       
  48 H48           -9.1395     1.7531    -1.4622 H       
  49 H49           -9.6174     3.6054     0.1968 H       
  50 H50           -9.0679     2.0914     0.9487 H       
  51 H51          -10.0021     3.3400    -2.9823 H       
  52 H52            0.5378     3.6804    -1.0398 H       
  53 H53            1.8297     3.1813    -2.1579 H       
  54 H54            0.1355     2.7677    -2.5141 H       
  55 H55            1.4080    -1.0742     2.5693 H       
  56 H56            1.8478    -0.8100    -1.6558 H       
  57 H57            3.6732    -3.4772     2.2408 H       
  58 H58            4.9341    -2.3395     1.7077 H       
  59 H59            3.8996    -1.9339     3.0983 H       
  60 H60           -9.6118     5.2260    -4.5160 H       
  61 H61           -5.7849     5.8747    -2.7389 H       
  62 H62           -6.1810     3.9915    -1.2033 H       
  63 H63           -6.9230    -2.3199    -1.8740 H       
  64 H64           -5.3451    -1.6978    -2.4205 H       
  65 H65           -7.3559     0.0370     0.9425 H       
  66 H66           -8.0729    -1.3278     0.0487 H       
  67 H67           -3.8665    -3.1463     1.9843 H       
  68 H68           -5.0963    -4.1234     2.8217 H       
  69 H69           -4.2301    -4.7945     1.4190 H       
@<TRIPOS>BOND
   1    1    2 ar
   2    1   20 1
   3    1    6 ar
   4    2    3 ar
   5    2   23 1
   6    3    4 ar
   7    3   40 1
   8    4    5 ar
   9    4   41 1
  10    5    6 ar
  11    5    9 1
  12    6   42 1
  13    7    8 1
  14    7   10 1
  15    7   43 1
  16    7   44 1
  17    8    9 2
  18    8   13 1
  19    9   45 1
  20   10   11 1
  21   10   33 1
  22   10   37 1
  23   11   12 1
  24   11   46 1
  25   11   47 1
  26   12   13 1
  27   12   14 1
  28   13   17 2
  29   14   15 1
  30   14   18 1
  31   14   48 1
  32   15   16 1
  33   15   49 1
  34   15   50 1
  35   16   17 1
  36   18   19 ar
  37   18   31 ar
  38   19   28 ar
  39   19   51 1
  40   20   21 1
  41   21   52 1
  42   21   53 1
  43   21   54 1
  44   22   23 1
  45   22   24 2
  46   22   55 1
  47   23   26 1
  48   24   25 1
  49   24   27 1
  50   25   26 2
  51   26   56 1
  52   27   57 1
  53   27   58 1
  54   27   59 1
  55   28   29 ar
  56   28   60 1
  57   29   30 ar
  58   29   32 1
  59   30   31 ar
  60   30   61 1
  61   31   62 1
  62   33   34 1
  63   33   63 1
  64   33   64 1
  65   34   35 1
  66   35   36 1
  67   35   38 2
  68   35   39 1
  69   36   37 1
  70   37   65 1
  71   37   66 1
  72   39   67 1
  73   39   68 1
  74   39   69 1

#	End of record

