#	Name: ASD09610075
#	Creating user name:	WinNT
#	Creation time:	15. 06. 2019 21:22

#	Modifying user name:	WinNT
#	Modification time:	15. 06. 2019 21:22

#	Program:	/corina/corina34_cracker 3.40 0067  02.08.2006

@<TRIPOS>MOLECULE
ASD09610075
  44   46    0    0    0
SMALL
NO_CHARGES


@<TRIPOS>ATOM
   1 N1            -0.0207     1.8437     0.4793 N.pl3   
   2 N2             0.0038     0.6295    -0.2154 N.2     
   3 C3             1.2435     0.2859    -0.4270 C.2     
   4 C4             2.0764     1.2823     0.1326 C.2     
   5 C5             1.2461     2.2404     0.6906 C.2     
   6 C6             3.5477     1.2984     0.1237 C.2     
   7 O7             4.1447     1.8280    -0.7944 O.2     
   8 N8             4.2340     0.7263     1.1328 N.am    
   9 C9             6.3924     0.7430     2.2359 C.ar    
  10 C10            5.6263     0.6377     1.0683 C.ar    
  11 C11            6.2561     0.4444    -0.1522 C.ar    
  12 C12            7.6337     0.3565    -0.2139 C.ar    
  13 C13            8.3929     0.4599     0.9385 C.ar    
  14 C14            7.7804     0.6523     2.1605 C.ar    
  15 C15            5.7300     0.9556     3.5445 C.ar    
  16 C16            6.0548     0.1423     4.6306 C.ar    
  17 C17            5.4402     0.3394     5.8467 C.ar    
  18 C18            4.4915     1.3539     5.9930 C.ar    
  19 C19            4.1670     2.1677     4.9053 C.ar    
  20 C20            4.7863     1.9727     3.6912 C.ar    
  21 C21            3.8515     1.5593     7.2574 C.1     
  22 C22            3.3268     1.7277     8.2941 C.1     
  23 C23            2.6689     1.9389     9.5938 C.3     
  24 C24            1.7079    -0.9564    -1.1427 C.3     
  25 C25           -1.2247     2.5647     0.9001 C.3     
  26 F26            1.6371     3.3654     1.3284 F       
  27 H27            3.7609     0.3762     1.9038 H       
  28 H28            5.6692     0.3623    -1.0552 H       
  29 H29            8.1204     0.2060    -1.1662 H       
  30 H30            9.4691     0.3894     0.8816 H       
  31 H31            8.3768     0.7324     3.0573 H       
  32 H32            6.7882    -0.6424     4.5173 H       
  33 H33            5.6914    -0.2904     6.6873 H       
  34 H34            3.4334     2.9523     5.0176 H       
  35 H35            4.5384     2.6045     2.8511 H       
  36 H36            1.9657     2.7679     9.5147 H       
  37 H37            2.1332     1.0341     9.8811 H       
  38 H38            3.4207     2.1709    10.3482 H       
  39 H39            1.8092    -0.7459    -2.2073 H       
  40 H40            2.6718    -1.2684    -0.7406 H       
  41 H41            0.9785    -1.7533    -0.9976 H       
  42 H42           -1.5168     2.2336     1.8967 H       
  43 H43           -1.0194     3.6350     0.9185 H       
  44 H44           -2.0336     2.3619     0.1982 H       
@<TRIPOS>BOND
   1    1    2 1
   2    1    5 1
   3    1   25 1
   4    2    3 2
   5    3    4 1
   6    3   24 1
   7    4    5 2
   8    4    6 1
   9    5   26 1
  10    6    7 2
  11    6    8 am
  12    8   10 1
  13    8   27 1
  14    9   10 ar
  15    9   14 ar
  16    9   15 1
  17   10   11 ar
  18   11   12 ar
  19   11   28 1
  20   12   13 ar
  21   12   29 1
  22   13   14 ar
  23   13   30 1
  24   14   31 1
  25   15   16 ar
  26   15   20 ar
  27   16   17 ar
  28   16   32 1
  29   17   18 ar
  30   17   33 1
  31   18   19 ar
  32   18   21 1
  33   19   20 ar
  34   19   34 1
  35   20   35 1
  36   21   22 3
  37   22   23 1
  38   23   36 1
  39   23   37 1
  40   23   38 1
  41   24   39 1
  42   24   40 1
  43   24   41 1
  44   25   42 1
  45   25   43 1
  46   25   44 1

#	End of record

