#	Name: ASD03930245
#	Creating user name:	WinNT
#	Creation time:	15. 06. 2019 20:47

#	Modifying user name:	WinNT
#	Modification time:	15. 06. 2019 20:47

#	Program:	/corina/corina34_cracker 3.40 0067  02.08.2006

@<TRIPOS>MOLECULE
ASD03930245
  45   49    0    0    0
SMALL
NO_CHARGES


@<TRIPOS>ATOM
   1 C1            -0.0167     1.3802     0.0096 C.ar    
   2 C2             0.0021    -0.0041     0.0020 C.ar    
   3 C3            -1.1857    -0.7109     0.0095 C.ar    
   4 C4            -2.3920    -0.0361     0.0242 C.ar    
   5 C5            -2.4120     1.3464     0.0318 C.ar    
   6 C6            -1.2257     2.0550     0.0306 C.ar    
   7 F7             1.1437     2.0720     0.0023 F       
   8 C8            -3.7279     2.0806     0.0472 C.3     
   9 C9            -4.1607     2.3213     1.4949 C.3     
  10 N10           -5.4400     3.0350     1.5099 N.am    
  11 N11           -5.4591     4.4321     1.5176 N.2     
  12 C12           -6.6015     2.3399     1.5107 C.2     
  13 C13           -7.8554     3.1146     1.5257 C.ar    
  14 C14           -7.7667     4.5245     1.5396 C.ar    
  15 N15           -6.5454     5.1153     1.5313 N.2     
  16 C16           -9.0965     2.4838     1.5257 C.ar    
  17 C17          -10.2511     3.2435     1.5398 C.ar    
  18 C18          -10.1656     4.6493     1.5552 C.ar    
  19 C19           -8.9370     5.2876     1.5555 C.ar    
  20 O20           -6.6102     1.1229     1.4990 O.2     
  21 O21          -11.4682     2.6401     1.5380 O.3     
  22 C22          -12.5286     3.3126     0.8581 C.3     
  23 N23          -12.5509     4.7260     1.2867 N.am    
  24 C24          -11.4302     5.4307     1.5703 C.2     
  25 O25          -11.4562     6.6199     1.8205 O.2     
  26 C26          -13.8921     2.7502     1.3247 C.3     
  27 C27          -14.8332     3.9557     1.0543 C.3     
  28 C28          -13.9402     5.1748     1.3771 C.3     
  29 H29            0.9445    -0.5315    -0.0101 H       
  30 H30           -1.1713    -1.7907     0.0036 H       
  31 H31           -3.3196    -0.5892     0.0293 H       
  32 H32           -1.2416     3.1349     0.0368 H       
  33 H33           -3.6161     3.0376    -0.4625 H       
  34 H34           -4.4833     1.4831    -0.4632 H       
  35 H35           -4.2725     1.3643     2.0046 H       
  36 H36           -3.4053     2.9187     2.0053 H       
  37 H37           -9.1569     1.4055     1.5144 H       
  38 H38           -8.8837     6.3662     1.5672 H       
  39 H39          -12.4109     3.2332    -0.2226 H       
  40 H40          -14.1831     1.8855     0.7282 H       
  41 H41          -13.8700     2.5017     2.3858 H       
  42 H42          -15.1466     3.9733     0.0105 H       
  43 H43          -15.6981     3.9255     1.7170 H       
  44 H44          -14.1500     5.5322     2.3852 H       
  45 H45          -14.1214     5.9697     0.6535 H       
@<TRIPOS>BOND
   1    1    2 ar
   2    1    7 1
   3    1    6 ar
   4    2    3 ar
   5    2   29 1
   6    3    4 ar
   7    3   30 1
   8    4    5 ar
   9    4   31 1
  10    5    6 ar
  11    5    8 1
  12    6   32 1
  13    8    9 1
  14    8   33 1
  15    8   34 1
  16    9   10 1
  17    9   35 1
  18    9   36 1
  19   10   11 1
  20   10   12 am
  21   11   15 2
  22   12   13 1
  23   12   20 2
  24   13   14 ar
  25   13   16 ar
  26   14   15 1
  27   14   19 ar
  28   16   17 ar
  29   16   37 1
  30   17   18 ar
  31   17   21 1
  32   18   19 ar
  33   18   24 1
  34   19   38 1
  35   21   22 1
  36   22   23 1
  37   22   26 1
  38   22   39 1
  39   23   24 am
  40   23   28 1
  41   24   25 2
  42   26   27 1
  43   26   40 1
  44   26   41 1
  45   27   28 1
  46   27   42 1
  47   27   43 1
  48   28   44 1
  49   28   45 1

#	End of record

