#	Name: ASD03092623
#	Creating user name:	WinNT
#	Creation time:	15. 06. 2019 20:32

#	Modifying user name:	WinNT
#	Modification time:	15. 06. 2019 20:32

#	Program:	/corina/corina34_cracker 3.40 0067  02.08.2006

@<TRIPOS>MOLECULE
ASD03092623
  40   43    0    0    0
SMALL
NO_CHARGES


@<TRIPOS>ATOM
   1 N1            -0.0155     1.2894     0.0091 N.2     
   2 N2             0.0021    -0.0041     0.0020 N.pl3   
   3 C3             1.2786    -0.4388    -0.0172 C.2     
   4 C4             2.0840     0.6501    -0.0168 C.2     
   5 C5             1.2120     1.7631    -0.0000 C.2     
   6 C6             1.3194    -1.9516    -0.0341 C.3     
   7 C7            -0.1117    -2.3636    -0.4469 C.3     
   8 C8            -0.9358    -1.1419     0.0113 C.3     
   9 C9             1.6046     3.1871     0.0053 C.2     
  10 O10            2.7810     3.4934    -0.0049 O.2     
  11 N11            0.6585     4.1469     0.0214 N.am    
  12 C12            1.0478     5.5592     0.0267 C.3     
  13 N13           -3.5628     8.7767     0.3690 N.pl3   
  14 C14           -3.6871     8.8640     1.7289 C.2     
  15 C15           -2.7004     8.1751     2.3237 C.2     
  16 C16           -1.8770     7.5995     1.2576 C.ar    
  17 C17           -0.7319     6.8006     1.2398 C.ar    
  18 C18           -0.1884     6.4209     0.0452 C.ar    
  19 C19           -0.7655     6.8230    -1.1518 C.ar    
  20 C20           -1.8949     7.6115    -1.1572 C.ar    
  21 C21           -2.4653     8.0099     0.0476 C.ar    
  22 C22           -4.7707     9.6218     2.4517 C.3     
  23 H23            3.1639     0.6652    -0.0266 H       
  24 H24            2.0448    -2.3056    -0.7667 H       
  25 H25            1.5569    -2.3380     0.9570 H       
  26 H26           -0.1826    -2.4992    -1.5261 H       
  27 H27           -0.4252    -3.2652     0.0794 H       
  28 H28           -1.3215    -1.3039     1.0178 H       
  29 H29           -1.7564    -0.9593    -0.6825 H       
  30 H30           -0.2802     3.9025     0.0295 H       
  31 H31            1.6489     5.7671     0.9118 H       
  32 H32            1.6304     5.7788    -0.8680 H       
  33 H33           -4.1612     9.1900    -0.2729 H       
  34 H34           -2.5435     8.0659     3.3867 H       
  35 H35           -0.2770     6.4848     2.1669 H       
  36 H36           -0.3242     6.5148    -2.0881 H       
  37 H37           -2.3363     7.9194    -2.0936 H       
  38 H38           -5.6206     8.9622     2.6266 H       
  39 H39           -4.3875     9.9817     3.4065 H       
  40 H40           -5.0879    10.4698     1.8447 H       
@<TRIPOS>BOND
   1    1    2 1
   2    1    5 2
   3    2    3 1
   4    2    8 1
   5    3    4 2
   6    3    6 1
   7    4    5 1
   8    4   23 1
   9    5    9 1
  10    6    7 1
  11    6   24 1
  12    6   25 1
  13    7    8 1
  14    7   26 1
  15    7   27 1
  16    8   28 1
  17    8   29 1
  18    9   10 2
  19    9   11 am
  20   11   12 1
  21   11   30 1
  22   12   18 1
  23   12   31 1
  24   12   32 1
  25   13   14 1
  26   13   21 1
  27   13   33 1
  28   14   15 2
  29   14   22 1
  30   15   16 1
  31   15   34 1
  32   16   17 ar
  33   16   21 ar
  34   17   18 ar
  35   17   35 1
  36   18   19 ar
  37   19   20 ar
  38   19   36 1
  39   20   21 ar
  40   20   37 1
  41   22   38 1
  42   22   39 1
  43   22   40 1

#	End of record

