#	Name: ASD03091056
#	Creating user name:	WinNT
#	Creation time:	15. 06. 2019 20:30

#	Modifying user name:	WinNT
#	Modification time:	15. 06. 2019 20:30

#	Program:	/corina/corina34_cracker 3.40 0067  02.08.2006

@<TRIPOS>MOLECULE
ASD03091056
  36   36    0    0    0
SMALL
NO_CHARGES


@<TRIPOS>ATOM
   1 C1            -0.5746     0.7430     0.7458 C.2     
   2 C2            -0.3321    -0.7346     0.5756 C.3     
   3 O3             0.3565     1.5129     0.7375 O.2     
   4 O4            -1.8256     1.2042     0.9011 O.3     
   5 C5             1.5592    -2.2364     0.2518 C.2     
   6 C6             3.0085    -2.4830     0.0942 C.ar    
   7 C7             3.4882    -3.1396    -1.0404 C.ar    
   8 C8             4.8413    -3.3673    -1.1827 C.ar    
   9 C9             5.7239    -2.9466    -0.2039 C.ar    
  10 C10            5.2555    -2.2942     0.9251 C.ar    
  11 C11            3.9026    -2.0553     1.0762 C.ar    
  12 O12            0.7784    -3.1677     0.2302 O.2     
  13 N13            1.1039    -0.9790     0.4194 N.am    
  14 N14            2.5464    -3.5914    -2.0891 N.pl3   
  15 O15            2.9466    -4.2771    -3.0128 O.2     
  16 O16            1.3711    -3.2774    -2.0284 O.2     
  17 F17            6.1231    -1.8861     1.8769 F       
  18 C18           -1.9842     2.6388     1.0596 C.3     
  19 C19           -1.4334     3.3525    -0.1765 C.3     
  20 C20           -3.4684     2.9729     1.2224 C.3     
  21 C21           -1.2181     3.1026     2.3001 C.3     
  22 H22           -0.6977    -1.2664     1.4541 H       
  23 H23           -0.8595    -1.0898    -0.3097 H       
  24 H24            5.2126    -3.8756    -2.0603 H       
  25 H25            6.7822    -3.1278    -0.3202 H       
  26 H26            3.5381    -1.5427     1.9542 H       
  27 H27            1.7270    -0.2358     0.4367 H       
  28 H28           -1.9792     3.0221    -1.0602 H       
  29 H29           -1.5525     4.4295    -0.0575 H       
  30 H30           -0.3760     3.1145    -0.2924 H       
  31 H31           -3.8609     2.4644     2.1030 H       
  32 H32           -3.5875     4.0498     1.3414 H       
  33 H33           -4.0142     2.6424     0.3386 H       
  34 H34           -0.1607     2.8646     2.1842 H       
  35 H35           -1.3372     4.1796     2.4191 H       
  36 H36           -1.6105     2.5942     3.1807 H       
@<TRIPOS>BOND
   1    1    2 1
   2    1    3 2
   3    1    4 1
   4    2   13 1
   5    2   22 1
   6    2   23 1
   7    4   18 1
   8    5    6 1
   9    5   12 2
  10    5   13 am
  11    6    7 ar
  12    6   11 ar
  13    7    8 ar
  14    7   14 1
  15    8    9 ar
  16    8   24 1
  17    9   10 ar
  18    9   25 1
  19   10   11 ar
  20   10   17 1
  21   11   26 1
  22   13   27 1
  23   14   15 2
  24   14   16 2
  25   18   19 1
  26   18   21 1
  27   18   20 1
  28   19   28 1
  29   19   29 1
  30   19   30 1
  31   20   31 1
  32   20   32 1
  33   20   33 1
  34   21   34 1
  35   21   35 1
  36   21   36 1

#	End of record

