#	Name: ASD01900633
#	Creating user name:	WinNT
#	Creation time:	15. 06. 2019 19:52

#	Modifying user name:	WinNT
#	Modification time:	15. 06. 2019 19:52

#	Program:	/corina/corina34_cracker 3.40 0067  02.08.2006

@<TRIPOS>MOLECULE
ASD01900633
  42   45    0    0    0
SMALL
NO_CHARGES


@<TRIPOS>ATOM
   1 C1            -0.0167     1.3807     0.0096 C.ar    
   2 C2             0.0021    -0.0041     0.0020 C.ar    
   3 C3             1.1985    -0.6925    -0.0152 C.ar    
   4 C4             2.3999     0.0037    -0.0252 C.ar    
   5 C5             2.3760     1.4050    -0.0131 C.ar    
   6 O6             3.5769    -0.6572    -0.0538 O.3     
   7 C7             4.7391    -0.0447     0.2309 C.2     
   8 C8             4.8689     1.3029     0.2637 C.2     
   9 C9             3.6750     2.1247    -0.0105 C.2     
  10 N10            3.7558     3.4132    -0.2380 N.2     
  11 C11            5.9239    -0.8762     0.5203 C.ar    
  12 N12            7.0865    -0.2820     0.8050 N.ar    
  13 C13            8.1777    -0.9559     1.0716 C.ar    
  14 C14            8.1617    -2.3612     1.0670 C.ar    
  15 C15            6.9450    -3.0321     0.7690 C.ar    
  16 C16            5.8060    -2.2573     0.4966 C.ar    
  17 C17            9.3125    -3.1134     1.3476 C.ar    
  18 C18            9.2480    -4.4771     1.3307 C.ar    
  19 C19            8.0459    -5.1390     1.0359 C.ar    
  20 C20            6.9091    -4.4347     0.7591 C.ar    
  21 O21            5.0171     4.0567    -0.2251 O.3     
  22 C22            1.1683     2.0900     0.0021 C.ar    
  23 O23           10.3637    -5.2040     1.6027 O.3     
  24 C24           11.5575    -4.4751     1.8950 C.3     
  25 O25            8.0129    -6.4974     1.0258 O.3     
  26 C26            6.7606    -7.1136     0.7189 C.3     
  27 H27           -0.9598     1.9069     0.0169 H       
  28 H28           -0.9291    -0.5511     0.0100 H       
  29 H29            1.2000    -1.7725    -0.0204 H       
  30 H30            5.8205     1.7633     0.4848 H       
  31 H31            9.0937    -0.4293     1.2956 H       
  32 H32            4.8612    -2.7269     0.2659 H       
  33 H33           10.2440    -2.6165     1.5752 H       
  34 H34            5.9891    -4.9536     0.5338 H       
  35 H35            4.9761     5.0062    -0.4032 H       
  36 H36            1.1557     3.1699     0.0081 H       
  37 H37           12.3704    -5.1737     2.0931 H       
  38 H38           11.8177    -3.8471     1.0430 H       
  39 H39           11.3951    -3.8486     2.7720 H       
  40 H40            6.8730    -8.1974     0.7447 H       
  41 H41            6.0155    -6.8079     1.4534 H       
  42 H42            6.4381    -6.8054    -0.2757 H       
@<TRIPOS>BOND
   1    1    2 ar
   2    1   22 ar
   3    1   27 1
   4    2    3 ar
   5    2   28 1
   6    3    4 ar
   7    3   29 1
   8    4    5 ar
   9    4    6 1
  10    5   22 ar
  11    5    9 1
  12    6    7 1
  13    7    8 2
  14    7   11 1
  15    8    9 1
  16    8   30 1
  17    9   10 2
  18   10   21 1
  19   11   12 ar
  20   11   16 ar
  21   12   13 ar
  22   13   14 ar
  23   13   31 1
  24   14   15 ar
  25   14   17 ar
  26   15   16 ar
  27   15   20 ar
  28   16   32 1
  29   17   18 ar
  30   17   33 1
  31   18   19 ar
  32   18   23 1
  33   19   20 ar
  34   19   25 1
  35   20   34 1
  36   21   35 1
  37   22   36 1
  38   23   24 1
  39   24   37 1
  40   24   38 1
  41   24   39 1
  42   25   26 1
  43   26   40 1
  44   26   41 1
  45   26   42 1

#	End of record

