#	Name: ASD07300309
#	Creating user name:	WinNT
#	Creation time:	15. 06. 2019 21:09

#	Modifying user name:	WinNT
#	Modification time:	15. 06. 2019 21:09

#	Program:	/corina/corina34_cracker 3.40 0067  02.08.2006

@<TRIPOS>MOLECULE
ASD07300309
  29   31    0    0    0
SMALL
NO_CHARGES


@<TRIPOS>ATOM
   1 C1            -0.0161     1.3415    -0.2210 C.2     
   2 N2             0.0009     0.1021    -0.6375 N.2     
   3 C3             1.2867    -0.3140    -0.7799 C.ar    
   4 C4             2.1114     0.7646    -0.4191 C.ar    
   5 N5             1.2602     1.7990    -0.0698 N.pl3   
   6 C6             1.8673    -1.5178    -1.1855 C.ar    
   7 C7             3.2387    -1.6356    -1.2278 C.ar    
   8 C8             4.0482    -0.5678    -0.8706 C.ar    
   9 C9             3.4904     0.6281    -0.4677 C.ar    
  10 C10            1.6563     3.1363     0.3783 C.3     
  11 O11           -1.1338     2.0649     0.0188 O.3     
  12 C12           -2.3347     1.4364    -0.0828 C.ar    
  13 C13           -2.7596     0.5830     0.9251 C.ar    
  14 C14           -3.9804    -0.0548     0.8198 C.ar    
  15 C15           -4.7789     0.1567    -0.2899 C.ar    
  16 C16           -4.3569     1.0070    -1.2964 C.ar    
  17 C17           -3.1398     1.6519    -1.1920 C.ar    
  18 Br18          -6.4494    -0.7183    -0.4316 Br      
  19 H19            1.2429    -2.3536    -1.4648 H       
  20 H20            3.6872    -2.5667    -1.5412 H       
  21 H21            5.1224    -0.6731    -0.9077 H       
  22 H22            4.1263     1.4561    -0.1911 H       
  23 H23            1.7567     3.1409     1.4637 H       
  24 H24            2.6103     3.4040    -0.0760 H       
  25 H25            0.8966     3.8591     0.0807 H       
  26 H26           -2.1362     0.4171     1.7913 H       
  27 H27           -4.3115    -0.7192     1.6042 H       
  28 H28           -4.9815     1.1701    -2.1622 H       
  29 H29           -2.8131     2.3195    -1.9755 H       
@<TRIPOS>BOND
   1    1    2 2
   2    1    5 1
   3    1   11 1
   4    2    3 1
   5    3    4 ar
   6    3    6 ar
   7    4    5 1
   8    4    9 ar
   9    5   10 1
  10    6    7 ar
  11    6   19 1
  12    7    8 ar
  13    7   20 1
  14    8    9 ar
  15    8   21 1
  16    9   22 1
  17   10   23 1
  18   10   24 1
  19   10   25 1
  20   11   12 1
  21   12   13 ar
  22   12   17 ar
  23   13   14 ar
  24   13   26 1
  25   14   15 ar
  26   14   27 1
  27   15   16 ar
  28   15   18 1
  29   16   17 ar
  30   16   28 1
  31   17   29 1

#	End of record

