#	Name: ASD01813587
#	Creating user name:	WinNT
#	Creation time:	15. 06. 2019 19:30

#	Modifying user name:	WinNT
#	Modification time:	15. 06. 2019 19:30

#	Program:	/corina/corina34_cracker 3.40 0067  02.08.2006

@<TRIPOS>MOLECULE
ASD01813587
  51   54    0    0    0
SMALL
NO_CHARGES


@<TRIPOS>ATOM
   1 N1            -0.6449     2.0960     0.3863 N.pl3   
   2 C2             0.5733     2.6465     0.3111 C.2     
   3 C3             1.6788     1.9316    -0.1038 C.2     
   4 C4             1.5124     0.5168    -0.4753 C.2     
   5 C5             0.1557    -0.0499    -0.3777 C.ar    
   6 C6            -0.0962    -1.3838    -0.7103 C.ar    
   7 C7            -1.3795    -1.8810    -0.6074 C.ar    
   8 C8            -2.4139    -1.0634    -0.1773 C.ar    
   9 C9            -2.1795     0.2552     0.1538 C.ar    
  10 C10           -0.8913     0.7794     0.0581 C.ar    
  11 C11            2.9995     2.5721    -0.1739 C.2     
  12 O12            3.1253     3.7412     0.1348 O.2     
  13 O13            4.0717     1.8633    -0.5807 O.3     
  14 O14            2.4568    -0.1571    -0.8481 O.2     
  15 C15           -1.7626     2.9260     0.8425 C.3     
  16 C16           -1.9771     2.7125     2.3188 C.ar    
  17 C17           -1.3949     3.5795     3.2248 C.ar    
  18 C18           -1.5952     3.3798     4.5835 C.ar    
  19 C19           -2.3770     2.3110     4.9861 C.ar    
  20 C20           -2.9333     1.4767     4.0184 C.ar    
  21 N21           -2.7213     1.7054     2.7283 N.ar    
  22 C22           -3.7731     0.3276     4.4332 C.ar    
  23 C23           -4.3330    -0.5116     3.4703 C.ar    
  24 C24           -5.1131    -1.5795     3.8581 C.ar    
  25 C25           -5.3420    -1.8206     5.2083 C.ar    
  26 C26           -4.7846    -0.9851     6.1701 C.ar    
  27 C27           -3.9996     0.0809     5.7869 C.ar    
  28 S28           -5.5280    -4.4413     5.5155 S.o2    
  29 O29           -6.5870    -5.2594     5.9935 O.2     
  30 O30           -5.0551    -4.5607     4.1808 O.2     
  31 N31           -6.1320    -2.9016     5.5985 N.am    
  32 C32           -4.1414    -4.4472     6.6851 C.3     
  33 F33           -3.1984     1.0385     0.5702 F       
  34 F34            0.9101    -2.1813    -1.1303 F       
  35 H35            0.6949     3.6844     0.5836 H       
  36 H36           -1.5791    -2.9111    -0.8633 H       
  37 H37           -3.4142    -1.4634    -0.1010 H       
  38 H38            4.9193     2.3277    -0.6105 H       
  39 H39           -1.5353     3.9756     0.6564 H       
  40 H40           -2.6664     2.6483     0.3001 H       
  41 H41           -0.7896     4.4042     2.8785 H       
  42 H42           -1.1506     4.0433     5.3104 H       
  43 H43           -2.5532     2.1261     6.0354 H       
  44 H44           -4.1558    -0.3245     2.4215 H       
  45 H45           -5.5472    -2.2295     3.1128 H       
  46 H46           -4.9640    -1.1739     7.2182 H       
  47 H47           -3.5633     0.7269     6.5343 H       
  48 H48           -7.0354    -2.7516     5.9185 H       
  49 H49           -3.7045    -5.4450     6.7256 H       
  50 H50           -3.3862    -3.7330     6.3568 H       
  51 H51           -4.5002    -4.1671     7.6755 H       
@<TRIPOS>BOND
   1    1    2 1
   2    1   10 1
   3    1   15 1
   4    2    3 2
   5    2   35 1
   6    3    4 1
   7    3   11 1
   8    4    5 1
   9    4   14 2
  10    5    6 ar
  11    5   10 ar
  12    6    7 ar
  13    6   34 1
  14    7    8 ar
  15    7   36 1
  16    8    9 ar
  17    8   37 1
  18    9   10 ar
  19    9   33 1
  20   11   12 2
  21   11   13 1
  22   13   38 1
  23   15   16 1
  24   15   39 1
  25   15   40 1
  26   16   17 ar
  27   16   21 ar
  28   17   18 ar
  29   17   41 1
  30   18   19 ar
  31   18   42 1
  32   19   20 ar
  33   19   43 1
  34   20   21 ar
  35   20   22 1
  36   22   23 ar
  37   22   27 ar
  38   23   24 ar
  39   23   44 1
  40   24   25 ar
  41   24   45 1
  42   25   26 ar
  43   25   31 1
  44   26   27 ar
  45   26   46 1
  46   27   47 1
  47   28   29 2
  48   28   30 2
  49   28   31 am
  50   28   32 1
  51   31   48 1
  52   32   49 1
  53   32   50 1
  54   32   51 1

#	End of record

