#	Name: ASD01230807
#	Creating user name:	WinNT
#	Creation time:	15. 06. 2019 19:15

#	Modifying user name:	WinNT
#	Modification time:	15. 06. 2019 19:15

#	Program:	/corina/corina34_cracker 3.40 0067  02.08.2006

@<TRIPOS>MOLECULE
ASD01230807
  36   39    0    0    0
SMALL
NO_CHARGES


@<TRIPOS>ATOM
   1 C1            -0.0166     1.3735     0.0096 C.2     
   2 C2             0.0021    -0.0041     0.0020 C.2     
   3 C3            -1.2146    -0.7002     0.0078 C.2     
   4 C4            -2.3849    -0.0394     0.0099 C.2     
   5 N5            -2.4622     1.3311     0.0007 N.pl3   
   6 C6            -1.3173     2.0756     0.0320 C.2     
   7 C7            -3.8097     1.9044    -0.0495 C.3     
   8 C8            -3.8780     3.1899     0.7801 C.3     
   9 S9            -2.6218     4.3261     0.1123 S.o2    
  10 N10           -1.2618     3.3845     0.0819 N.am    
  11 C11            1.2500     2.1409     0.0016 C.ar    
  12 O12           -2.8866     4.6256    -1.2513 O.2     
  13 O13           -2.3210     5.3519     1.0485 O.2     
  14 C14            2.0946     2.0706    -1.0968 C.ar    
  15 C15            3.2876     2.7992    -1.0933 C.ar    
  16 C16            3.6188     3.5944     0.0212 C.ar    
  17 C17            2.7538     3.6494     1.1131 C.ar    
  18 C18            1.5895     2.9408     1.1014 C.ar    
  19 C19            4.3802     2.9561    -2.0488 C.2     
  20 N20            5.2535     3.7674    -1.5243 N.2     
  21 N21            4.8261     4.1810    -0.2586 N.pl3   
  22 C22            5.5520     5.0952     0.6266 C.3     
  23 H23            0.9399    -0.5395    -0.0085 H       
  24 H24           -1.2115    -1.7802     0.0101 H       
  25 H25           -3.3019    -0.6099     0.0189 H       
  26 H26           -4.0661     2.1303    -1.0845 H       
  27 H27           -4.5229     1.1820     0.3475 H       
  28 H28           -4.8681     3.6372     0.6912 H       
  29 H29           -3.6614     2.9695     1.8253 H       
  30 H30            1.8329     1.4580    -1.9469 H       
  31 H31            3.0050     4.2582     1.9690 H       
  32 H32            0.9255     2.9899     1.9518 H       
  33 H33            4.4518     2.4833    -3.0172 H       
  34 H34            5.2453     6.1206     0.4204 H       
  35 H35            5.3273     4.8505     1.6648 H       
  36 H36            6.6234     4.9945     0.4533 H       
@<TRIPOS>BOND
   1    1    2 2
   2    1   11 1
   3    1    6 1
   4    2    3 1
   5    2   23 1
   6    3    4 2
   7    3   24 1
   8    4    5 1
   9    4   25 1
  10    5    6 1
  11    5    7 1
  12    6   10 2
  13    7    8 1
  14    7   26 1
  15    7   27 1
  16    8    9 1
  17    8   28 1
  18    8   29 1
  19    9   10 am
  20    9   12 2
  21    9   13 2
  22   11   14 ar
  23   11   18 ar
  24   14   15 ar
  25   14   30 1
  26   15   16 ar
  27   15   19 1
  28   16   17 ar
  29   16   21 1
  30   17   18 ar
  31   17   31 1
  32   18   32 1
  33   19   20 2
  34   19   33 1
  35   20   21 1
  36   21   22 1
  37   22   34 1
  38   22   35 1
  39   22   36 1

#	End of record

