#	Name: ASD01810450
#	Creating user name:	WinNT
#	Creation time:	15. 06. 2019 19:24

#	Modifying user name:	WinNT
#	Modification time:	15. 06. 2019 19:24

#	Program:	/corina/corina34_cracker 3.40 0067  02.08.2006

@<TRIPOS>MOLECULE
ASD01810450
  25   26    0    0    0
SMALL
NO_CHARGES


@<TRIPOS>ATOM
   1 C1            -0.0168     1.3872     0.0097 C.ar    
   2 C2             0.0021    -0.0041     0.0020 C.ar    
   3 C3             1.2195    -0.6601    -0.0132 C.ar    
   4 C4             2.3819     0.0999    -0.0202 C.ar    
   5 C5             2.2894     1.4770    -0.0120 C.ar    
   6 N6             1.1136     2.0763     0.0026 N.ar    
   7 N7            -1.2333     2.0595     0.0191 N.3     
   8 C8            -1.0300     3.5198     0.0261 C.3     
   9 C9            -1.7733     4.0908    -1.1999 C.3     
  10 C10           -2.8258     2.9947    -1.5122 C.3     
  11 C11           -2.0449     1.7029    -1.1641 C.3     
  12 N12            3.7065    -0.5602    -0.0360 N.pl3   
  13 O13            3.7810    -1.7759    -0.0428 O.2     
  14 O14            4.7220     0.1123    -0.0421 O.2     
  15 H15           -0.9214    -0.5640     0.0082 H       
  16 H16            1.2652    -1.7391    -0.0191 H       
  17 H17            3.1908     2.0718    -0.0174 H       
  18 H18           -1.4407     3.9471     0.9409 H       
  19 H19            0.0337     3.7464    -0.0466 H       
  20 H20           -2.2608     5.0333    -0.9504 H       
  21 H21           -1.0901     4.2194    -2.0394 H       
  22 H22           -3.7038     3.1037    -0.8755 H       
  23 H23           -3.1050     3.0103    -2.5657 H       
  24 H24           -1.3997     1.4143    -1.9939 H       
  25 H25           -2.7359     0.8957    -0.9210 H       
@<TRIPOS>BOND
   1    1    2 ar
   2    1    6 ar
   3    1    7 1
   4    2    3 ar
   5    2   15 1
   6    3    4 ar
   7    3   16 1
   8    4    5 ar
   9    4   12 1
  10    5    6 ar
  11    5   17 1
  12    7    8 1
  13    7   11 1
  14    8    9 1
  15    8   18 1
  16    8   19 1
  17    9   10 1
  18    9   20 1
  19    9   21 1
  20   10   11 1
  21   10   22 1
  22   10   23 1
  23   11   24 1
  24   11   25 1
  25   12   13 2
  26   12   14 2

#	End of record

