#	Name: ASD02508360
#	Creating user name:	WinNT
#	Creation time:	15. 06. 2019 20:24

#	Modifying user name:	WinNT
#	Modification time:	15. 06. 2019 20:24

#	Program:	/corina/corina34_cracker 3.40 0067  02.08.2006

@<TRIPOS>MOLECULE
ASD02508360
  43   45    0    0    0
SMALL
NO_CHARGES


@<TRIPOS>ATOM
   1 C1             0.6230     1.5297     0.6611 C.2     
   2 C2             0.4663     0.1286     0.6624 C.2     
   3 C3             1.6087    -0.4072     0.1880 C.2     
   4 N4             2.4682     0.6134    -0.1073 N.pl3   
   5 C5             1.8554     1.7991     0.1860 C.2     
   6 C6             3.7592     0.4686    -0.6231 C.ar    
   7 C7             4.5289     1.5969    -0.8784 C.ar    
   8 N8             4.2388    -0.7418    -0.8584 N.ar    
   9 C9             5.4518    -0.9232    -1.3443 C.ar    
  10 C10            6.2699     0.1531    -1.6259 C.ar    
  11 C11            5.8057     1.4395    -1.3886 C.ar    
  12 S12            1.9373    -2.1263    -0.0155 S.o2    
  13 O13            1.6586    -2.4298    -1.3754 O.2     
  14 O14            3.1988    -2.3684     0.5922 O.2     
  15 N15            0.8183    -2.9493     0.8861 N.am    
  16 C16            0.7740    -2.7767     2.2715 C.ar    
  17 C17           -0.4433    -2.5746     2.9093 C.ar    
  18 C18            1.9467    -2.8126     3.0152 C.ar    
  19 C19            1.8994    -2.6416     4.3848 C.ar    
  20 C20            0.6864    -2.4353     5.0159 C.ar    
  21 C21           -0.4834    -2.4043     4.2792 C.ar    
  22 C22           -1.8030    -2.1792     4.9713 C.3     
  23 C23            3.1711    -2.6803     5.1925 C.3     
  24 C24            7.6541    -0.0670    -2.1798 C.3     
  25 F25            7.8863    -1.4391    -2.3233 F       
  26 F26            7.7619     0.5572    -3.4272 F       
  27 F27            8.5990     0.4767    -1.3030 F       
  28 H28           -0.1118     2.2548     0.9784 H       
  29 H29           -0.4087    -0.4159     0.9851 H       
  30 H30            2.2843     2.7821     0.0590 H       
  31 H31            4.1359     2.5835    -0.6817 H       
  32 H32            5.8097    -1.9263    -1.5237 H       
  33 H33            6.4255     2.2982    -1.6006 H       
  34 H34            0.1935    -3.5512     0.4522 H       
  35 H35           -1.3573    -2.5502     2.3345 H       
  36 H36            2.8943    -2.9744     2.5230 H       
  37 H37            0.6521    -2.3025     6.0872 H       
  38 H38           -2.0146    -1.1106     5.0116 H       
  39 H39           -2.5943    -2.6856     4.4185 H       
  40 H40           -1.7547    -2.5784     5.9844 H       
  41 H41            3.5867    -1.6752     5.2643 H       
  42 H42            2.9551    -3.0565     6.1925 H       
  43 H43            3.8914    -3.3373     4.7049 H       
@<TRIPOS>BOND
   1    1    2 1
   2    1    5 2
   3    1   28 1
   4    2    3 2
   5    2   29 1
   6    3    4 1
   7    3   12 1
   8    4    5 1
   9    4    6 1
  10    5   30 1
  11    6    7 ar
  12    6    8 ar
  13    7   11 ar
  14    7   31 1
  15    8    9 ar
  16    9   10 ar
  17    9   32 1
  18   10   11 ar
  19   10   24 1
  20   11   33 1
  21   12   13 2
  22   12   14 2
  23   12   15 am
  24   15   16 1
  25   15   34 1
  26   16   17 ar
  27   16   18 ar
  28   17   21 ar
  29   17   35 1
  30   18   19 ar
  31   18   36 1
  32   19   20 ar
  33   19   23 1
  34   20   21 ar
  35   20   37 1
  36   21   22 1
  37   22   38 1
  38   22   39 1
  39   22   40 1
  40   23   41 1
  41   23   42 1
  42   23   43 1
  43   24   25 1
  44   24   26 1
  45   24   27 1

#	End of record

