#	Name: ASD01881452
#	Creating user name:	WinNT
#	Creation time:	15. 06. 2019 19:42

#	Modifying user name:	WinNT
#	Modification time:	15. 06. 2019 19:42

#	Program:	/corina/corina34_cracker 3.40 0067  02.08.2006

@<TRIPOS>MOLECULE
ASD01881452
  53   57    0    0    0
SMALL
NO_CHARGES


@<TRIPOS>ATOM
   1 C1             0.1537     1.4489     0.0158 C.3     
   2 C2            -1.7922    -4.2698    -3.1962 C.3     
   3 C3             1.1197     1.3241     4.0960 C.ar    
   4 C4             1.0876     0.6510     2.8928 C.ar    
   5 C5             0.0006     1.3350     4.9174 C.ar    
   6 C6            -1.1559     0.6677     4.5302 C.ar    
   7 C7            -1.1942    -0.0073     3.3281 C.ar    
   8 C8            -0.0708    -0.0196     2.5009 C.ar    
   9 C9            -0.1083    -0.7431     1.2086 C.2     
  10 C10           -0.0016    -0.0501     0.0174 C.2     
  11 C11           -0.2481    -2.1522     1.1818 C.2     
  12 C12           -0.2821    -2.8077     0.0066 C.2     
  13 N13           -0.1831    -2.1308    -1.1749 N.pl3   
  14 C14           -0.0407    -0.7642    -1.1922 C.2     
  15 C15           -0.1875    -2.5203    -2.4798 C.2     
  16 N16           -0.0609    -1.4444    -3.2126 N.2     
  17 N17            0.0274    -0.4016    -2.4641 N.2     
  18 C18           -0.3143    -3.9337    -2.9870 C.3     
  19 Cl19          -2.5527     0.6837     5.5610 Cl      
  20 O20            0.0357     1.9992     6.1020 O.3     
  21 C21            0.3668     1.2971     7.2174 C.ar    
  22 C22            0.4818     1.9368     8.4431 C.ar    
  23 C23            0.5899    -0.0748     7.1476 C.ar    
  24 N24            0.8033     1.2597     9.5277 N.ar    
  25 C25            1.0264    -0.0394     9.4947 C.ar    
  26 C26            0.9251    -0.7473     8.3114 C.ar    
  27 C27           -2.1267    -5.6256    -3.8214 C.3     
  28 C28           -2.3925    -5.3824    -2.3344 C.3     
  29 C29            1.3913    -0.7634    10.7651 C.3     
  30 C30            0.2372     3.4209     8.5357 C.3     
  31 H31            1.2130     1.7044     0.0454 H       
  32 H32           -0.2940     1.8596    -0.8891 H       
  33 H33           -0.3453     1.8668     0.8901 H       
  34 H34           -2.4348    -3.4266    -3.4493 H       
  35 H35            2.0181     1.8397     4.4016 H       
  36 H36            1.9587     0.6435     2.2544 H       
  37 H37           -2.0927    -0.5259     3.0276 H       
  38 H38           -0.3274    -2.7028     2.1076 H       
  39 H39           -0.3887    -3.8824    -0.0018 H       
  40 H40            0.1150    -4.6212    -2.2582 H       
  41 H41            0.2175    -4.0291    -3.9336 H       
  42 H42            0.5034    -0.6023     6.2092 H       
  43 H43            1.1095    -1.8113     8.2938 H       
  44 H44           -2.9897    -5.6744    -4.4856 H       
  45 H45           -1.2939    -6.2781    -4.0837 H       
  46 H46           -1.7346    -5.8749    -1.6185 H       
  47 H47           -3.4303    -5.2712    -2.0203 H       
  48 H48            0.4840    -1.1135    11.2572 H       
  49 H49            2.0279    -1.6157    10.5275 H       
  50 H50            1.9261    -0.0845    11.4294 H       
  51 H51           -0.8173     3.6031     8.7430 H       
  52 H52            0.8431     3.8396     9.3392 H       
  53 H53            0.5088     3.8934     7.5917 H       
@<TRIPOS>BOND
   1    1   10 1
   2    1   31 1
   3    1   32 1
   4    1   33 1
   5    2   27 1
   6    2   18 1
   7    2   28 1
   8    2   34 1
   9    3    4 ar
  10    3    5 ar
  11    3   35 1
  12    4    8 ar
  13    4   36 1
  14    5    6 ar
  15    5   20 1
  16    6    7 ar
  17    6   19 1
  18    7    8 ar
  19    7   37 1
  20    8    9 1
  21    9   10 2
  22    9   11 1
  23   10   14 1
  24   11   12 2
  25   11   38 1
  26   12   13 1
  27   12   39 1
  28   13   14 1
  29   13   15 1
  30   14   17 2
  31   15   16 2
  32   15   18 1
  33   16   17 1
  34   18   40 1
  35   18   41 1
  36   20   21 1
  37   21   22 ar
  38   21   23 ar
  39   22   24 ar
  40   22   30 1
  41   23   26 ar
  42   23   42 1
  43   24   25 ar
  44   25   26 ar
  45   25   29 1
  46   26   43 1
  47   27   28 1
  48   27   44 1
  49   27   45 1
  50   28   46 1
  51   28   47 1
  52   29   48 1
  53   29   49 1
  54   29   50 1
  55   30   51 1
  56   30   52 1
  57   30   53 1

#	End of record

