#	Name: ASD01940318
#	Creating user name:	WinNT
#	Creation time:	15. 06. 2019 20:12

#	Modifying user name:	WinNT
#	Modification time:	15. 06. 2019 20:12

#	Program:	/corina/corina34_cracker 3.40 0067  02.08.2006

@<TRIPOS>MOLECULE
ASD01940318
  29   30    0    0    0
SMALL
NO_CHARGES


@<TRIPOS>ATOM
   1 C1            -0.0119     1.4058     0.1160 C.ar    
   2 C2             0.0458     0.0242    -0.0632 C.ar    
   3 C3             1.2628    -0.6337     0.0279 C.ar    
   4 C4             2.4173     0.0792     0.2965 C.ar    
   5 C5             2.3626     1.4505     0.4752 C.ar    
   6 C6             1.1500     2.1161     0.3849 C.ar    
   7 N7            -1.2390     2.0763     0.0192 N.pl3   
   8 N8            -1.1240    -0.6979    -0.3344 N.pl3   
   9 C9             1.3277    -2.1268    -0.1654 C.3     
  10 C10           -1.2658     3.4597    -0.1834 C.ar    
  11 C11           -0.8757     3.9928    -1.4082 C.ar    
  12 C12           -0.9041     5.3607    -1.6045 C.ar    
  13 C13           -1.3198     6.1986    -0.5845 C.ar    
  14 C14           -1.7074     5.6709     0.6336 C.ar    
  15 C15           -1.6870     4.3040     0.8348 C.ar    
  16 I16           -1.3613     8.2713    -0.8862 I       
  17 F17           -0.4695     3.1747    -2.4036 F       
  18 F18            1.0990     3.4549     0.5588 F       
  19 F19            3.4932     2.1419     0.7378 F       
  20 H20            3.3640    -0.4357     0.3673 H       
  21 H21           -2.0696     1.5808     0.0928 H       
  22 H22           -1.9750    -0.2368    -0.3976 H       
  23 H23           -1.0828    -1.6590    -0.4589 H       
  24 H24            1.4928    -2.3499    -1.2195 H       
  25 H25            2.1484    -2.5343     0.4251 H       
  26 H26            0.3890    -2.5763     0.1584 H       
  27 H27           -0.6013     5.7760    -2.5544 H       
  28 H28           -2.0306     6.3280     1.4274 H       
  29 H29           -1.9945     3.8930     1.7851 H       
@<TRIPOS>BOND
   1    1    2 ar
   2    1    6 ar
   3    1    7 1
   4    2    3 ar
   5    2    8 1
   6    3    4 ar
   7    3    9 1
   8    4    5 ar
   9    4   20 1
  10    5    6 ar
  11    5   19 1
  12    6   18 1
  13    7   10 1
  14    7   21 1
  15    8   22 1
  16    8   23 1
  17    9   24 1
  18    9   25 1
  19    9   26 1
  20   10   11 ar
  21   10   15 ar
  22   11   12 ar
  23   11   17 1
  24   12   13 ar
  25   12   27 1
  26   13   14 ar
  27   13   16 1
  28   14   15 ar
  29   14   28 1
  30   15   29 1

#	End of record

