#	Name: ASD03730969
#	Creating user name:	WinNT
#	Creation time:	15. 06. 2019 20:45

#	Modifying user name:	WinNT
#	Modification time:	15. 06. 2019 20:45

#	Program:	/corina/corina34_cracker 3.40 0067  02.08.2006

@<TRIPOS>MOLECULE
ASD03730969
  75   82    0    0    0
SMALL
NO_CHARGES


@<TRIPOS>ATOM
   1 C1            -1.3219     0.6303    -0.2393 C.2     
   2 C2            -1.9020    -0.7086    -0.4778 C.ar    
   3 C3            -1.0752    -1.8322    -0.5267 C.ar    
   4 C4            -1.6228    -3.0785    -0.7491 C.ar    
   5 C5            -2.9886    -3.2163    -0.9239 C.ar    
   6 C6            -3.8136    -2.1069    -0.8766 C.ar    
   7 C7            -3.2792    -0.8552    -0.6492 C.ar    
   8 O8            -0.1226     0.7544    -0.0853 O.2     
   9 N9            -2.1223     1.7139    -0.1982 N.am    
  10 C10           -0.7317    -4.2927    -0.8022 C.3     
  11 O11           -4.8101    -4.0570     5.1141 O.3     
  12 C12           -5.1201    -4.4356     6.4682 C.3     
  13 O13           -4.7689    -5.8309     6.5223 O.3     
  14 C14           -3.7936    -5.9994     5.5815 C.ar    
  15 C15           -3.8201    -4.9088     4.7153 C.ar    
  16 C16           -2.8695    -7.0112     5.3916 C.ar    
  17 C17           -1.9634    -6.9497     4.3372 C.ar    
  18 C18           -2.0051    -5.8593     3.4736 C.ar    
  19 C19           -2.9212    -4.8459     3.6639 C.ar    
  20 O20           -0.9734    -7.8200     3.9866 O.3     
  21 C21           -0.9385    -6.0920     2.4372 C.3     
  22 C22           -0.5869    -7.5746     2.6206 C.3     
  23 N23           -0.5992    -4.8604     0.5418 N.am    
  24 C24           -1.4239    -5.7996     1.0467 C.2     
  25 C25            0.2546    -5.2052     2.6367 C.ar    
  26 C26            1.1284    -5.0068     3.6824 C.ar    
  27 C27            2.1602    -4.0934     3.5595 C.ar    
  28 C28            2.3114    -3.3798     2.3844 C.ar    
  29 C29            1.4383    -3.5743     1.3345 C.ar    
  30 C30            0.3969    -4.4920     1.4492 C.ar    
  31 O31           -2.3719    -6.3089     0.4873 O.2     
  32 C32           -1.5475     3.0405     0.0381 C.3     
  33 C33           -2.6633     4.0874     0.0369 C.3     
  34 C34           -3.5861     3.8394     1.2022 C.ar    
  35 C35           -3.0698     3.7156     2.4786 C.ar    
  36 C36           -3.9162     3.4880     3.5475 C.ar    
  37 C37           -5.2790     3.3847     3.3402 C.ar    
  38 C38           -5.7954     3.5094     2.0640 C.ar    
  39 C39           -4.9494     3.7413     0.9956 C.ar    
  40 C40           -2.0611     5.4636     0.1570 C.ar    
  41 C41           -2.4083     6.4512    -0.7458 C.ar    
  42 C42           -1.8558     7.7135    -0.6356 C.ar    
  43 C43           -0.9566     7.9884     0.3777 C.ar    
  44 C44           -0.6101     7.0011     1.2810 C.ar    
  45 C45           -1.1659     5.7400     1.1734 C.ar    
  46 H46           -0.0090    -1.7259    -0.3911 H       
  47 H47           -3.4123    -4.1943    -1.0985 H       
  48 H48           -4.8787    -2.2212    -1.0139 H       
  49 H49           -3.9248     0.0096    -0.6084 H       
  50 H50           -3.0789     1.6153    -0.3250 H       
  51 H51           -1.1694    -5.0357    -1.4689 H       
  52 H52            0.2519    -4.0056    -1.1739 H       
  53 H53           -4.5189    -3.8618     7.1735 H       
  54 H54           -6.1826    -4.3000     6.6701 H       
  55 H55           -2.8512    -7.8544     6.0662 H       
  56 H56           -2.9376    -4.0014     2.9909 H       
  57 H57            0.4822    -7.7386     2.4854 H       
  58 H58           -1.1646    -8.1969     1.9371 H       
  59 H59            1.0082    -5.5649     4.5992 H       
  60 H60            2.8462    -3.9382     4.3790 H       
  61 H61            3.1169    -2.6667     2.2885 H       
  62 H62            1.5625    -3.0130     0.4203 H       
  63 H63           -1.0411     3.0504     1.0033 H       
  64 H64           -0.8314     3.2719    -0.7503 H       
  65 H65           -3.2264     4.0171    -0.8938 H       
  66 H66           -2.0051     3.7963     2.6405 H       
  67 H67           -3.5128     3.3906     4.5446 H       
  68 H68           -5.9403     3.2062     4.1752 H       
  69 H69           -6.8601     3.4283     1.9020 H       
  70 H70           -5.3532     3.8423    -0.0009 H       
  71 H71           -3.1108     6.2364    -1.5374 H       
  72 H72           -2.1265     8.4849    -1.3414 H       
  73 H73           -0.5244     8.9745     0.4633 H       
  74 H74            0.0927     7.2158     2.0725 H       
  75 H75           -0.8980     4.9696     1.8814 H       
@<TRIPOS>BOND
   1    1    2 1
   2    1    8 2
   3    1    9 am
   4    2    3 ar
   5    2    7 ar
   6    3    4 ar
   7    3   46 1
   8    4    5 ar
   9    4   10 1
  10    5    6 ar
  11    5   47 1
  12    6    7 ar
  13    6   48 1
  14    7   49 1
  15    9   32 1
  16    9   50 1
  17   10   23 1
  18   10   51 1
  19   10   52 1
  20   11   12 1
  21   11   15 1
  22   12   13 1
  23   12   53 1
  24   12   54 1
  25   13   14 1
  26   14   15 ar
  27   14   16 ar
  28   15   19 ar
  29   16   17 ar
  30   16   55 1
  31   17   18 ar
  32   17   20 1
  33   18   19 ar
  34   18   21 1
  35   19   56 1
  36   20   22 1
  37   21   22 1
  38   21   24 1
  39   21   25 1
  40   22   57 1
  41   22   58 1
  42   23   24 am
  43   23   30 1
  44   24   31 2
  45   25   26 ar
  46   25   30 ar
  47   26   27 ar
  48   26   59 1
  49   27   28 ar
  50   27   60 1
  51   28   29 ar
  52   28   61 1
  53   29   30 ar
  54   29   62 1
  55   32   33 1
  56   32   63 1
  57   32   64 1
  58   33   34 1
  59   33   40 1
  60   33   65 1
  61   34   35 ar
  62   34   39 ar
  63   35   36 ar
  64   35   66 1
  65   36   37 ar
  66   36   67 1
  67   37   38 ar
  68   37   68 1
  69   38   39 ar
  70   38   69 1
  71   39   70 1
  72   40   41 ar
  73   40   45 ar
  74   41   42 ar
  75   41   71 1
  76   42   43 ar
  77   42   72 1
  78   43   44 ar
  79   43   73 1
  80   44   45 ar
  81   44   74 1
  82   45   75 1

#	End of record

