#	Name: ASD02560098
#	Creating user name:	WinNT
#	Creation time:	15. 06. 2019 20:24

#	Modifying user name:	WinNT
#	Modification time:	15. 06. 2019 20:24

#	Program:	/corina/corina34_cracker 3.40 0067  02.08.2006

@<TRIPOS>MOLECULE
ASD02560098
  59   62    0    0    0
SMALL
NO_CHARGES


@<TRIPOS>ATOM
   1 N1            -0.2561     1.2509     0.0899 N.2     
   2 N2            -0.1805     0.0183     0.0965 N.2     
   3 C3             1.0656     1.8632    -0.0974 C.3     
   4 N4             2.0318     0.7730     0.1897 N.3     
   5 C5             1.2062    -0.4300    -0.0851 C.3     
   6 S6             1.6025    -1.7509     1.0934 S.3     
   7 C7             1.2081    -0.9994     2.6965 C.3     
   8 C8             1.4887    -1.9889     3.7979 C.2     
   9 O9             1.9131    -3.0925     3.5279 O.2     
  10 N10            1.2682    -1.6475     5.0829 N.am    
  11 C11            3.1253     0.8354    -0.6713 C.ar    
  12 C12            1.4171    -2.5978     6.0920 C.ar    
  13 C13            1.6968    -2.1908     7.3932 C.ar    
  14 C14            1.8445    -3.1261     8.3918 C.ar    
  15 C15            1.7132    -4.4868     8.0980 C.ar    
  16 C16            1.4323    -4.8921     6.7899 C.ar    
  17 C17            1.2802    -3.9506     5.7971 C.ar    
  18 C18            1.8713    -5.4920     9.1653 C.2     
  19 O19            1.7444    -6.8029     8.8803 O.3     
  20 O20            2.1159    -5.1382    10.3016 O.2     
  21 C21            4.1028     1.8406    -0.5093 C.ar    
  22 C22            3.2655    -0.0877    -1.6858 C.ar    
  23 C23            4.3542    -0.0344    -2.5508 C.ar    
  24 C24            5.3093     0.9274    -2.4204 C.ar    
  25 C25            5.2065     1.8843    -1.3966 C.ar    
  26 C26            6.1772     2.8887    -1.2386 C.ar    
  27 C27            6.0464     3.8001    -0.2362 C.ar    
  28 C28            4.9627     3.7536     0.6384 C.ar    
  29 C29            4.0018     2.7971     0.5129 C.ar    
  30 C30            6.4787     0.9624    -3.3703 C.3     
  31 C31            1.2269     2.3523    -1.5381 C.3     
  32 F32            0.1526     3.1844    -1.8711 F       
  33 F33            2.4241     3.0663    -1.6569 F       
  34 C34            1.8386    -0.7240     7.7088 C.3     
  35 C35            7.6625     0.2179    -2.7496 C.3     
  36 H36            1.2046     2.6876     0.6020 H       
  37 H37            1.3634    -0.7728    -1.1078 H       
  38 H38            1.8217    -0.1103     2.8418 H       
  39 H39            0.1544    -0.7211     2.7180 H       
  40 H40            1.0058    -0.7407     5.3056 H       
  41 H41            2.0619    -2.8095     9.4013 H       
  42 H42            1.3302    -5.9422     6.5594 H       
  43 H43            1.0631    -4.2629     4.7863 H       
  44 H44            1.8565    -7.4242     9.6127 H       
  45 H45            2.5221    -0.8612    -1.8104 H       
  46 H46            4.4432    -0.7681    -3.3383 H       
  47 H47            7.0226     2.9367    -1.9089 H       
  48 H48            6.7938     4.5705    -0.1168 H       
  49 H49            4.8822     4.4886     1.4256 H       
  50 H50            3.1672     2.7730     1.1980 H       
  51 H51            6.1992     0.4826    -4.3083 H       
  52 H52            6.7605     1.9978    -3.5617 H       
  53 H53            1.2460     1.4962    -2.2125 H       
  54 H54            0.8662    -0.3160     7.9842 H       
  55 H55            2.5343    -0.5964     8.5381 H       
  56 H56            2.2180    -0.1988     6.8322 H       
  57 H57            8.5082     0.2432    -3.4367 H       
  58 H58            7.9419     0.6977    -1.8116 H       
  59 H59            7.3806    -0.8175    -2.5583 H       
@<TRIPOS>BOND
   1    1    2 2
   2    1    3 1
   3    2    5 1
   4    3    4 1
   5    3   31 1
   6    3   36 1
   7    4    5 1
   8    4   11 1
   9    5    6 1
  10    5   37 1
  11    6    7 1
  12    7    8 1
  13    7   38 1
  14    7   39 1
  15    8    9 2
  16    8   10 am
  17   10   12 1
  18   10   40 1
  19   11   21 ar
  20   11   22 ar
  21   12   13 ar
  22   12   17 ar
  23   13   14 ar
  24   13   34 1
  25   14   15 ar
  26   14   41 1
  27   15   16 ar
  28   15   18 1
  29   16   17 ar
  30   16   42 1
  31   17   43 1
  32   18   19 1
  33   18   20 2
  34   19   44 1
  35   21   25 ar
  36   21   29 ar
  37   22   23 ar
  38   22   45 1
  39   23   24 ar
  40   23   46 1
  41   24   25 ar
  42   24   30 1
  43   25   26 ar
  44   26   27 ar
  45   26   47 1
  46   27   28 ar
  47   27   48 1
  48   28   29 ar
  49   28   49 1
  50   29   50 1
  51   30   35 1
  52   30   51 1
  53   30   52 1
  54   31   32 1
  55   31   33 1
  56   31   53 1
  57   34   54 1
  58   34   55 1
  59   34   56 1
  60   35   57 1
  61   35   58 1
  62   35   59 1

#	End of record

