#	Name: ASD01811174
#	Creating user name:	WinNT
#	Creation time:	15. 06. 2019 19:26

#	Modifying user name:	WinNT
#	Modification time:	15. 06. 2019 19:26

#	Program:	/corina/corina34_cracker 3.40 0067  02.08.2006

@<TRIPOS>MOLECULE
ASD01811174
  32   33    0    0    0
SMALL
NO_CHARGES


@<TRIPOS>ATOM
   1 C1            -0.0148     1.4741     0.0420 C.2     
   2 C2             0.0036    -0.0042     0.0175 C.ar    
   3 C3             1.2148    -0.6870    -0.1186 C.ar    
   4 C4             1.2340    -2.0673    -0.1422 C.ar    
   5 C5             0.0580    -2.7825    -0.0312 C.ar    
   6 C6            -1.1603    -2.1125     0.1055 C.ar    
   7 C7            -1.1860    -0.7191     0.1358 C.ar    
   8 O8             0.9060     2.0851     0.5484 O.2     
   9 N9            -1.0498     2.1443    -0.5021 N.am    
  10 N10           -1.0668     3.5100    -0.4795 N.3     
  11 C11            0.0888    -4.2890    -0.0579 C.3     
  12 C12            2.5033     0.0849    -0.2405 C.3     
  13 C13            3.4568    -0.1164     0.9492 C.3     
  14 C14            4.6027    -0.1483    -0.0759 C.3     
  15 C15            3.5623    -0.6171    -1.1068 C.3     
  16 C16           -2.3792    -2.8555     0.2196 C.1     
  17 N17           -3.3461    -3.4448     0.3101 N.1     
  18 H18            2.1731    -2.5900    -0.2483 H       
  19 H19           -2.1244    -0.1961     0.2461 H       
  20 H20           -1.7827     1.6568    -0.9098 H       
  21 H21           -1.8999     3.8686    -0.9216 H       
  22 H22           -0.9802     3.8571     0.4640 H       
  23 H23            0.2025    -4.6682     0.9576 H       
  24 H24           -0.8419    -4.6639    -0.4837 H       
  25 H25            0.9282    -4.6245    -0.6671 H       
  26 H26            2.3467     1.1313    -0.5023 H       
  27 H27            3.4988     0.7382     1.6245 H       
  28 H28            3.3109    -1.0624     1.4705 H       
  29 H29            5.0212     0.8343    -0.2937 H       
  30 H30            5.3656    -0.8948     0.1450 H       
  31 H31            3.4453    -1.7000    -1.1476 H       
  32 H32            3.6895    -0.1667    -2.0913 H       
@<TRIPOS>BOND
   1    1    2 1
   2    1    8 2
   3    1    9 am
   4    2    3 ar
   5    2    7 ar
   6    3    4 ar
   7    3   12 1
   8    4    5 ar
   9    4   18 1
  10    5    6 ar
  11    5   11 1
  12    6    7 ar
  13    6   16 1
  14    7   19 1
  15    9   10 1
  16    9   20 1
  17   10   21 1
  18   10   22 1
  19   11   23 1
  20   11   24 1
  21   11   25 1
  22   12   13 1
  23   12   15 1
  24   12   26 1
  25   13   14 1
  26   13   27 1
  27   13   28 1
  28   14   15 1
  29   14   29 1
  30   14   30 1
  31   15   31 1
  32   15   32 1
  33   16   17 3

#	End of record

