#	Name: ASD03092960
#	Creating user name:	WinNT
#	Creation time:	15. 06. 2019 20:33

#	Modifying user name:	WinNT
#	Modification time:	15. 06. 2019 20:33

#	Program:	/corina/corina34_cracker 3.40 0067  02.08.2006

@<TRIPOS>MOLECULE
ASD03092960
  42   44    0    0    0
SMALL
NO_CHARGES


@<TRIPOS>ATOM
   1 F1             0.0913    -0.0081     0.0149 F       
   2 C2             0.0636     1.3426     0.0203 C.ar    
   3 C3            -1.1490     2.0107     0.0371 C.ar    
   4 C4            -1.1761     3.3924     0.0427 C.ar    
   5 C5             0.0070     4.1075     0.0315 C.ar    
   6 C6            -0.0239     5.6142     0.0380 C.3     
   7 N7            -0.0173     6.0968     1.4212 N.pl3   
   8 C8            -0.0421     7.4548     1.6798 C.ar    
   9 N9             0.0361     8.3174     0.6784 N.ar    
  10 C10            0.0159     9.6204     0.8809 C.ar    
  11 C11           -0.0884    10.1463     2.1561 C.ar    
  12 C12           -0.1733     9.2916     3.2411 C.ar    
  13 C13           -0.1560     7.9125     3.0040 C.ar    
  14 C14           -0.2495     6.9574     4.1228 C.2     
  15 O15           -0.3413     5.7656     3.8988 O.2     
  16 N16           -0.2333     7.4049     5.3940 N.am    
  17 C17           -0.4166     6.5096     6.4530 C.ar    
  18 C18            0.0857     5.2130     6.3771 C.ar    
  19 C19           -0.1213     4.3631     7.4515 C.ar    
  20 C20           -0.8139     4.8257     8.5547 C.ar    
  21 N21           -1.2774     6.0598     8.5955 N.ar    
  22 C22           -1.0974     6.9025     7.5983 C.ar    
  23 C23           -1.0429     3.9070     9.7271 C.3     
  24 F24            0.0186     4.0297    10.6301 F       
  25 F25           -2.2394     4.2532    10.3641 F       
  26 F26           -1.1205     2.5851     9.2755 F       
  27 C27            1.2183     3.4416     0.0147 C.ar    
  28 C28            1.2479     2.0599     0.0149 C.ar    
  29 H29           -2.0734     1.4523     0.0456 H       
  30 H30           -2.1218     3.9137     0.0554 H       
  31 H31            0.8523     5.9978    -0.4848 H       
  32 H32           -0.9272     5.9613    -0.4636 H       
  33 H33            0.0044     5.4635     2.1557 H       
  34 H34            0.0825    10.2892     0.0356 H       
  35 H35           -0.1030    11.2160     2.3038 H       
  36 H36           -0.2554     9.6794     4.2457 H       
  37 H37           -0.0945     8.3478     5.5746 H       
  38 H38            0.6231     4.8781     5.5022 H       
  39 H39            0.2538     3.3506     7.4272 H       
  40 H40           -1.4875     7.9070     7.6702 H       
  41 H41            2.1420     4.0013     0.0056 H       
  42 H42            2.1944     1.5398     0.0063 H       
@<TRIPOS>BOND
   1    1    2 1
   2    2   28 ar
   3    2    3 ar
   4    3    4 ar
   5    3   29 1
   6    4    5 ar
   7    4   30 1
   8    5    6 1
   9    5   27 ar
  10    6    7 1
  11    6   31 1
  12    6   32 1
  13    7    8 1
  14    7   33 1
  15    8   13 ar
  16    8    9 ar
  17    9   10 ar
  18   10   11 ar
  19   10   34 1
  20   11   12 ar
  21   11   35 1
  22   12   13 ar
  23   12   36 1
  24   13   14 1
  25   14   15 2
  26   14   16 am
  27   16   17 1
  28   16   37 1
  29   17   22 ar
  30   17   18 ar
  31   18   19 ar
  32   18   38 1
  33   19   20 ar
  34   19   39 1
  35   20   21 ar
  36   20   23 1
  37   21   22 ar
  38   22   40 1
  39   23   24 1
  40   23   25 1
  41   23   26 1
  42   27   28 ar
  43   27   41 1
  44   28   42 1

#	End of record

