#	Name: ASD01120150
#	Creating user name:	WinNT
#	Creation time:	15. 06. 2019 18:59

#	Modifying user name:	WinNT
#	Modification time:	15. 06. 2019 18:59

#	Program:	/corina/corina34_cracker 3.40 0067  02.08.2006

@<TRIPOS>MOLECULE
ASD01120150
  38   40    0    0    0
SMALL
NO_CHARGES


@<TRIPOS>ATOM
   1 C1            -0.0326     1.3700    -0.0268 C.ar    
   2 C2            -0.0196    -0.0281     0.0744 C.ar    
   3 C3            -1.1949    -0.7353     0.1994 C.ar    
   4 C4            -2.4143    -0.0478     0.2259 C.ar    
   5 C5            -2.4195     1.3655     0.1236 C.ar    
   6 C6            -1.2106     2.0610     0.0021 C.ar    
   7 N7            -3.5869    -0.6899     0.3456 N.ar    
   8 C8            -4.7136    -0.0185     0.3671 C.ar    
   9 N9            -4.7672     1.3007     0.2746 N.ar    
  10 C10           -3.6674     2.0324     0.1530 C.ar    
  11 C11           -5.1747     5.2829     0.5579 C.ar    
  12 C12           -4.9823     4.0392    -0.0318 C.ar    
  13 C13           -6.0244     3.4248    -0.7098 C.ar    
  14 C14           -7.2629     4.0587    -0.7968 C.ar    
  15 C15           -7.4460     5.3078    -0.2011 C.ar    
  16 C16           -6.4029     5.9113     0.4714 C.ar    
  17 O17            1.1408     2.0462    -0.1495 O.3     
  18 C18            1.0619     3.4696    -0.2485 C.3     
  19 N19           -3.7382     3.4079     0.0579 N.pl3   
  20 C20           -8.3437     3.4308    -1.4955 C.1     
  21 O21            1.1650    -0.6926     0.0484 O.3     
  22 C22            1.1125    -2.1166     0.1556 C.3     
  23 C23           -9.2298     2.9160    -2.0684 C.1     
  24 H24           -1.1760    -1.8124     0.2761 H       
  25 H25           -1.2099     3.1382    -0.0758 H       
  26 H26           -5.6390    -0.5668     0.4642 H       
  27 H27           -4.3633     5.7580     1.0893 H       
  28 H28           -5.8769     2.4585    -1.1691 H       
  29 H29           -8.4040     5.8021    -0.2667 H       
  30 H30           -6.5467     6.8775     0.9319 H       
  31 H31            2.0660     3.8835    -0.3414 H       
  32 H32            0.4745     3.7409    -1.1256 H       
  33 H33            0.5852     3.8702     0.6462 H       
  34 H34           -2.9247     3.9363     0.0535 H       
  35 H35            0.6424    -2.3928     1.0994 H       
  36 H36            0.5310    -2.5221    -0.6723 H       
  37 H37            2.1241    -2.5211     0.1215 H       
  38 H38          -10.0222     2.4556    -2.5807 H       
@<TRIPOS>BOND
   1    1    2 ar
   2    1   17 1
   3    1    6 ar
   4    2    3 ar
   5    2   21 1
   6    3    4 ar
   7    3   24 1
   8    4    5 ar
   9    4    7 ar
  10    5    6 ar
  11    5   10 ar
  12    6   25 1
  13    7    8 ar
  14    8    9 ar
  15    8   26 1
  16    9   10 ar
  17   10   19 1
  18   11   12 ar
  19   11   16 ar
  20   11   27 1
  21   12   13 ar
  22   12   19 1
  23   13   14 ar
  24   13   28 1
  25   14   15 ar
  26   14   20 1
  27   15   16 ar
  28   15   29 1
  29   16   30 1
  30   17   18 1
  31   18   31 1
  32   18   32 1
  33   18   33 1
  34   19   34 1
  35   20   23 3
  36   21   22 1
  37   22   35 1
  38   22   36 1
  39   22   37 1
  40   23   38 1

#	End of record

