#	Name: ASD01913817
#	Creating user name:	WinNT
#	Creation time:	15. 06. 2019 20:02

#	Modifying user name:	WinNT
#	Modification time:	15. 06. 2019 20:02

#	Program:	/corina/corina34_cracker 3.40 0067  02.08.2006

@<TRIPOS>MOLECULE
ASD01913817
  43   45    0    0    0
SMALL
NO_CHARGES


@<TRIPOS>ATOM
   1 C1            -0.0176     1.4278     0.0039 C.ar    
   2 C2             0.0019    -0.0041    -0.0022 C.1     
   3 C3             0.0178    -1.1779    -0.0072 C.1     
   4 C4             0.0373    -2.6098    -0.0133 C.ar    
   5 C5            -1.1606    -3.3385     0.0311 C.ar    
   6 C6             0.1561    -5.3344    -0.0290 C.ar    
   7 N7             1.2696    -4.6187    -0.0760 N.ar    
   8 C8             1.2491    -3.3021    -0.0694 C.ar    
   9 C9            -1.0901    -4.7171     0.0227 C.ar    
  10 C10            1.1800     2.1462    -0.0405 C.ar    
  11 C11            1.1549     3.5254    -0.0344 C.ar    
  12 C12           -0.0522     4.1989     0.0157 C.ar    
  13 C13           -1.2451     3.4941     0.0599 C.ar    
  14 C14           -1.2347     2.1129     0.0485 C.ar    
  15 N15            0.2332    -6.7251    -0.0385 N.am    
  16 C16            0.3814    -7.3507     1.1298 C.2     
  17 C17            0.5265    -8.8398     1.2603 C.3     
  18 C18            0.0499    -9.5239    -0.0234 C.3     
  19 C19            0.7078    -8.8239    -1.2187 C.3     
  20 C20            0.1410    -7.4056    -1.3241 C.3     
  21 C21            2.2220    -8.7627    -1.0081 C.3     
  22 C22            0.3954    -9.5966    -2.5017 C.3     
  23 O23            0.4005    -6.6814     2.1409 O.2     
  24 F24           -2.4200     4.1592     0.1091 F       
  25 H25           -2.1144    -2.8334     0.0712 H       
  26 H26            2.1780    -2.7524    -0.1080 H       
  27 H27           -1.9921    -5.3101     0.0563 H       
  28 H28            2.1238     1.6225    -0.0793 H       
  29 H29            2.0805     4.0810    -0.0683 H       
  30 H30           -0.0654     5.2788     0.0206 H       
  31 H31           -2.1641     1.5640     0.0830 H       
  32 H32            1.5734    -9.0876     1.4354 H       
  33 H33           -0.0726    -9.1896     2.1009 H       
  34 H34            0.3396   -10.5746    -0.0086 H       
  35 H35           -1.0342    -9.4428    -0.1018 H       
  36 H36           -0.9017    -7.4566    -1.6377 H       
  37 H37            0.7099    -6.8444    -2.0655 H       
  38 H38            2.6175    -9.7745    -0.9184 H       
  39 H39            2.6873    -8.2648    -1.8588 H       
  40 H40            2.4399    -8.2053    -0.0971 H       
  41 H41           -0.6837    -9.6313    -2.6514 H       
  42 H42            0.8639    -9.0972    -3.3498 H       
  43 H43            0.7835   -10.6118    -2.4181 H       
@<TRIPOS>BOND
   1    1    2 1
   2    1   10 ar
   3    1   14 ar
   4    2    3 3
   5    3    4 1
   6    4    5 ar
   7    4    8 ar
   8    5    9 ar
   9    5   25 1
  10    6    7 ar
  11    6   15 1
  12    6    9 ar
  13    7    8 ar
  14    8   26 1
  15    9   27 1
  16   10   11 ar
  17   10   28 1
  18   11   12 ar
  19   11   29 1
  20   12   13 ar
  21   12   30 1
  22   13   14 ar
  23   13   24 1
  24   14   31 1
  25   15   16 am
  26   15   20 1
  27   16   17 1
  28   16   23 2
  29   17   18 1
  30   17   32 1
  31   17   33 1
  32   18   19 1
  33   18   34 1
  34   18   35 1
  35   19   20 1
  36   19   21 1
  37   19   22 1
  38   20   36 1
  39   20   37 1
  40   21   38 1
  41   21   39 1
  42   21   40 1
  43   22   41 1
  44   22   42 1
  45   22   43 1

#	End of record

