#	Name: ASD03080223
#	Creating user name:	WinNT
#	Creation time:	15. 06. 2019 20:26

#	Modifying user name:	WinNT
#	Modification time:	15. 06. 2019 20:26

#	Program:	/corina/corina34_cracker 3.40 0067  02.08.2006

@<TRIPOS>MOLECULE
ASD03080223
  57   56    0    0    0
SMALL
NO_CHARGES


@<TRIPOS>ATOM
   1 C1            -0.0167     1.3823     0.0096 C.ar    
   2 C2             0.0021    -0.0041     0.0020 C.ar    
   3 C3             1.2303    -0.6473    -0.0132 C.ar    
   4 C4             2.3867     0.1094    -0.0201 C.ar    
   5 N5             2.3308     1.4269    -0.0121 N.ar    
   6 C6             1.1808     2.0721     0.0019 C.ar    
   7 C7            -1.2819    -0.7930     0.0105 C.3     
   8 C8            -2.1063    -0.4388    -1.2287 C.3     
   9 C9            -0.9613    -2.2890    -0.0007 C.3     
  10 C10           -2.0815    -0.4522     1.2696 C.3     
  11 C11            3.5790     2.1938    -0.0189 C.3     
  12 C12            4.0006     2.4691    -1.4637 C.3     
  13 C13            5.3041     3.2701    -1.4708 C.3     
  14 N14            5.7078     3.5337    -2.8543 N.ar    
  15 C15            6.8839     2.8799    -4.7785 C.ar    
  16 C16            6.4832     2.6651    -3.4734 C.ar    
  17 C17            5.2817     4.6305    -3.4495 C.ar    
  18 C18            5.6411     4.9120    -4.7540 C.ar    
  19 C19            6.4597     4.0247    -5.4358 C.ar    
  20 C20            6.8750     4.2958    -6.8589 C.3     
  21 C21            6.3809     3.1617    -7.7592 C.3     
  22 C22            6.2650     5.6194    -7.3248 C.3     
  23 C23            8.4005     4.3817    -6.9375 C.3     
  24 H24           -0.9554     1.9164     0.0170 H       
  25 H25            1.2826    -1.7260    -0.0191 H       
  26 H26            3.3474    -0.3840    -0.0320 H       
  27 H27            1.1748     3.1521     0.0078 H       
  28 H28           -1.5366    -0.6816    -2.1257 H       
  29 H29           -3.0350    -1.0095    -1.2225 H       
  30 H30           -2.3347     0.6269    -1.2207 H       
  31 H31           -0.3739    -2.5414     0.8822 H       
  32 H32           -1.8900    -2.8597     0.0055 H       
  33 H33           -0.3916    -2.5318    -0.8977 H       
  34 H34           -2.3099     0.6135     1.2776 H       
  35 H35           -3.0102    -1.0229     1.2758 H       
  36 H36           -1.4942    -0.7046     2.1525 H       
  37 H37            3.4273     3.1394     0.5017 H       
  38 H38            4.3591     1.6229     0.4847 H       
  39 H39            4.1523     1.5236    -1.9844 H       
  40 H40            3.2205     3.0401    -1.9673 H       
  41 H41            5.1524     4.2156    -0.9502 H       
  42 H42            6.0842     2.6991    -0.9673 H       
  43 H43            7.5193     2.1651    -5.2801 H       
  44 H44            6.8092     1.7759    -2.9544 H       
  45 H45            4.6443     5.3166    -2.9116 H       
  46 H46            5.2884     5.8117    -5.2364 H       
  47 H47            5.2940     3.1005    -7.7032 H       
  48 H48            6.6812     3.3578    -8.7885 H       
  49 H49            6.8154     2.2188    -7.4272 H       
  50 H50            6.6170     6.4274    -6.6834 H       
  51 H51            6.5653     5.8155    -8.3541 H       
  52 H52            5.1782     5.5582    -7.2688 H       
  53 H53            8.8351     3.4387    -6.6056 H       
  54 H54            8.7008     4.5778    -7.9668 H       
  55 H55            8.7525     5.1896    -6.2961 H       
  56 I56           13.8351    11.4274     7.1525 I       
  57 I57           18.8351    16.4274    12.1525 I       
@<TRIPOS>BOND
   1    1    2 ar
   2    1    6 ar
   3    1   24 1
   4    2    3 ar
   5    2    7 1
   6    3    4 ar
   7    3   25 1
   8    4    5 ar
   9    4   26 1
  10    5    6 ar
  11    5   11 1
  12    6   27 1
  13    7    8 1
  14    7    9 1
  15    7   10 1
  16    8   28 1
  17    8   29 1
  18    8   30 1
  19    9   31 1
  20    9   32 1
  21    9   33 1
  22   10   34 1
  23   10   35 1
  24   10   36 1
  25   11   12 1
  26   11   37 1
  27   11   38 1
  28   12   13 1
  29   12   39 1
  30   12   40 1
  31   13   14 1
  32   13   41 1
  33   13   42 1
  34   14   17 ar
  35   14   16 ar
  36   15   16 ar
  37   15   19 ar
  38   15   43 1
  39   16   44 1
  40   17   18 ar
  41   17   45 1
  42   18   19 ar
  43   18   46 1
  44   19   20 1
  45   20   21 1
  46   20   22 1
  47   20   23 1
  48   21   47 1
  49   21   48 1
  50   21   49 1
  51   22   50 1
  52   22   51 1
  53   22   52 1
  54   23   53 1
  55   23   54 1
  56   23   55 1

#	End of record

