#	Name: ASD01913058
#	Creating user name:	WinNT
#	Creation time:	15. 06. 2019 20:00

#	Modifying user name:	WinNT
#	Modification time:	15. 06. 2019 20:00

#	Program:	/corina/corina34_cracker 3.40 0067  02.08.2006

@<TRIPOS>MOLECULE
ASD01913058
  39   41    0    0    0
SMALL
NO_CHARGES


@<TRIPOS>ATOM
   1 C1            -0.0173     1.4278     0.0099 C.ar    
   2 C2             0.0021    -0.0041     0.0020 C.1     
   3 C3             0.0180    -1.1779    -0.0044 C.1     
   4 C4             0.0374    -2.6098    -0.0123 C.ar    
   5 C5            -1.2355     2.1228     0.0311 C.ar    
   6 C6            -1.1550    -3.3470    -0.0049 C.ar    
   7 C7             1.1783     2.1537     0.0024 C.ar    
   8 N8             1.1645     3.4682     0.0105 N.ar    
   9 C9             0.0292     4.1555     0.0255 C.ar    
  10 C10           -1.2031     3.5031     0.0385 C.ar    
  11 C11            0.0720     5.6385     0.0340 C.2     
  12 N12           -0.9576     6.4448     0.0492 N.2     
  13 C13           -1.0888    -4.7240    -0.0134 C.ar    
  14 N14            0.0745    -5.3470    -0.0279 N.ar    
  15 C15            1.2205    -4.6926    -0.0353 C.ar    
  16 C16            1.2493    -3.3142    -0.0336 C.ar    
  17 N17            1.1830     6.4097     0.0335 N.2     
  18 C18            0.7526     7.6465     0.0433 C.2     
  19 O19           -0.5833     7.5985     0.0529 O.3     
  20 C20            1.6035     8.8902     0.0470 C.3     
  21 C21            1.2903     9.7262    -1.1956 C.3     
  22 C22            1.3022     9.7106     1.3028 C.3     
  23 C23            2.2402    10.9241    -1.2571 C.3     
  24 H24           -2.1757     1.5913     0.0412 H       
  25 H25           -2.1106    -2.8439     0.0077 H       
  26 H26            2.1223     1.6291    -0.0098 H       
  27 H27           -2.1216     4.0710     0.0504 H       
  28 H28           -2.0017    -5.3010    -0.0078 H       
  29 H29            2.1488    -5.2445    -0.0471 H       
  30 H30            2.1909    -2.7853    -0.0397 H       
  31 H31            2.6568     8.6099     0.0402 H       
  32 H32            1.4200     9.1135    -2.0878 H       
  33 H33            0.2609    10.0809    -1.1449 H       
  34 H34            0.2489     9.9910     1.3095 H       
  35 H35            1.5253     9.1151     2.1880 H       
  36 H36            1.9177    10.6102     1.3054 H       
  37 H37            2.1106    11.5367    -0.3650 H       
  38 H38            3.2696    10.5693    -1.3079 H       
  39 H39            2.0170    11.5196    -2.1424 H       
@<TRIPOS>BOND
   1    1    2 1
   2    1    7 ar
   3    1    5 ar
   4    2    3 3
   5    3    4 1
   6    4    6 ar
   7    4   16 ar
   8    5   10 ar
   9    5   24 1
  10    6   13 ar
  11    6   25 1
  12    7    8 ar
  13    7   26 1
  14    8    9 ar
  15    9   10 ar
  16    9   11 1
  17   10   27 1
  18   11   12 2
  19   11   17 1
  20   12   19 1
  21   13   14 ar
  22   13   28 1
  23   14   15 ar
  24   15   16 ar
  25   15   29 1
  26   16   30 1
  27   17   18 2
  28   18   19 1
  29   18   20 1
  30   20   21 1
  31   20   22 1
  32   20   31 1
  33   21   23 1
  34   21   32 1
  35   21   33 1
  36   22   34 1
  37   22   35 1
  38   22   36 1
  39   23   37 1
  40   23   38 1
  41   23   39 1

#	End of record

