#	Name: ASD01913119
#	Creating user name:	WinNT
#	Creation time:	15. 06. 2019 20:01

#	Modifying user name:	WinNT
#	Modification time:	15. 06. 2019 20:01

#	Program:	/corina/corina34_cracker 3.40 0067  02.08.2006

@<TRIPOS>MOLECULE
ASD01913119
  44   47    0    0    0
SMALL
NO_CHARGES


@<TRIPOS>ATOM
   1 C1            -0.8939     1.7074    -0.2711 C.ar    
   2 C2            -0.7192     0.2338    -0.2557 C.2     
   3 N3            -1.7063    -0.6898    -0.2721 N.2     
   4 C4            -1.1683    -1.8744    -0.2503 C.2     
   5 O5             0.1652    -1.7491    -0.2197 O.3     
   6 C6             0.4594    -0.4346    -0.2287 C.2     
   7 C7            -1.9240    -3.1782    -0.2578 C.3     
   8 C8            -1.5271    -3.9915    -1.4920 C.3     
   9 C9            -2.3183    -5.3013    -1.5179 C.3     
  10 C10           -1.9808    -6.1218    -0.2691 C.3     
  11 N11           -2.2229    -5.2940     0.9204 N.am    
  12 C12           -1.5820    -3.9747     1.0053 C.3     
  13 C13           -3.0179    -5.7365     1.9147 C.2     
  14 C14           -3.1491    -4.9525     3.1599 C.ar    
  15 O15           -3.6270    -6.7808     1.7869 O.2     
  16 C16           -2.0265    -4.3510     3.7438 C.ar    
  17 C17           -2.2015    -3.6276     4.9083 C.ar    
  18 C18           -3.4712    -3.5212     5.4566 C.ar    
  19 N19           -4.5116    -4.1004     4.8829 N.ar    
  20 C20           -4.3941    -4.7944     3.7702 C.ar    
  21 F21           -3.6470    -2.8150     6.5949 F       
  22 C22            0.2186     2.5421    -0.3562 C.ar    
  23 C23            0.0516     3.9117    -0.3706 C.ar    
  24 C24           -1.2199     4.4573    -0.3002 C.ar    
  25 C25           -2.3288     3.6312    -0.2155 C.ar    
  26 C26           -2.1713     2.2603    -0.2063 C.ar    
  27 F27           -1.3790     5.7988    -0.3138 F       
  28 H28            1.4464     0.0033    -0.2102 H       
  29 H29           -2.9951    -2.9777    -0.2833 H       
  30 H30           -1.7467    -3.4167    -2.3917 H       
  31 H31           -0.4604    -4.2123    -1.4538 H       
  32 H32           -3.3857    -5.0813    -1.5312 H       
  33 H33           -2.0523    -5.8694    -2.4094 H       
  34 H34           -2.6138    -7.0084    -0.2323 H       
  35 H35           -0.9327    -6.4197    -0.2998 H       
  36 H36           -0.5014    -4.0974     1.0785 H       
  37 H37           -1.9519    -3.4445     1.8829 H       
  38 H38           -1.0490    -4.4504     3.2955 H       
  39 H39           -1.3588    -3.1506     5.3864 H       
  40 H40           -5.2676    -5.2530     3.3308 H       
  41 H41            1.2102     2.1177    -0.4104 H       
  42 H42            0.9133     4.5594    -0.4366 H       
  43 H43           -3.3182     4.0606    -0.1604 H       
  44 H44           -3.0363     1.6170    -0.1402 H       
@<TRIPOS>BOND
   1    1    2 1
   2    1   22 ar
   3    1   26 ar
   4    2    3 1
   5    2    6 2
   6    3    4 2
   7    4    5 1
   8    4    7 1
   9    5    6 1
  10    6   28 1
  11    7    8 1
  12    7   12 1
  13    7   29 1
  14    8    9 1
  15    8   30 1
  16    8   31 1
  17    9   10 1
  18    9   32 1
  19    9   33 1
  20   10   11 1
  21   10   34 1
  22   10   35 1
  23   11   12 1
  24   11   13 am
  25   12   36 1
  26   12   37 1
  27   13   14 1
  28   13   15 2
  29   14   16 ar
  30   14   20 ar
  31   16   17 ar
  32   16   38 1
  33   17   18 ar
  34   17   39 1
  35   18   19 ar
  36   18   21 1
  37   19   20 ar
  38   20   40 1
  39   22   23 ar
  40   22   41 1
  41   23   24 ar
  42   23   42 1
  43   24   25 ar
  44   24   27 1
  45   25   26 ar
  46   25   43 1
  47   26   44 1

#	End of record

