#	Name: ASD01913136
#	Creating user name:	WinNT
#	Creation time:	15. 06. 2019 20:01

#	Modifying user name:	WinNT
#	Modification time:	15. 06. 2019 20:01

#	Program:	/corina/corina34_cracker 3.40 0067  02.08.2006

@<TRIPOS>MOLECULE
ASD01913136
  45   47    0    0    0
SMALL
NO_CHARGES


@<TRIPOS>ATOM
   1 C1             0.0437     1.1624     0.0636 C.ar    
   2 C2             0.0316    -0.2218     0.0880 C.ar    
   3 C3            -1.1704    -0.9027     0.0978 C.ar    
   4 C4            -2.3656    -0.1988     0.0831 C.ar    
   5 C5            -2.3520     1.1880     0.0587 C.ar    
   6 C6            -1.1485     1.8664     0.0543 C.ar    
   7 F7             1.2199     1.8270     0.0545 F       
   8 O8            -3.5491    -0.8675     0.0923 O.3     
   9 C9            -4.7403    -0.0783     0.0762 C.3     
  10 C10           -5.9623    -0.9989     0.0897 C.3     
  11 C11           -7.2185    -0.1666     0.0727 C.2     
  12 N12           -8.4250    -0.7673     0.0807 N.am    
  13 C13           -9.6634     0.0260     0.0644 C.3     
  14 C14          -10.5623    -0.4978    -1.0606 C.3     
  15 N15          -10.7538    -1.9450    -0.8964 N.3     
  16 C16           -9.4814    -2.6684    -1.0208 C.3     
  17 C17           -8.5381    -2.2336     0.0997 C.3     
  18 O18           -7.1438     1.0437     0.0519 O.2     
  19 C19          -11.6985    -2.4320    -1.8061 C.ar    
  20 C20          -11.3068    -3.2973    -2.8185 C.ar    
  21 C21          -12.2410    -3.7776    -3.7164 C.ar    
  22 C22          -13.5671    -3.3967    -3.6079 C.ar    
  23 C23          -13.9618    -2.5330    -2.5984 C.ar    
  24 C24          -13.0314    -2.0549    -1.6941 C.ar    
  25 F25          -14.4781    -3.8672    -4.4877 F       
  26 Cl26         -13.5252    -0.9734    -0.4290 Cl      
  27 Cl27         -15.6258    -2.0566    -2.4652 Cl      
  28 H28            0.9623    -0.7696     0.0990 H       
  29 H29           -1.1796    -1.9825     0.1164 H       
  30 H30           -3.2818     1.7373     0.0469 H       
  31 H31           -1.1376     2.9461     0.0356 H       
  32 H32           -4.7612     0.5660     0.9552 H       
  33 H33           -4.7576     0.5352    -0.8245 H       
  34 H34           -5.9414    -1.6433    -0.7892 H       
  35 H35           -5.9451    -1.6125     0.9905 H       
  36 H36          -10.1763    -0.0763     1.0207 H       
  37 H37           -9.4244     1.0741    -0.1158 H       
  38 H38          -11.5288     0.0042    -1.0175 H       
  39 H39          -10.0920    -0.3001    -2.0239 H       
  40 H40           -9.6640    -3.7406    -0.9488 H       
  41 H41           -9.0261    -2.4405    -1.9846 H       
  42 H42           -7.5559    -2.6803    -0.0546 H       
  43 H43           -8.9410    -2.5514     1.0614 H       
  44 H44          -10.2721    -3.5947    -2.9046 H       
  45 H45          -11.9358    -4.4508    -4.5039 H       
@<TRIPOS>BOND
   1    1    2 ar
   2    1    7 1
   3    1    6 ar
   4    2    3 ar
   5    2   28 1
   6    3    4 ar
   7    3   29 1
   8    4    5 ar
   9    4    8 1
  10    5    6 ar
  11    5   30 1
  12    6   31 1
  13    8    9 1
  14    9   10 1
  15    9   32 1
  16    9   33 1
  17   10   11 1
  18   10   34 1
  19   10   35 1
  20   11   12 am
  21   11   18 2
  22   12   13 1
  23   12   17 1
  24   13   14 1
  25   13   36 1
  26   13   37 1
  27   14   15 1
  28   14   38 1
  29   14   39 1
  30   15   16 1
  31   15   19 1
  32   16   17 1
  33   16   40 1
  34   16   41 1
  35   17   42 1
  36   17   43 1
  37   19   20 ar
  38   19   24 ar
  39   20   21 ar
  40   20   44 1
  41   21   22 ar
  42   21   45 1
  43   22   23 ar
  44   22   25 1
  45   23   24 ar
  46   23   27 1
  47   24   26 1

#	End of record

