#	Name: ASD01913931
#	Creating user name:	WinNT
#	Creation time:	15. 06. 2019 20:02

#	Modifying user name:	WinNT
#	Modification time:	15. 06. 2019 20:02

#	Program:	/corina/corina34_cracker 3.40 0067  02.08.2006

@<TRIPOS>MOLECULE
ASD01913931
  40   42    0    0    0
SMALL
NO_CHARGES


@<TRIPOS>ATOM
   1 C1            -0.0167     1.4277     0.0221 C.ar    
   2 C2             0.0029    -0.0041     0.0140 C.1     
   3 C3             0.0190    -1.1780     0.0075 C.1     
   4 C4             0.0386    -2.6098    -0.0006 C.ar    
   5 N5            -1.0789    -3.2945     0.2444 N.ar    
   6 C6             0.1296    -5.2904    -0.0285 C.ar    
   7 N7             1.2429    -4.6117    -0.2781 N.ar    
   8 C8             1.2282    -3.2924    -0.2709 C.ar    
   9 C9            -1.0583    -4.6124     0.2360 C.ar    
  10 N10            1.1292     3.4725    -0.2253 N.ar    
  11 C11           -1.2035     2.1231     0.2919 C.ar    
  12 C12            0.0254     4.1524     0.0193 C.ar    
  13 N13            0.1479    -6.6833    -0.0371 N.am    
  14 C14            1.1481     2.1559    -0.2332 C.ar    
  15 C15           -1.1683     3.5057     0.2874 C.ar    
  16 C16           -0.9334    -7.4738    -0.0266 C.2     
  17 N17           -0.6492    -8.7828    -0.0384 N.am    
  18 C18            0.8104    -8.9601    -0.0601 C.3     
  19 C19            1.3573    -7.5194    -0.0656 C.3     
  20 C20            1.2785    -9.7131     1.1868 C.3     
  21 C21            1.2429    -9.6980    -1.3287 C.3     
  22 C22           -1.6359    -9.8657    -0.0309 C.3     
  23 O23           -2.0698    -7.0423    -0.0075 O.2     
  24 H24            2.1340    -2.7405    -0.4741 H       
  25 H25           -1.9633    -5.1672     0.4348 H       
  26 H26           -2.1217     1.5930     0.4977 H       
  27 H27            0.0552     5.2320     0.0162 H       
  28 H28            2.0714     1.6347    -0.4384 H       
  29 H29           -2.0644     4.0749     0.4858 H       
  30 H30            1.9366    -7.3335    -0.9701 H       
  31 H31            1.9629    -7.3367     0.8220 H       
  32 H32            0.8236   -10.7035     1.2053 H       
  33 H33            2.3638    -9.8120     1.1654 H       
  34 H34            0.9816    -9.1602     2.0780 H       
  35 H35            0.9209    -9.1345    -2.2045 H       
  36 H36            2.3283    -9.7971    -1.3393 H       
  37 H37            0.7875   -10.6882    -1.3462 H       
  38 H38           -2.6401    -9.4421    -0.0146 H       
  39 H39           -1.5132   -10.4752    -0.9262 H       
  40 H40           -1.4885   -10.4854     0.8536 H       
@<TRIPOS>BOND
   1    1    2 1
   2    1   14 ar
   3    1   11 ar
   4    2    3 3
   5    3    4 1
   6    4    5 ar
   7    4    8 ar
   8    5    9 ar
   9    6    7 ar
  10    6   13 1
  11    6    9 ar
  12    7    8 ar
  13    8   24 1
  14    9   25 1
  15   10   12 ar
  16   10   14 ar
  17   11   15 ar
  18   11   26 1
  19   12   15 ar
  20   12   27 1
  21   13   16 am
  22   13   19 1
  23   14   28 1
  24   15   29 1
  25   16   17 am
  26   16   23 2
  27   17   18 1
  28   17   22 1
  29   18   19 1
  30   18   20 1
  31   18   21 1
  32   19   30 1
  33   19   31 1
  34   20   32 1
  35   20   33 1
  36   20   34 1
  37   21   35 1
  38   21   36 1
  39   21   37 1
  40   22   38 1
  41   22   39 1
  42   22   40 1

#	End of record

