#	Name: ASD01810492
#	Creating user name:	WinNT
#	Creation time:	15. 06. 2019 19:24

#	Modifying user name:	WinNT
#	Modification time:	15. 06. 2019 19:24

#	Program:	/corina/corina34_cracker 3.40 0067  02.08.2006

@<TRIPOS>MOLECULE
ASD01810492
  60   63    0    0    0
SMALL
NO_CHARGES


@<TRIPOS>ATOM
   1 C1             0.0300     1.2943    -0.2689 C.ar    
   2 C2            -0.0346    -0.0617     0.0591 C.ar    
   3 C3            -1.2495    -0.6452     0.3605 C.ar    
   4 C4            -2.4073     0.1065     0.3399 C.ar    
   5 C5            -2.3568     1.4639     0.0135 C.ar    
   6 C6            -1.1340     2.0599    -0.2864 C.ar    
   7 C7             1.3316     1.9176    -0.5908 C.2     
   8 C8             1.2240    -0.8901     0.0837 C.3     
   9 C9            -3.5979     2.2673    -0.0086 C.2     
  10 N10           -3.8711     3.0564    -1.0665 N.am    
  11 O11           -4.3718     2.2162     0.9274 O.2     
  12 C12           -5.0325     3.9562    -1.0491 C.3     
  13 C13           -5.8835     3.6869    -2.2941 C.3     
  14 C14           -5.0081     3.8145    -3.5429 C.3     
  15 C15           -3.8866     2.7746    -3.4903 C.3     
  16 C16           -3.0097     3.0376    -2.2566 C.3     
  17 C17           -5.8496     3.5837    -4.7716 C.ar    
  18 C18           -5.9644     4.5801    -5.7247 C.ar    
  19 C19           -6.7327     4.3753    -6.8520 C.ar    
  20 C20           -7.3952     3.1592    -7.0300 C.ar    
  21 C21           -7.2749     2.1580    -6.0641 C.ar    
  22 C22           -6.4992     2.3743    -4.9441 C.ar    
  23 C23           -8.1948     2.9398    -8.1975 C.1     
  24 N24           -8.8291     2.7658    -9.1238 N.1     
  25 C25            1.5952    -1.4053     1.4843 C.3     
  26 C26            1.9905    -2.7281     0.8070 C.3     
  27 C27            1.0022    -2.3595    -0.3120 C.3     
  28 N28            1.3968     2.9109    -1.4993 N.am    
  29 O29            2.3429     1.5340    -0.0361 O.2     
  30 C30            2.6864     3.5284    -1.8183 C.3     
  31 C31           -3.7286    -0.5388     0.6698 C.3     
  32 H32           -1.2940    -1.6943     0.6132 H       
  33 H33           -1.0895     3.1089    -0.5393 H       
  34 H34            2.0533    -0.4157    -0.4410 H       
  35 H35           -5.6256     3.7700    -0.1538 H       
  36 H36           -4.6925     4.9918    -1.0559 H       
  37 H37           -6.2972     2.6798    -2.2411 H       
  38 H38           -6.6957     4.4122    -2.3434 H       
  39 H39           -4.5750     4.8140    -3.5821 H       
  40 H40           -4.3190     1.7761    -3.4260 H       
  41 H41           -3.2775     2.8505    -4.3910 H       
  42 H42           -2.5057     3.9981    -2.3646 H       
  43 H43           -2.2698     2.2434    -2.1581 H       
  44 H44           -5.4517     5.5204    -5.5856 H       
  45 H45           -6.8218     5.1540    -7.5951 H       
  46 H46           -7.7851     1.2152    -6.1954 H       
  47 H47           -6.4052     1.6008    -4.1962 H       
  48 H48            2.4355    -0.8774     1.9352 H       
  49 H49            0.7418    -1.4968     2.1562 H       
  50 H50            3.0297    -2.7574     0.4795 H       
  51 H51            1.6990    -3.6127     1.3731 H       
  52 H52           -0.0133    -2.7119    -0.1312 H       
  53 H53            1.3638    -2.6020    -1.3113 H       
  54 H54            0.5898     3.2170    -1.9420 H       
  55 H55            3.3658     2.7703    -2.2079 H       
  56 H56            2.5413     4.3061    -2.5682 H       
  57 H57            3.1117     3.9683    -0.9163 H       
  58 H58           -3.8811    -0.5234     1.7489 H       
  59 H59           -4.5333     0.0106     0.1812 H       
  60 H60           -3.7271    -1.5704     0.3177 H       
@<TRIPOS>BOND
   1    1    2 ar
   2    1    7 1
   3    1    6 ar
   4    2    3 ar
   5    2    8 1
   6    3    4 ar
   7    3   32 1
   8    4    5 ar
   9    4   31 1
  10    5    6 ar
  11    5    9 1
  12    6   33 1
  13    7   28 am
  14    7   29 2
  15    8   25 1
  16    8   27 1
  17    8   34 1
  18    9   10 am
  19    9   11 2
  20   10   12 1
  21   10   16 1
  22   12   13 1
  23   12   35 1
  24   12   36 1
  25   13   14 1
  26   13   37 1
  27   13   38 1
  28   14   15 1
  29   14   17 1
  30   14   39 1
  31   15   16 1
  32   15   40 1
  33   15   41 1
  34   16   42 1
  35   16   43 1
  36   17   18 ar
  37   17   22 ar
  38   18   19 ar
  39   18   44 1
  40   19   20 ar
  41   19   45 1
  42   20   21 ar
  43   20   23 1
  44   21   22 ar
  45   21   46 1
  46   22   47 1
  47   23   24 3
  48   25   26 1
  49   25   48 1
  50   25   49 1
  51   26   27 1
  52   26   50 1
  53   26   51 1
  54   27   52 1
  55   27   53 1
  56   28   30 1
  57   28   54 1
  58   30   55 1
  59   30   56 1
  60   30   57 1
  61   31   58 1
  62   31   59 1
  63   31   60 1

#	End of record

