#	Name: ASD01411285
#	Creating user name:	WinNT
#	Creation time:	15. 06. 2019 19:19

#	Modifying user name:	WinNT
#	Modification time:	15. 06. 2019 19:19

#	Program:	/corina/corina34_cracker 3.40 0067  02.08.2006

@<TRIPOS>MOLECULE
ASD01411285
  78   82    0    0    0
SMALL
NO_CHARGES


@<TRIPOS>ATOM
   1 C1            -0.0170     1.4049     0.0098 C.ar    
   2 C2             0.0021    -0.0041     0.0020 C.ar    
   3 C3            -1.1999    -0.7207     0.0854 C.ar    
   4 C4            -2.3920    -0.0596     0.1013 C.ar    
   5 C5            -2.4182     1.3361     0.0270 C.ar    
   6 C6            -1.2310     2.0698     0.0114 C.ar    
   7 N7             1.2945     1.8343    -0.0005 N.pl3   
   8 C8             2.1165     0.7346    -0.1014 C.2     
   9 C9             1.3589    -0.3923    -0.0955 C.2     
  10 C10            1.7403     3.2246     0.1029 C.3     
  11 C11            1.1127     4.0603    -0.9811 C.2     
  12 N12            1.3789     5.4056    -0.9990 N.am    
  13 O13            0.3914     3.5571    -1.8162 O.2     
  14 C14            0.7377     6.1485    -2.1128 C.3     
  15 C15           -2.3728     6.8018    -0.8746 C.3     
  16 C16           -3.6972     2.0751    -0.0461 C.2     
  17 O17           -4.7777     1.5208     0.0165 O.2     
  18 N18           -3.5711     3.4400    -0.1901 N.am    
  19 C19           -3.6836     6.2841    -1.4715 C.3     
  20 N20           -4.5800     5.8941    -0.3489 N.am    
  21 S21           -5.0131     4.2753    -0.3235 S.o2    
  22 C22            3.5907     0.7743    -0.2013 C.ar    
  23 C23            4.2096     1.6811    -1.0639 C.ar    
  24 C24            1.8728    -1.8065    -0.1777 C.3     
  25 C25            1.4464    -2.5776     1.0731 C.3     
  26 C26            1.9682    -4.0135     0.9896 C.3     
  27 C27            1.3892    -4.6951    -0.2518 C.3     
  28 C28            1.8156    -3.9240    -1.5026 C.3     
  29 C29            1.2939    -2.4882    -1.4191 C.3     
  30 C30            5.5846     1.7153    -1.1539 C.ar    
  31 C31            6.3542     0.8491    -0.3883 C.ar    
  32 C32            5.7424    -0.0543     0.4710 C.ar    
  33 C33            4.3681    -0.0908     0.5709 C.ar    
  34 O34           -5.5432     3.9736    -1.6069 O.2     
  35 O35           -5.7234     4.0610     0.8884 O.2     
  36 C36           -5.0474     6.8515     0.6566 C.3     
  37 C37           -0.0197     7.3404    -1.5249 C.3     
  38 O38            7.7091     0.8853    -0.4804 O.3     
  39 C39            8.4396    -0.0331     0.3351 C.3     
  40 C40           -1.4710     7.3056    -2.0033 C.3     
  41 H41           -1.1815    -1.7993     0.1368 H       
  42 H42           -3.3162    -0.6141     0.1709 H       
  43 H43           -1.2594     3.1493     0.0008 H       
  44 H44            1.4546     3.6233     1.0763 H       
  45 H45            2.8253     3.2634     0.0053 H       
  46 H46            1.9410     5.8371    -0.3366 H       
  47 H47            1.5014     6.5038    -2.8047 H       
  48 H48            0.0418     5.4941    -2.6379 H       
  49 H49           -2.5842     7.6190    -0.1851 H       
  50 H50           -1.8716     5.9942    -0.3410 H       
  51 H51           -2.7087     3.8835    -0.2122 H       
  52 H52           -4.1545     7.0695    -2.0627 H       
  53 H53           -3.4843     5.4174    -2.1016 H       
  54 H54            3.6118     2.3545    -1.6602 H       
  55 H55            2.9608    -1.7945    -0.2439 H       
  56 H56            1.8589    -2.0920     1.9575 H       
  57 H57            0.3585    -2.5896     1.1393 H       
  58 H58            3.0561    -4.0015     0.9234 H       
  59 H59            1.6644    -4.5628     1.8807 H       
  60 H60            1.7609    -5.7181    -0.3113 H       
  61 H61            0.3013    -4.7071    -0.1856 H       
  62 H62            2.9035    -3.9120    -1.5688 H       
  63 H63            1.4031    -4.4096    -2.3870 H       
  64 H64            0.2059    -2.5002    -1.3529 H       
  65 H65            1.5976    -1.9388    -2.3102 H       
  66 H66            6.0641     2.4164    -1.8210 H       
  67 H67            6.3443    -0.7263     1.0648 H       
  68 H68            3.8931    -0.7934     1.2396 H       
  69 H69           -5.9837     7.2997     0.3240 H       
  70 H70           -5.2077     6.3352     1.6031 H       
  71 H71           -4.2985     7.6321     0.7908 H       
  72 H72            0.0058     7.2863    -0.4366 H       
  73 H73            0.4495     8.2675    -1.8542 H       
  74 H74            8.1556    -1.0533     0.0771 H       
  75 H75            9.5079     0.1007     0.1654 H       
  76 H76            8.2123     0.1529     1.3848 H       
  77 H77           -1.5547     6.6372    -2.8603 H       
  78 H78           -1.7811     8.3091    -2.2949 H       
@<TRIPOS>BOND
   1    1    2 ar
   2    1    7 1
   3    1    6 ar
   4    2    3 ar
   5    2    9 1
   6    3    4 ar
   7    3   41 1
   8    4    5 ar
   9    4   42 1
  10    5    6 ar
  11    5   16 1
  12    6   43 1
  13    7    8 1
  14    7   10 1
  15    8    9 2
  16    8   22 1
  17    9   24 1
  18   10   11 1
  19   10   44 1
  20   10   45 1
  21   11   12 am
  22   11   13 2
  23   12   14 1
  24   12   46 1
  25   14   37 1
  26   14   47 1
  27   14   48 1
  28   15   19 1
  29   15   40 1
  30   15   49 1
  31   15   50 1
  32   16   17 2
  33   16   18 am
  34   18   21 am
  35   18   51 1
  36   19   20 1
  37   19   52 1
  38   19   53 1
  39   20   21 am
  40   20   36 1
  41   21   34 2
  42   21   35 2
  43   22   23 ar
  44   22   33 ar
  45   23   30 ar
  46   23   54 1
  47   24   25 1
  48   24   29 1
  49   24   55 1
  50   25   26 1
  51   25   56 1
  52   25   57 1
  53   26   27 1
  54   26   58 1
  55   26   59 1
  56   27   28 1
  57   27   60 1
  58   27   61 1
  59   28   29 1
  60   28   62 1
  61   28   63 1
  62   29   64 1
  63   29   65 1
  64   30   31 ar
  65   30   66 1
  66   31   32 ar
  67   31   38 1
  68   32   33 ar
  69   32   67 1
  70   33   68 1
  71   36   69 1
  72   36   70 1
  73   36   71 1
  74   37   40 1
  75   37   72 1
  76   37   73 1
  77   38   39 1
  78   39   74 1
  79   39   75 1
  80   39   76 1
  81   40   77 1
  82   40   78 1

#	End of record

