#	Name: ASD08150106
#	Creating user name:	WinNT
#	Creation time:	15. 06. 2019 21:15

#	Modifying user name:	WinNT
#	Modification time:	15. 06. 2019 21:15

#	Program:	/corina/corina34_cracker 3.40 0067  02.08.2006

@<TRIPOS>MOLECULE
ASD08150106
  55   58    0    0    0
SMALL
NO_CHARGES


@<TRIPOS>ATOM
   1 O1            -0.0161     1.3334     0.0094 O.3     
   2 C2             0.0021    -0.0041     0.0020 C.2     
   3 N3             1.2348    -0.5293    -0.0126 N.am    
   4 C4             2.2183     0.5645    -0.0161 C.3     
   5 C5             1.3508     1.8379    -0.0010 C.3     
   6 O6            -1.0069    -0.6808     0.0084 O.2     
   7 C7             3.0931    -3.5894     0.0537 C.ar    
   8 N8             2.1556    -4.5191    -0.0405 N.ar    
   9 C9             0.8687    -4.1833    -0.1300 C.ar    
  10 C10            0.5191    -2.8335    -0.1233 C.ar    
  11 C11            1.5353    -1.8872    -0.0227 C.ar    
  12 N12            2.7968    -2.2984     0.0630 N.ar    
  13 C13           -2.0647    -7.1227    -0.4277 C.ar    
  14 N14           -2.4285    -5.8477    -0.4230 N.ar    
  15 C15           -1.5278    -4.8863    -0.3299 C.ar    
  16 C16           -0.1757    -5.2298    -0.2357 C.ar    
  17 C17            0.1662    -6.5852    -0.2441 C.ar    
  18 N18           -0.7934    -7.4879    -0.3401 N.ar    
  19 N19            4.4183    -3.9768     0.1507 N.3     
  20 C20            4.5419    -5.4416     0.1295 C.3     
  21 C21            6.0235    -5.8241     0.1785 C.3     
  22 O22            6.6214    -5.2471     1.3426 O.3     
  23 C23            6.5198    -3.8216     1.3955 C.3     
  24 C24            5.0433    -3.4188     1.3588 C.3     
  25 N25           -3.0388    -8.0986    -0.5209 N.pl3   
  26 C26            3.0750     0.5128    -1.2827 C.3     
  27 C27            1.6042     2.6745    -1.2567 C.3     
  28 O28            3.8826    -0.6659    -1.2637 O.3     
  29 F29            2.3263    -6.4804    -1.2220 F       
  30 F30            2.1520    -6.5385     1.0551 F       
  31 C31            1.6085    -7.0104    -0.1445 C.3     
  32 C32            1.6934    -8.5377    -0.1770 C.3     
  33 H33            2.8457     0.5180     0.8740 H       
  34 H34            1.5485     2.4243     0.8964 H       
  35 H35           -0.5148    -2.5295    -0.1947 H       
  36 H36           -1.8312    -3.8498    -0.3271 H       
  37 H37            4.0285    -5.8627     0.9938 H       
  38 H38            4.0955    -5.8313    -0.7854 H       
  39 H39            6.1181    -6.9091     0.2206 H       
  40 H40            6.5261    -5.4486    -0.7129 H       
  41 H41            6.9734    -3.4583     2.3177 H       
  42 H42            7.0368    -3.3878     0.5395 H       
  43 H43            4.9628    -2.3319     1.3413 H       
  44 H44            4.5378    -3.8076     2.2428 H       
  45 H45           -3.9736    -7.8466    -0.5817 H       
  46 H46           -2.7878    -9.0356    -0.5254 H       
  47 H47            2.4272     0.4953    -2.1591 H       
  48 H48            3.7172     1.3926    -1.3231 H       
  49 H49            0.9328     3.5331    -1.2629 H       
  50 H50            2.6376     3.0213    -1.2597 H       
  51 H51            1.4229     2.0650    -2.1420 H       
  52 H52            4.4531    -0.7644    -2.0383 H       
  53 H53            1.2699    -8.9053    -1.1116 H       
  54 H54            2.7366    -8.8452    -0.1049 H       
  55 H55            1.1341    -8.9506     0.6626 H       
@<TRIPOS>BOND
   1    1    2 1
   2    1    5 1
   3    2    3 am
   4    2    6 2
   5    3    4 1
   6    3   11 1
   7    4    5 1
   8    4   26 1
   9    4   33 1
  10    5   27 1
  11    5   34 1
  12    7    8 ar
  13    7   12 ar
  14    7   19 1
  15    8    9 ar
  16    9   10 ar
  17    9   16 1
  18   10   11 ar
  19   10   35 1
  20   11   12 ar
  21   13   14 ar
  22   13   18 ar
  23   13   25 1
  24   14   15 ar
  25   15   16 ar
  26   15   36 1
  27   16   17 ar
  28   17   18 ar
  29   17   31 1
  30   19   20 1
  31   19   24 1
  32   20   21 1
  33   20   37 1
  34   20   38 1
  35   21   22 1
  36   21   39 1
  37   21   40 1
  38   22   23 1
  39   23   24 1
  40   23   41 1
  41   23   42 1
  42   24   43 1
  43   24   44 1
  44   25   45 1
  45   25   46 1
  46   26   28 1
  47   26   47 1
  48   26   48 1
  49   27   49 1
  50   27   50 1
  51   27   51 1
  52   28   52 1
  53   29   31 1
  54   30   31 1
  55   31   32 1
  56   32   53 1
  57   32   54 1
  58   32   55 1

#	End of record

