#	Name: ASD02448149
#	Creating user name:	WinNT
#	Creation time:	15. 06. 2019 20:21

#	Modifying user name:	WinNT
#	Modification time:	15. 06. 2019 20:21

#	Program:	/corina/corina34_cracker 3.40 0067  02.08.2006

@<TRIPOS>MOLECULE
ASD02448149
  75   80    0    0    0
SMALL
NO_CHARGES


@<TRIPOS>ATOM
   1 C1             0.3029     1.6669    -0.1753 C.ar    
   2 C2             0.2127     0.2905    -0.1201 C.ar    
   3 C3             1.3670    -0.4803    -0.0888 C.ar    
   4 C4             2.6123     0.1328    -0.1125 C.ar    
   5 C5             2.7034     1.5091    -0.1677 C.ar    
   6 C6             1.5488     2.2807    -0.1995 C.ar    
   7 N7             1.6406     3.6746    -0.2559 N.am    
   8 C8             0.6523     4.6236    -0.7849 C.3     
   9 C9             1.1320     6.0337    -0.6604 C.2     
  10 N10            2.3439     6.1676    -0.1034 N.am    
  11 S11            2.8948     4.6415     0.2690 S.o2    
  12 O12            0.4760     6.9828    -1.0345 O.2     
  13 O13            2.9419     4.5470     1.6861 O.2     
  14 O14            4.0026     4.3768    -0.5807 O.2     
  15 N15            1.2748    -1.8797    -0.0327 N.pl3   
  16 C16            0.6045    -2.6117     0.9101 C.2     
  17 C17            1.8293    -2.7591    -0.9073 C.2     
  18 N18            1.5295    -3.9717    -0.5332 N.2     
  19 C19            0.7755    -3.9195     0.5835 C.2     
  20 C20            0.2296    -5.0833     1.3241 C.ar    
  21 C21            0.4829    -6.3797     0.8756 C.ar    
  22 C22           -0.5331    -4.8855     2.4731 C.ar    
  23 C23           -1.0389    -5.9715     3.1586 C.ar    
  24 C24           -0.7898    -7.2560     2.7068 C.ar    
  25 C25           -0.0278    -7.4592     1.5689 C.ar    
  26 C26            1.7741    -2.3594    -3.3349 C.ar    
  27 C27            1.0706    -1.2094    -3.6455 C.ar    
  28 C28            1.6758    -3.4769    -4.1444 C.ar    
  29 C29            0.8746    -3.4502    -5.2676 C.ar    
  30 C30            0.1633    -2.2941    -5.5858 C.ar    
  31 C31            0.2662    -1.1710    -4.7661 C.ar    
  32 C32           -0.6988    -2.2589    -6.7913 C.ar    
  33 Cl33          -1.4286    -8.6172     3.5744 Cl      
  34 Cl34           1.4378    -6.6353    -0.5514 Cl      
  35 C35            2.6557    -2.3929    -2.1131 C.3     
  36 C36           -1.4092    -1.0996    -7.1063 C.ar    
  37 C37           -2.2071    -1.0648    -8.2206 C.ar    
  38 C38           -2.3085    -2.1932    -9.0430 C.ar    
  39 C39           -1.5947    -3.3548    -8.7253 C.ar    
  40 C40           -0.7942    -3.3833    -7.6126 C.ar    
  41 C41           -3.1638    -2.1585   -10.2382 C.2     
  42 C42           -3.2610    -3.2475   -11.0308 C.2     
  43 C43           -4.1113    -3.2130   -12.2191 C.2     
  44 O44           -4.2084    -4.3010   -13.0110 O.3     
  45 O45           -4.7315    -2.2034   -12.4941 O.2     
  46 C46           -5.0575    -4.1967   -14.1556 C.3     
  47 C47           -5.0403    -5.5187   -14.9256 C.3     
  48 H48           -0.5950     2.2662    -0.2042 H       
  49 H49           -0.7559    -0.1868    -0.1010 H       
  50 H50            3.5100    -0.4672    -0.0874 H       
  51 H51            3.6723     1.9859    -0.1858 H       
  52 H52            0.4698     4.4001    -1.8360 H       
  53 H53           -0.2802     4.5135    -0.2314 H       
  54 H54            2.8128     7.0015     0.0563 H       
  55 H55            0.0476    -2.2247     1.7507 H       
  56 H56           -0.7280    -3.8840     2.8271 H       
  57 H57           -1.6299    -5.8188     4.0496 H       
  58 H58            0.1637    -8.4633     1.2204 H       
  59 H59            1.1509    -0.3402    -3.0096 H       
  60 H60            2.2276    -4.3717    -3.8971 H       
  61 H61            0.7990    -4.3231    -5.8991 H       
  62 H62           -0.2828    -0.2728    -5.0075 H       
  63 H63            3.1042    -1.4111    -1.9617 H       
  64 H64            3.4425    -3.1341    -2.2531 H       
  65 H65           -1.3306    -0.2294    -6.4715 H       
  66 H66           -2.7572    -0.1677    -8.4636 H       
  67 H67           -1.6714    -4.2264    -9.3583 H       
  68 H68           -0.2433    -4.2792    -7.3671 H       
  69 H69           -3.7145    -1.2621   -10.4824 H       
  70 H70           -2.7103    -4.1439   -10.7867 H       
  71 H71           -6.0755    -3.9768   -13.8340 H       
  72 H72           -4.6995    -3.3952   -14.8017 H       
  73 H73           -4.0223    -5.7386   -15.2473 H       
  74 H74           -5.3983    -6.3202   -14.2795 H       
  75 H75           -5.6880    -5.4391   -15.7987 H       
@<TRIPOS>BOND
   1    1    2 ar
   2    1    6 ar
   3    1   48 1
   4    2    3 ar
   5    2   49 1
   6    3    4 ar
   7    3   15 1
   8    4    5 ar
   9    4   50 1
  10    5    6 ar
  11    5   51 1
  12    6    7 1
  13    7    8 1
  14    7   11 am
  15    8    9 1
  16    8   52 1
  17    8   53 1
  18    9   10 am
  19    9   12 2
  20   10   11 am
  21   10   54 1
  22   11   13 2
  23   11   14 2
  24   15   16 1
  25   15   17 1
  26   16   19 2
  27   16   55 1
  28   17   18 2
  29   17   35 1
  30   18   19 1
  31   19   20 1
  32   20   21 ar
  33   20   22 ar
  34   21   34 1
  35   21   25 ar
  36   22   23 ar
  37   22   56 1
  38   23   24 ar
  39   23   57 1
  40   24   25 ar
  41   24   33 1
  42   25   58 1
  43   26   27 ar
  44   26   28 ar
  45   26   35 1
  46   27   31 ar
  47   27   59 1
  48   28   29 ar
  49   28   60 1
  50   29   30 ar
  51   29   61 1
  52   30   31 ar
  53   30   32 1
  54   31   62 1
  55   32   36 ar
  56   32   40 ar
  57   35   63 1
  58   35   64 1
  59   36   37 ar
  60   36   65 1
  61   37   38 ar
  62   37   66 1
  63   38   39 ar
  64   38   41 1
  65   39   40 ar
  66   39   67 1
  67   40   68 1
  68   41   42 2
  69   41   69 1
  70   42   43 1
  71   42   70 1
  72   43   44 1
  73   43   45 2
  74   44   46 1
  75   46   47 1
  76   46   71 1
  77   46   72 1
  78   47   73 1
  79   47   74 1
  80   47   75 1

#	End of record

