#	Name: ASD01915721
#	Creating user name:	WinNT
#	Creation time:	15. 06. 2019 20:06

#	Modifying user name:	WinNT
#	Modification time:	15. 06. 2019 20:06

#	Program:	/corina/corina34_cracker 3.40 0067  02.08.2006

@<TRIPOS>MOLECULE
ASD01915721
  44   47    0    0    0
SMALL
NO_CHARGES


@<TRIPOS>ATOM
   1 C1            -0.0042     1.4687     0.2350 C.2     
   2 N2             0.0663     0.1193    -0.0302 N.pl3   
   3 C3            -1.1427    -0.6635    -0.3131 C.3     
   4 C4            -2.3279    -0.0486     0.4294 C.3     
   5 N5            -2.4044     1.3988     0.2637 N.am    
   6 C6            -1.2935     2.1743     0.2864 C.2     
   7 C7             1.2763     1.9061     0.4261 C.2     
   8 C8             2.0759     0.7653     0.2738 C.2     
   9 N9             1.2866    -0.2501     0.0108 N.2     
  10 C10            3.5775     0.7136     0.3902 C.3     
  11 O11            4.0778     2.0196     0.6838 O.3     
  12 C12            5.4241     2.1481     0.8220 C.ar    
  13 O13           -1.3591     3.3875     0.3463 O.2     
  14 C14            5.9774     3.3876     1.1072 C.ar    
  15 C15            6.2451     1.0388     0.6834 C.ar    
  16 C16            7.6131     1.1709     0.8239 C.ar    
  17 C17            8.1645     2.4097     1.1035 C.ar    
  18 C18            7.3457     3.5169     1.2473 C.ar    
  19 C19           -3.6531     1.9997     0.0768 C.ar    
  20 C20           -4.5854     2.0024     1.1064 C.ar    
  21 C21           -3.9618     2.6002    -1.1370 C.ar    
  22 C22           -5.1960     3.1928    -1.3184 C.ar    
  23 C23           -6.1239     3.1891    -0.2931 C.ar    
  24 C24           -5.8178     2.5967     0.9184 C.ar    
  25 F25            9.5024     2.5373     1.2416 F       
  26 C26           -7.4693     3.8375    -0.4943 C.3     
  27 H27           -1.3401    -0.6535    -1.3850 H       
  28 H28           -0.9974    -1.6908     0.0210 H       
  29 H29           -3.2487    -0.4952     0.0542 H       
  30 H30           -2.2353    -0.2771     1.4912 H       
  31 H31            1.6014     2.9122     0.6462 H       
  32 H32            3.8564     0.0291     1.1914 H       
  33 H33            4.0031     0.3645    -0.5506 H       
  34 H34            5.3389     4.2514     1.2194 H       
  35 H35            5.8152     0.0722     0.4660 H       
  36 H36            8.2527     0.3073     0.7161 H       
  37 H37            7.7771     4.4826     1.4653 H       
  38 H38           -4.3470     1.5399     2.0527 H       
  39 H39           -3.2373     2.6040    -1.9380 H       
  40 H40           -5.4366     3.6599    -2.2620 H       
  41 H41           -6.5447     2.5955     1.7172 H       
  42 H42           -8.1715     3.1027    -0.8880 H       
  43 H43           -7.8364     4.2163     0.4596 H       
  44 H44           -7.3730     4.6626    -1.2000 H       
@<TRIPOS>BOND
   1    1    2 1
   2    1    7 2
   3    1    6 1
   4    2    3 1
   5    2    9 1
   6    3    4 1
   7    3   27 1
   8    3   28 1
   9    4    5 1
  10    4   29 1
  11    4   30 1
  12    5    6 am
  13    5   19 1
  14    6   13 2
  15    7    8 1
  16    7   31 1
  17    8    9 2
  18    8   10 1
  19   10   11 1
  20   10   32 1
  21   10   33 1
  22   11   12 1
  23   12   14 ar
  24   12   15 ar
  25   14   18 ar
  26   14   34 1
  27   15   16 ar
  28   15   35 1
  29   16   17 ar
  30   16   36 1
  31   17   18 ar
  32   17   25 1
  33   18   37 1
  34   19   20 ar
  35   19   21 ar
  36   20   24 ar
  37   20   38 1
  38   21   22 ar
  39   21   39 1
  40   22   23 ar
  41   22   40 1
  42   23   24 ar
  43   23   26 1
  44   24   41 1
  45   26   42 1
  46   26   43 1
  47   26   44 1

#	End of record

