#	Name: ASD00842930
#	Creating user name:	WinNT
#	Creation time:	15. 06. 2019 18:45

#	Modifying user name:	WinNT
#	Modification time:	15. 06. 2019 18:45

#	Program:	/corina/corina34_cracker 3.40 0067  02.08.2006

@<TRIPOS>MOLECULE
ASD00842930
  91   96    0    0    0
SMALL
NO_CHARGES


@<TRIPOS>ATOM
   1 N1            -0.0050     1.3211     0.0356 N.ar    
   2 C2             0.0089    -0.0012     0.0186 C.ar    
   3 C3             1.2117    -0.6961    -0.0014 C.ar    
   4 C4             2.3994     0.0138    -0.0034 C.ar    
   5 C5             2.3418     1.4008     0.0148 C.ar    
   6 C6             1.1109     2.0254     0.0342 C.ar    
   7 C7             1.2227    -2.2030    -0.0203 C.3     
   8 C8             0.4753    -2.7240    -1.2293 C.2     
   9 N9             2.5989    -2.7053    -0.0115 N.am    
  10 C10            3.4472    -2.3639    -1.0016 C.2     
  11 N11            4.7405    -2.7378    -0.9396 N.am    
  12 O12            3.0456    -1.7188    -1.9507 O.2     
  13 C13            5.2673    -3.4167     0.2522 C.3     
  14 C14            6.4979    -2.6530     0.7512 C.3     
  15 C15            7.5066    -2.5163    -0.3916 C.3     
  16 C16            6.8768    -1.7215    -1.5378 C.3     
  17 C17            5.6491    -2.4797    -2.0650 C.3     
  18 C18            8.7519    -1.7842     0.1124 C.3     
  19 C19            9.3841    -2.5791     1.2582 C.3     
  20 C20           10.6624    -1.8739     1.7174 C.3     
  21 N21           11.5996    -1.7744     0.5913 N.3     
  22 C22           11.0326    -0.9753    -0.5024 C.3     
  23 C23            9.7654    -1.6537    -1.0279 C.3     
  24 C24           12.8912    -1.2276     1.0281 C.3     
  25 O25            0.7566    -2.5223    -2.3916 O.2     
  26 N26           -0.5573    -3.4523    -0.7734 N.am    
  27 C27            0.4470    -2.7533     1.1549 C.ar    
  28 C28           -0.6049    -3.4913     0.6173 C.ar    
  29 C29            0.6116    -2.6424     2.5123 C.ar    
  30 C30           -0.2873    -3.2777     3.3767 C.ar    
  31 C31           -1.3470    -4.0212     2.8434 C.ar    
  32 C32           -1.5008    -4.1261     1.4776 C.ar    
  33 F33           -2.2201    -4.6382     3.6693 F       
  34 C34           -1.0266    -5.8345    -2.0693 C.ar    
  35 C35           -1.3614    -6.8790    -1.2274 C.ar    
  36 C36           -0.2079    -6.0584    -3.1607 C.ar    
  37 C37            0.2777    -7.3269    -3.4127 C.ar    
  38 C38           -0.0567    -8.3766    -2.5695 C.ar    
  39 C39           -0.8780    -8.1492    -1.4748 C.ar    
  40 O40            0.4194    -9.6254    -2.8155 O.3     
  41 H41           -2.0011    -6.7016    -0.3755 H       
  42 C42            0.0340   -10.6576    -1.9055 C.3     
  43 C43           13.9133    -1.3695    -0.1016 C.3     
  44 O44           -1.1625    -0.6856     0.0212 O.3     
  45 C45           -2.3649     0.0864     0.0427 C.3     
  46 C46           -3.5735    -0.8518     0.0424 C.3     
  47 F47           -3.5485    -1.6441    -1.1103 F       
  48 F48           -3.5264    -1.6732     1.1739 F       
  49 C49           -0.1241    -3.1685     4.7952 C.1     
  50 N50            0.0054    -3.0819     5.9204 N.1     
  51 S51           -1.6503    -4.2169    -1.7548 S.o2    
  52 O52           -2.8323    -4.3853    -0.9842 O.2     
  53 O53           -1.6243    -3.5282    -2.9974 O.2     
  54 H54            3.3496    -0.4994    -0.0184 H       
  55 H55            3.2503     1.9848     0.0142 H       
  56 H56            1.0606     3.1042     0.0481 H       
  57 H57            2.8995    -3.2835     0.7070 H       
  58 H58            4.5052    -3.4309     1.0314 H       
  59 H59            5.5499    -4.4378    -0.0039 H       
  60 H60            6.1977    -1.6621     1.0919 H       
  61 H61            6.9550    -3.1989     1.5765 H       
  62 H62            7.7876    -3.5072    -0.7483 H       
  63 H63            6.5730    -0.7394    -1.1756 H       
  64 H64            7.6035    -1.6045    -2.3417 H       
  65 H65            5.9656    -3.4231    -2.5099 H       
  66 H66            5.1388    -1.8734    -2.8134 H       
  67 H67            8.4724    -0.7924     0.4680 H       
  68 H68            8.6825    -2.6389     2.0903 H       
  69 H69            9.6269    -3.5842     0.9133 H       
  70 H70           10.4170    -0.8739     2.0751 H       
  71 H71           11.1227    -2.4450     2.5236 H       
  72 H72           10.7854     0.0205    -0.1343 H       
  73 H73           11.7617    -0.8937    -1.3085 H       
  74 H74           10.0141    -2.6442    -1.4088 H       
  75 H75            9.3362    -1.0522    -1.8292 H       
  76 H76           12.7729    -0.1740     1.2808 H       
  77 H77           13.2397    -1.7745     1.9042 H       
  78 H78            1.4328    -2.0666     2.9129 H       
  79 H79           -2.3200    -4.7011     1.0716 H       
  80 H80            0.0518    -5.2410    -3.8171 H       
  81 H81            0.9169    -7.5013    -4.2656 H       
  82 H82           -1.1400    -8.9648    -0.8171 H       
  83 H83            0.4813   -11.6017    -2.2164 H       
  84 H84            0.3785   -10.4051    -0.9027 H       
  85 H85           -1.0518   -10.7533    -1.9034 H       
  86 H86           14.0316    -2.4232    -0.3543 H       
  87 H87           13.5648    -0.8226    -0.9777 H       
  88 H88           14.8716    -0.9638     0.2225 H       
  89 H89           -2.3843     0.7037     0.9408 H       
  90 H90           -2.4015     0.7264    -0.8389 H       
  91 H91           -4.4906    -0.2629     0.0588 H       
@<TRIPOS>BOND
   1    1    2 ar
   2    1    6 ar
   3    2    3 ar
   4    2   44 1
   5    3    4 ar
   6    3    7 1
   7    4    5 ar
   8    4   54 1
   9    5    6 ar
  10    5   55 1
  11    6   56 1
  12    7    8 1
  13    7    9 1
  14    7   27 1
  15    8   25 2
  16    8   26 am
  17    9   10 am
  18    9   57 1
  19   10   11 am
  20   10   12 2
  21   11   13 1
  22   11   17 1
  23   13   14 1
  24   13   58 1
  25   13   59 1
  26   14   15 1
  27   14   60 1
  28   14   61 1
  29   15   16 1
  30   15   18 1
  31   15   62 1
  32   16   17 1
  33   16   63 1
  34   16   64 1
  35   17   65 1
  36   17   66 1
  37   18   19 1
  38   18   23 1
  39   18   67 1
  40   19   20 1
  41   19   68 1
  42   19   69 1
  43   20   21 1
  44   20   70 1
  45   20   71 1
  46   21   22 1
  47   21   24 1
  48   22   23 1
  49   22   72 1
  50   22   73 1
  51   23   74 1
  52   23   75 1
  53   24   43 1
  54   24   76 1
  55   24   77 1
  56   26   51 am
  57   26   28 1
  58   27   28 ar
  59   27   29 ar
  60   28   32 ar
  61   29   30 ar
  62   29   78 1
  63   30   31 ar
  64   30   49 1
  65   31   32 ar
  66   31   33 1
  67   32   79 1
  68   34   35 ar
  69   34   36 ar
  70   34   51 1
  71   35   41 1
  72   35   39 ar
  73   36   37 ar
  74   36   80 1
  75   37   38 ar
  76   37   81 1
  77   38   39 ar
  78   38   40 1
  79   39   82 1
  80   40   42 1
  81   42   83 1
  82   42   84 1
  83   42   85 1
  84   43   86 1
  85   43   87 1
  86   43   88 1
  87   44   45 1
  88   45   46 1
  89   45   89 1
  90   45   90 1
  91   46   47 1
  92   46   48 1
  93   46   91 1
  94   49   50 3
  95   51   52 2
  96   51   53 2

#	End of record

