#	Name: ASD01890454
#	Creating user name:	WinNT
#	Creation time:	15. 06. 2019 19:51

#	Modifying user name:	WinNT
#	Modification time:	15. 06. 2019 19:51

#	Program:	/corina/corina34_cracker 3.40 0067  02.08.2006

@<TRIPOS>MOLECULE
ASD01890454
  46   47    0    0    0
SMALL
NO_CHARGES


@<TRIPOS>ATOM
   1 C1             0.9621     0.1554    -0.9050 C.2     
   2 C2            -0.4094     0.0628    -0.2874 C.3     
   3 C3            -1.3625    -0.5637    -1.2724 C.2     
   4 O4             1.2099    -0.4514    -1.9200 O.2     
   5 O5             1.9069     0.9165    -0.3306 O.3     
   6 O6            -0.9345    -1.1954    -2.2092 O.2     
   7 O7            -2.6870    -0.4199    -1.1089 O.3     
   8 C8            -0.3428    -0.7978     0.9758 C.3     
   9 C9            -1.7543    -0.9987     1.5311 C.3     
  10 C10           -2.2941     0.3206     2.0202 C.2     
  11 O11           -1.5801     1.3010     2.0326 O.2     
  12 C12           -3.6848     0.4191     2.4819 C.ar    
  13 C13           -4.2221     1.6638     2.8326 C.ar    
  14 C14           -5.5211     1.7504     3.2630 C.ar    
  15 C15           -6.3047     0.6048     3.3517 C.ar    
  16 C16           -5.7758    -0.6339     3.0047 C.ar    
  17 C17           -4.4798    -0.7305     2.5675 C.ar    
  18 O18           -7.5891     0.6957     3.7787 O.3     
  19 C19            0.2602    -2.1374     0.6399 C.ar    
  20 C20            1.4248    -2.5465     1.2623 C.ar    
  21 C21            1.9783    -3.7750     0.9546 C.ar    
  22 C22            1.3667    -4.5953     0.0234 C.ar    
  23 C23            0.2012    -4.1853    -0.5992 C.ar    
  24 C24           -0.3545    -2.9590    -0.2865 C.ar    
  25 Cl25           2.0616    -6.1383    -0.3640 Cl      
  26 C26            3.2296     0.8887    -0.9288 C.3     
  27 C27           -3.5453    -1.0503    -2.0959 C.3     
  28 H28           -0.7594     1.0620    -0.0283 H       
  29 H29            0.2741    -0.2988     1.7233 H       
  30 H30           -2.4019    -1.3874     0.7452 H       
  31 H31           -1.7217    -1.7072     2.3587 H       
  32 H32           -3.6144     2.5540     2.7644 H       
  33 H33           -5.9364     2.7098     3.5341 H       
  34 H34           -6.3883    -1.5205     3.0756 H       
  35 H35           -4.0715    -1.6922     2.2940 H       
  36 H36           -8.2300     0.8412     3.0693 H       
  37 H37            1.9024    -1.9059     1.9890 H       
  38 H38            2.8883    -4.0944     1.4407 H       
  39 H39           -0.2767    -4.8252    -1.3261 H       
  40 H40           -1.2666    -2.6407    -0.7692 H       
  41 H41            3.5834    -0.1410    -0.9804 H       
  42 H42            3.1827     1.3076    -1.9339 H       
  43 H43            3.9157     1.4785    -0.3210 H       
  44 H44           -3.3657    -2.1254    -2.0999 H       
  45 H45           -4.5887    -0.8572    -1.8465 H       
  46 H46           -3.3259    -0.6416    -3.0823 H       
@<TRIPOS>BOND
   1    1    2 1
   2    1    4 2
   3    1    5 1
   4    2    3 1
   5    2    8 1
   6    2   28 1
   7    3    6 2
   8    3    7 1
   9    5   26 1
  10    7   27 1
  11    8    9 1
  12    8   19 1
  13    8   29 1
  14    9   10 1
  15    9   30 1
  16    9   31 1
  17   10   11 2
  18   10   12 1
  19   12   13 ar
  20   12   17 ar
  21   13   14 ar
  22   13   32 1
  23   14   15 ar
  24   14   33 1
  25   15   16 ar
  26   15   18 1
  27   16   17 ar
  28   16   34 1
  29   17   35 1
  30   18   36 1
  31   19   20 ar
  32   19   24 ar
  33   20   21 ar
  34   20   37 1
  35   21   22 ar
  36   21   38 1
  37   22   23 ar
  38   22   25 1
  39   23   24 ar
  40   23   39 1
  41   24   40 1
  42   26   41 1
  43   26   42 1
  44   26   43 1
  45   27   44 1
  46   27   45 1
  47   27   46 1

#	End of record

