#	Name: ASD03090778
#	Creating user name:	WinNT
#	Creation time:	15. 06. 2019 20:29

#	Modifying user name:	WinNT
#	Modification time:	15. 06. 2019 20:29

#	Program:	/corina/corina34_cracker 3.40 0067  02.08.2006

@<TRIPOS>MOLECULE
ASD03090778
  64   68    0    0    0
SMALL
NO_CHARGES


@<TRIPOS>ATOM
   1 C1            -0.3012     1.4723     0.0320 C.3     
   2 N2            -0.2507     0.0082     0.0194 N.am    
   3 C3            -0.0839    -0.6771     1.1927 C.2     
   4 N4            -0.0303    -1.9826     1.2554 N.2     
   5 C5            -0.1375    -2.7499     0.1516 C.ar    
   6 C6            -0.3124    -2.1276    -1.1055 C.ar    
   7 C7            -0.3749    -0.6592    -1.1515 C.2     
   8 C8             0.0420     0.0937     2.4465 C.ar    
   9 O9            -0.5241    -0.0659    -2.2039 O.2     
  10 C10           -0.0790    -4.1452     0.2248 C.ar    
  11 C11           -0.1906    -4.8920    -0.9125 C.ar    
  12 C12           -0.3633    -4.2826    -2.1555 C.ar    
  13 C13           -0.4247    -2.9031    -2.2573 C.ar    
  14 N14           -0.4750    -5.0695    -3.3051 N.3     
  15 C15            0.1783    -4.4226    -4.4517 C.3     
  16 C16            0.8783    -5.4590    -5.3180 C.3     
  17 C17           -0.0773    -6.3033    -6.1367 C.3     
  18 N18           -1.4670    -5.8491    -5.9844 N.3     
  19 C19           -2.0333    -6.3741    -4.7326 C.3     
  20 C20           -1.8811    -5.3617    -3.6080 C.3     
  21 C21           -1.6235    -4.4285    -6.2119 C.3     
  22 C22           -0.8461    -3.5951    -5.2064 C.3     
  23 C23            1.1894    -0.0284     3.2327 C.ar    
  24 C24            1.0693     2.0247    -0.2642 C.2     
  25 N25            1.2642     3.3577    -0.3049 N.am    
  26 O26            1.9968     1.2698    -0.4659 O.2     
  27 C27           -0.9848     0.9532     2.8484 C.ar    
  28 C28           -0.8602     1.6716     4.0232 C.ar    
  29 C29            0.2763     1.5417     4.7992 C.ar    
  30 C30            1.3005     0.6952     4.4037 C.ar    
  31 F31            2.4078     0.5742     5.1681 F       
  32 F32           -2.0958     1.0818     2.0906 F       
  33 C33            2.5964     3.8948    -0.5928 C.3     
  34 C34            2.8010     3.9664    -2.1073 C.3     
  35 C35            2.7211     5.2974     0.0056 C.3     
  36 H36           -1.0040     1.8181    -0.7260 H       
  37 H37           -0.6272     1.8161     1.0136 H       
  38 H38            0.0547    -4.6314     1.1799 H       
  39 H39           -0.1442    -5.9691    -0.8491 H       
  40 H40           -0.5584    -2.4329    -3.2203 H       
  41 H41            0.9334    -3.7373    -4.0668 H       
  42 H42            1.5594    -4.9449    -5.9962 H       
  43 H43            1.4615    -6.1167    -4.6735 H       
  44 H44            0.2042    -6.2413    -7.1879 H       
  45 H45           -0.0043    -7.3408    -5.8106 H       
  46 H46           -3.0914    -6.5906    -4.8801 H       
  47 H47           -1.5139    -7.2931    -4.4611 H       
  48 H48           -2.3610    -5.7549    -2.7117 H       
  49 H49           -2.3799    -4.4363    -3.8961 H       
  50 H50           -1.2716    -4.1904    -7.2157 H       
  51 H51           -2.6808    -4.1734    -6.1402 H       
  52 H52           -1.5446    -3.1588    -4.4924 H       
  53 H53           -0.3329    -2.7912    -5.7340 H       
  54 H54            1.9881    -0.6875     2.9259 H       
  55 H55            0.5223     3.9615    -0.1435 H       
  56 H56           -1.6525     2.3360     4.3351 H       
  57 H57            0.3687     2.1054     5.7157 H       
  58 H58            3.3530     3.2441    -0.1543 H       
  59 H59            3.7923     4.3659    -2.3216 H       
  60 H60            2.7122     2.9671    -2.5336 H       
  61 H61            2.0444     4.6170    -2.5458 H       
  62 H62            2.5753     5.2464     1.0846 H       
  63 H63            3.7124     5.6969    -0.2086 H       
  64 H64            1.9645     5.9480    -0.4329 H       
@<TRIPOS>BOND
   1    1    2 1
   2    1   24 1
   3    1   36 1
   4    1   37 1
   5    2    3 1
   6    2    7 am
   7    3    4 2
   8    3    8 1
   9    4    5 1
  10    5    6 ar
  11    5   10 ar
  12    6    7 1
  13    6   13 ar
  14    7    9 2
  15    8   23 ar
  16    8   27 ar
  17   10   11 ar
  18   10   38 1
  19   11   12 ar
  20   11   39 1
  21   12   13 ar
  22   12   14 1
  23   13   40 1
  24   14   15 1
  25   14   20 1
  26   15   16 1
  27   15   22 1
  28   15   41 1
  29   16   17 1
  30   16   42 1
  31   16   43 1
  32   17   18 1
  33   17   44 1
  34   17   45 1
  35   18   19 1
  36   18   21 1
  37   19   20 1
  38   19   46 1
  39   19   47 1
  40   20   48 1
  41   20   49 1
  42   21   22 1
  43   21   50 1
  44   21   51 1
  45   22   52 1
  46   22   53 1
  47   23   30 ar
  48   23   54 1
  49   24   25 am
  50   24   26 2
  51   25   33 1
  52   25   55 1
  53   27   28 ar
  54   27   32 1
  55   28   29 ar
  56   28   56 1
  57   29   30 ar
  58   29   57 1
  59   30   31 1
  60   33   34 1
  61   33   35 1
  62   33   58 1
  63   34   59 1
  64   34   60 1
  65   34   61 1
  66   35   62 1
  67   35   63 1
  68   35   64 1

#	End of record

