#	Name: ASD07931317
#	Creating user name:	WinNT
#	Creation time:	15. 06. 2019 21:13

#	Modifying user name:	WinNT
#	Modification time:	15. 06. 2019 21:13

#	Program:	/corina/corina34_cracker 3.40 0067  02.08.2006

@<TRIPOS>MOLECULE
ASD07931317
  69   75    0    0    0
SMALL
NO_CHARGES


@<TRIPOS>ATOM
   1 C1            -0.0178     1.4608     0.0101 C.3     
   2 N2             0.0021    -0.0041     0.0020 N.am    
   3 N3             0.5952    -0.7998     0.9854 N.2     
   4 C4             0.4551    -2.0643     0.7116 C.2     
   5 C5            -0.2942    -2.1595    -0.5619 C.2     
   6 C6            -0.5553    -0.7781    -0.9541 C.2     
   7 O7            -1.1513    -0.3987    -1.9492 O.2     
   8 C8             0.8558    -3.3309     1.3544 C.ar    
   9 C9             0.5051    -4.5365     0.7246 C.ar    
  10 N10           -0.1977    -4.5276    -0.4680 N.pl3   
  11 C11           -0.5808    -3.3970    -1.0826 C.2     
  12 C12            1.5627    -3.3461     2.5520 C.ar    
  13 C13            1.9191    -4.5520     3.1204 C.ar    
  14 C14            1.5751    -5.7429     2.5015 C.ar    
  15 C15            0.8733    -5.7408     1.3139 C.ar    
  16 C16           -0.5399    -5.8104    -1.0874 C.3     
  17 C17           -1.8812    -6.2720    -0.5786 C.ar    
  18 C18           -3.0357    -5.9048    -1.2453 C.ar    
  19 C19           -4.2665    -6.3260    -0.7812 C.ar    
  20 C20           -4.3438    -7.1191     0.3557 C.ar    
  21 C21           -3.1828    -7.4865     1.0227 C.ar    
  22 C22           -1.9546    -7.0666     0.5507 C.ar    
  23 N23           -5.5915    -7.5477     0.8295 N.pl3   
  24 C24           -5.8070    -8.3192     1.9190 C.2     
  25 C25           -7.1422    -8.5062     2.0336 C.2     
  26 C26           -7.7643    -7.8273     0.9801 C.2     
  27 N27           -6.8365    -7.2477     0.2616 N.2     
  28 C28           -0.7273     1.9560     1.2734 C.3     
  29 C29           -0.6914     3.4856     1.3064 C.3     
  30 C30            1.4182     1.9921    -0.0008 C.3     
  31 C31            1.3920     3.5206     0.0692 C.3     
  32 N32            0.7037     3.9440     1.2953 N.3     
  33 C33            0.7803     5.4011     1.4657 C.3     
  34 C34            0.2860     5.7728     2.8399 C.ar    
  35 C35            1.1715     5.8345     3.8997 C.ar    
  36 C36            0.7180     6.1755     5.1603 C.ar    
  37 C37           -0.6208     6.4551     5.3610 C.ar    
  38 C38           -1.5060     6.3943     4.3011 C.ar    
  39 C39           -1.0519     6.0576     3.0396 C.ar    
  40 H40           -0.5468     1.8227    -0.8715 H       
  41 H41           -1.1271    -3.4628    -2.0119 H       
  42 H42            1.8319    -2.4183     3.0348 H       
  43 H43            2.4681    -4.5675     4.0503 H       
  44 H44            1.8589    -6.6819     2.9534 H       
  45 H45            0.6110    -6.6755     0.8406 H       
  46 H46           -0.5834    -5.6910    -2.1700 H       
  47 H47            0.2192    -6.5504    -0.8337 H       
  48 H48           -2.9749    -5.2878    -2.1297 H       
  49 H49           -5.1678    -6.0383    -1.3019 H       
  50 H50           -3.2399    -8.1031     1.9075 H       
  51 H51           -1.0512    -7.3520     1.0691 H       
  52 H52           -5.0493    -8.7154     2.5789 H       
  53 H53           -7.6400    -9.0786     2.8024 H       
  54 H54           -8.8274    -7.7849     0.7944 H       
  55 H55           -1.7630     1.6164     1.2658 H       
  56 H56           -0.2206     1.5609     2.1539 H       
  57 H57           -1.2102     3.8800     0.4327 H       
  58 H58           -1.1832     3.8409     2.2119 H       
  59 H59            1.9587     1.5976     0.8597 H       
  60 H60            1.9154     1.6783    -0.9186 H       
  61 H61            2.4133     3.9014     0.0761 H       
  62 H62            0.8634     3.9149    -0.7987 H       
  63 H63            1.8144     5.7263     1.3512 H       
  64 H64            0.1608     5.8880     0.7127 H       
  65 H65            2.2175     5.6161     3.7429 H       
  66 H66            1.4097     6.2230     5.9884 H       
  67 H67           -0.9751     6.7208     6.3460 H       
  68 H68           -2.5521     6.6124     4.4580 H       
  69 H69           -1.7435     6.0100     2.2115 H       
@<TRIPOS>BOND
   1    1    2 1
   2    1   30 1
   3    1   28 1
   4    1   40 1
   5    2    3 1
   6    2    6 am
   7    3    4 2
   8    4    5 1
   9    4    8 1
  10    5    6 1
  11    5   11 2
  12    6    7 2
  13    8    9 ar
  14    8   12 ar
  15    9   10 1
  16    9   15 ar
  17   10   11 1
  18   10   16 1
  19   11   41 1
  20   12   13 ar
  21   12   42 1
  22   13   14 ar
  23   13   43 1
  24   14   15 ar
  25   14   44 1
  26   15   45 1
  27   16   17 1
  28   16   46 1
  29   16   47 1
  30   17   18 ar
  31   17   22 ar
  32   18   19 ar
  33   18   48 1
  34   19   20 ar
  35   19   49 1
  36   20   21 ar
  37   20   23 1
  38   21   22 ar
  39   21   50 1
  40   22   51 1
  41   23   24 1
  42   23   27 1
  43   24   25 2
  44   24   52 1
  45   25   26 1
  46   25   53 1
  47   26   27 2
  48   26   54 1
  49   28   29 1
  50   28   55 1
  51   28   56 1
  52   29   32 1
  53   29   57 1
  54   29   58 1
  55   30   31 1
  56   30   59 1
  57   30   60 1
  58   31   32 1
  59   31   61 1
  60   31   62 1
  61   32   33 1
  62   33   34 1
  63   33   63 1
  64   33   64 1
  65   34   35 ar
  66   34   39 ar
  67   35   36 ar
  68   35   65 1
  69   36   37 ar
  70   36   66 1
  71   37   38 ar
  72   37   67 1
  73   38   39 ar
  74   38   68 1
  75   39   69 1

#	End of record

