#	Name: ASD00120007
#	Creating user name:	WinNT
#	Creation time:	15. 06. 2019 18:31

#	Modifying user name:	WinNT
#	Modification time:	15. 06. 2019 18:31

#	Program:	/corina/corina34_cracker 3.40 0067  02.08.2006

@<TRIPOS>MOLECULE
ASD00120007
  37   39    0    0    0
SMALL
NO_CHARGES


@<TRIPOS>ATOM
   1 C1            -0.3803     1.7707    -0.0957 C.ar    
   2 N2            -0.5548     0.4567    -0.0712 N.ar    
   3 C3             0.4452    -0.3922    -0.0235 C.ar    
   4 C4             1.7658     0.0834     0.0036 C.ar    
   5 C5             1.9830     1.4860    -0.0218 C.ar    
   6 C6             0.8606     2.3320    -0.0728 C.ar    
   7 C7             2.8693    -0.7828     0.0552 C.ar    
   8 C8             4.1283    -0.2646     0.0799 C.ar    
   9 C9             4.3403     1.1127     0.0554 C.ar    
  10 C10            3.2939     1.9833     0.0049 C.ar    
  11 S11            3.5852     3.7208    -0.0260 S.o2    
  12 N12            3.0597     4.2799    -1.4935 N.am    
  13 O13            2.7247     4.2894     0.9515 O.2     
  14 O14            4.9958     3.8915    -0.0133 O.2     
  15 C15            1.8004     5.0311    -1.6083 C.3     
  16 C16            2.0755     6.3280    -2.3767 C.3     
  17 N17            2.7264     6.0078    -3.6541 N.3     
  18 C18            4.0346     5.3744    -3.4416 C.3     
  19 C19            3.8429     4.0437    -2.7158 C.3     
  20 C20            5.2075     3.4569    -2.3491 C.3     
  21 H21           -1.2464     2.4143    -0.1396 H       
  22 H22            0.2524    -1.4547    -0.0048 H       
  23 H23            0.9802     3.4052    -0.0932 H       
  24 H24            2.7208    -1.8524     0.0754 H       
  25 H25            4.9766    -0.9319     0.1196 H       
  26 H26            5.3500     1.4957     0.0763 H       
  27 H27            1.0658     4.4340    -2.1487 H       
  28 H28            1.4234     5.2679    -0.6134 H       
  29 H29            1.1347     6.8444    -2.5673 H       
  30 H30            2.7296     6.9691    -1.7858 H       
  31 H31            2.1324     5.4274    -4.2271 H       
  32 H32            4.5147     5.1992    -4.4044 H       
  33 H33            4.6615     6.0288    -2.8358 H       
  34 H34            3.3039     3.3494    -3.3605 H       
  35 H35            5.7904     4.2028    -1.8088 H       
  36 H36            5.0679     2.5786    -1.7189 H       
  37 H37            5.7364     3.1713    -3.2584 H       
@<TRIPOS>BOND
   1    1    2 ar
   2    1    6 ar
   3    1   21 1
   4    2    3 ar
   5    3    4 ar
   6    3   22 1
   7    4    5 ar
   8    4    7 ar
   9    5    6 ar
  10    5   10 ar
  11    6   23 1
  12    7    8 ar
  13    7   24 1
  14    8    9 ar
  15    8   25 1
  16    9   10 ar
  17    9   26 1
  18   10   11 1
  19   11   12 am
  20   11   13 2
  21   11   14 2
  22   12   15 1
  23   12   19 1
  24   15   16 1
  25   15   27 1
  26   15   28 1
  27   16   17 1
  28   16   29 1
  29   16   30 1
  30   17   18 1
  31   17   31 1
  32   18   19 1
  33   18   32 1
  34   18   33 1
  35   19   20 1
  36   19   34 1
  37   20   35 1
  38   20   36 1
  39   20   37 1

#	End of record

