#	Name: ASD03090241
#	Creating user name:	WinNT
#	Creation time:	15. 06. 2019 20:28

#	Modifying user name:	WinNT
#	Modification time:	15. 06. 2019 20:28

#	Program:	/corina/corina34_cracker 3.40 0067  02.08.2006

@<TRIPOS>MOLECULE
ASD03090241
  45   48    0    0    0
SMALL
NO_CHARGES


@<TRIPOS>ATOM
   1 C1             0.1955     1.0451     0.8758 C.ar    
   2 N2            -0.9181     1.4719     1.4400 N.ar    
   3 C3            -2.0644     0.8442     1.2781 C.ar    
   4 C4            -2.1381    -0.3077     0.4945 C.ar    
   5 C5            -0.9739    -0.7849    -0.1170 C.ar    
   6 C6             0.2044    -0.0855     0.0795 C.ar    
   7 C7            -3.4262    -1.0132     0.3136 C.2     
   8 N8            -6.9322    -1.2497     0.4079 N.pl3   
   9 C9            -7.4324    -0.0688     0.9662 C.ar    
  10 C10           -6.7017     0.6064     1.9350 C.ar    
  11 C11           -7.1977     1.7724     2.4850 C.ar    
  12 C12           -8.4226     2.2677     2.0714 C.ar    
  13 C13           -9.1531     1.5960     1.1054 C.ar    
  14 C14           -8.6584     0.4333     0.5483 C.ar    
  15 N15           -4.6233    -0.5140     0.5483 N.2     
  16 C16           -5.5541    -1.4300     0.2751 C.2     
  17 N17           -4.9654    -2.5285    -0.1384 N.2     
  18 N18           -3.5831    -2.2814    -0.1271 N.pl3   
  19 C19           -2.5213    -3.2156    -0.5094 C.3     
  20 C20           -2.2787    -3.1225    -2.0172 C.3     
  21 F21           -1.2647    -4.0146    -2.3823 F       
  22 F22           -8.9062     3.4078     2.6113 F       
  23 C23            1.4775     1.8056     1.0976 C.3     
  24 C24            2.3975     1.3266     2.2223 C.3     
  25 C25            2.7890     1.0926     0.7619 C.3     
  26 C26          -10.4861     2.1377     0.6573 C.3     
  27 F27          -11.0289     1.2933    -0.3172 F       
  28 F28          -11.3542     2.2045     1.7524 F       
  29 F29          -10.3127     3.4181     0.1209 F       
  30 H30           -2.9550     1.2243     1.7563 H       
  31 H31           -0.9947    -1.6737    -0.7302 H       
  32 H32            1.1227    -0.4244    -0.3769 H       
  33 H33           -7.5427    -1.9434     0.1130 H       
  34 H34           -5.7464     0.2200     2.2584 H       
  35 H35           -6.6297     2.2979     3.2384 H       
  36 H36           -9.2282    -0.0900    -0.2052 H       
  37 H37           -1.6046    -2.9610     0.0225 H       
  38 H38           -2.8209    -4.2314    -0.2516 H       
  39 H39           -3.1954    -3.3771    -2.5491 H       
  40 H40           -1.9792    -2.1067    -2.2750 H       
  41 H41            1.4258     2.8785     0.9122 H       
  42 H42            2.9513     2.0843     2.7767 H       
  43 H43            2.0755     0.4614     2.8019 H       
  44 H44            2.7245     0.0735     0.3806 H       
  45 H45            3.6004     1.6964     0.3554 H       
@<TRIPOS>BOND
   1    1    2 ar
   2    1   23 1
   3    1    6 ar
   4    2    3 ar
   5    3    4 ar
   6    3   30 1
   7    4    5 ar
   8    4    7 1
   9    5    6 ar
  10    5   31 1
  11    6   32 1
  12    7   15 2
  13    7   18 1
  14    8    9 1
  15    8   16 1
  16    8   33 1
  17    9   10 ar
  18    9   14 ar
  19   10   11 ar
  20   10   34 1
  21   11   12 ar
  22   11   35 1
  23   12   13 ar
  24   12   22 1
  25   13   14 ar
  26   13   26 1
  27   14   36 1
  28   15   16 1
  29   16   17 2
  30   17   18 1
  31   18   19 1
  32   19   20 1
  33   19   37 1
  34   19   38 1
  35   20   21 1
  36   20   39 1
  37   20   40 1
  38   23   24 1
  39   23   25 1
  40   23   41 1
  41   24   25 1
  42   24   42 1
  43   24   43 1
  44   25   44 1
  45   25   45 1
  46   26   27 1
  47   26   28 1
  48   26   29 1

#	End of record

