#	Name: ASD02198162
#	Creating user name:	WinNT
#	Creation time:	15. 06. 2019 20:18

#	Modifying user name:	WinNT
#	Modification time:	15. 06. 2019 20:18

#	Program:	/corina/corina34_cracker 3.40 0067  02.08.2006

@<TRIPOS>MOLECULE
ASD02198162
  53   56    0    0    0
SMALL
NO_CHARGES


@<TRIPOS>ATOM
   1 C1            -0.5045     1.4140    -0.4439 C.2     
   2 C2            -0.4663     0.0573    -0.6896 C.2     
   3 C3            -1.5775    -0.6706    -1.2245 C.1     
   4 S4             0.9818     1.9596     0.1886 S.3     
   5 C5             1.6752     0.3472     0.1269 C.2     
   6 C6             0.7507    -0.5407    -0.3714 C.2     
   7 C7             2.9827     0.0134     0.5274 C.2     
   8 C8             3.9301     1.0793     0.9235 C.ar    
   9 O9             3.3348    -1.1538     0.5479 O.2     
  10 N10            1.0042    -1.8929    -0.5397 N.pl3   
  11 N11           -1.5934     2.2197    -0.6827 N.pl3   
  12 N12           -2.4590    -1.2480    -1.6488 N.1     
  13 C13            4.5338     1.8770    -0.0491 C.ar    
  14 C14            5.4162     2.8689     0.3268 C.ar    
  15 C15            5.7031     3.0731     1.6646 C.ar    
  16 C16            5.1077     2.2854     2.6341 C.ar    
  17 C17            4.2190     1.2944     2.2718 C.ar    
  18 C18           -1.4867     3.6057    -0.5228 C.ar    
  19 C19           -0.3546     4.2722    -0.9739 C.ar    
  20 C20           -0.2501     5.6398    -0.8157 C.ar    
  21 C21           -2.4093     5.6842     0.2395 C.ar    
  22 C22           -2.5153     4.3166     0.0821 C.ar    
  23 C23           -1.2756     6.3484    -0.2063 C.ar    
  24 C24            6.6685     4.1577     2.0679 C.3     
  25 C25            4.2232     1.6553    -1.5070 C.3     
  26 O26           -1.1719     7.6951    -0.0509 O.3     
  27 C27           -2.2285     8.3583     0.4878 C.ar    
  28 C28           -2.4348     8.3392     1.8598 C.ar    
  29 C29           -3.0997     9.0607    -0.3327 C.ar    
  30 C30           -4.1728     9.7344     0.2175 C.ar    
  31 C31           -4.3791     9.7094     1.5846 C.ar    
  32 C32           -3.5095     9.0146     2.4049 C.ar    
  33 H33            1.8710    -2.2572    -0.3013 H       
  34 H34            0.3148    -2.4749    -0.8959 H       
  35 H35           -2.4353     1.8270    -0.9619 H       
  36 H36            5.8842     3.4871    -0.4251 H       
  37 H37            5.3360     2.4495     3.6768 H       
  38 H38            3.7547     0.6805     3.0294 H       
  39 H39            0.4438     3.7207    -1.4480 H       
  40 H40            0.6303     6.1581    -1.1662 H       
  41 H41           -3.2090     6.2371     0.7098 H       
  42 H42           -3.3978     3.7998     0.4291 H       
  43 H43            6.1234     5.0875     2.2299 H       
  44 H44            7.1758     3.8687     2.9884 H       
  45 H45            7.4048     4.3012     1.2770 H       
  46 H46            3.4186     2.3240    -1.8128 H       
  47 H47            5.1124     1.8602    -2.1032 H       
  48 H48            3.9139     0.6213    -1.6594 H       
  49 H49           -1.7561     7.7964     2.5010 H       
  50 H50           -2.9388     9.0808    -1.4004 H       
  51 H51           -4.8510    10.2815    -0.4205 H       
  52 H52           -5.2187    10.2368     2.0127 H       
  53 H53           -3.6731     8.9963     3.4723 H       
@<TRIPOS>BOND
   1    1    2 2
   2    1    4 1
   3    1   11 1
   4    2    3 1
   5    2    6 1
   6    3   12 3
   7    4    5 1
   8    5    6 2
   9    5    7 1
  10    6   10 1
  11    7    8 1
  12    7    9 2
  13    8   13 ar
  14    8   17 ar
  15   10   33 1
  16   10   34 1
  17   11   18 1
  18   11   35 1
  19   13   14 ar
  20   13   25 1
  21   14   15 ar
  22   14   36 1
  23   15   16 ar
  24   15   24 1
  25   16   17 ar
  26   16   37 1
  27   17   38 1
  28   18   19 ar
  29   18   22 ar
  30   19   20 ar
  31   19   39 1
  32   20   23 ar
  33   20   40 1
  34   21   22 ar
  35   21   23 ar
  36   21   41 1
  37   22   42 1
  38   23   26 1
  39   24   43 1
  40   24   44 1
  41   24   45 1
  42   25   46 1
  43   25   47 1
  44   25   48 1
  45   26   27 1
  46   27   28 ar
  47   27   29 ar
  48   28   32 ar
  49   28   49 1
  50   29   30 ar
  51   29   50 1
  52   30   31 ar
  53   30   51 1
  54   31   32 ar
  55   31   52 1
  56   32   53 1

#	End of record

