#	Name: ASD02198145
#	Creating user name:	WinNT
#	Creation time:	15. 06. 2019 20:18

#	Modifying user name:	WinNT
#	Modification time:	15. 06. 2019 20:18

#	Program:	/corina/corina34_cracker 3.40 0067  02.08.2006

@<TRIPOS>MOLECULE
ASD02198145
  53   55    0    0    0
SMALL
NO_CHARGES


@<TRIPOS>ATOM
   1 C1             0.1020     1.2214     0.2671 C.2     
   2 C2             0.3468    -0.1049    -0.0230 C.2     
   3 C3            -0.5212    -0.8981    -0.8403 C.1     
   4 S4             1.3297     1.8636     1.2606 S.3     
   5 C5             2.1933     0.3346     1.2947 C.2     
   6 C6             1.5145    -0.6027     0.5499 C.2     
   7 C7             3.4002     0.1026     1.9812 C.2     
   8 C8             4.0340     1.1926     2.7488 C.2     
   9 O9             3.9223    -0.9992     1.9417 O.2     
  10 N10            1.9481    -1.9087     0.3875 N.pl3   
  11 N11           -0.9830     1.9315    -0.1887 N.pl3   
  12 N12           -1.2098    -1.5274    -1.4887 N.1     
  13 O13            3.5806     2.4526     2.8855 O.3     
  14 C14           -1.0802     3.3695     0.0741 C.3     
  15 C15           -0.7246     4.1453    -1.1958 C.3     
  16 N16            4.3153     3.1204     3.5750 N.2     
  17 C17            5.3467     2.4314     3.9961 C.2     
  18 C18            5.1948     1.1215     3.4669 C.2     
  19 C19            6.4515     2.9203     4.8588 C.ar    
  20 C20            6.4577     4.2397     5.3061 C.ar    
  21 C21            7.4873     4.6891     6.1080 C.ar    
  22 C22            8.5120     3.8322     6.4672 C.ar    
  23 C23            8.5107     2.5213     6.0259 C.ar    
  24 C24            7.4828     2.0598     5.2287 C.ar    
  25 C25            0.7203     3.8374    -1.5936 C.3     
  26 C26            1.0255     4.4835    -2.9465 C.3     
  27 C27            1.6715     4.3981    -0.5345 C.3     
  28 C28           -2.4873     3.7096     0.4931 C.2     
  29 O29           -2.8120     4.9785     0.7866 O.3     
  30 O30           -3.3232     2.8400     0.5647 O.2     
  31 C31           -4.1856     5.2327     1.1827 C.3     
  32 H32            2.7700    -2.2030     0.8104 H       
  33 H33            1.4298    -2.5286    -0.1492 H       
  34 H34           -1.6844     1.4806    -0.6844 H       
  35 H35           -0.3882     3.6407     0.8714 H       
  36 H36           -1.3947     3.8484    -2.0025 H       
  37 H37           -0.8305     5.2141    -1.0102 H       
  38 H38            5.8473     0.2707     3.5963 H       
  39 H39            5.6585     4.9098     5.0256 H       
  40 H40            7.4931     5.7117     6.4553 H       
  41 H41            9.3161     4.1881     7.0942 H       
  42 H42            9.3132     1.8564     6.3093 H       
  43 H43            7.4827     1.0361     4.8847 H       
  44 H44            0.8547     2.7582    -1.6678 H       
  45 H45            0.8911     5.5627    -2.8723 H       
  46 H46            2.0549     4.2642    -3.2300 H       
  47 H47            0.3479     4.0841    -3.7011 H       
  48 H48            2.7022     4.2192    -0.8406 H       
  49 H49            1.5051     5.4700    -0.4277 H       
  50 H50            1.4848     3.9046     0.4193 H       
  51 H51           -4.8569     4.9376     0.3761 H       
  52 H52           -4.4182     4.6562     2.0781 H       
  53 H53           -4.3130     6.2949     1.3912 H       
@<TRIPOS>BOND
   1    1    2 2
   2    1    4 1
   3    1   11 1
   4    2    3 1
   5    2    6 1
   6    3   12 3
   7    4    5 1
   8    5    6 2
   9    5    7 1
  10    6   10 1
  11    7    8 1
  12    7    9 2
  13    8   13 1
  14    8   18 2
  15   10   32 1
  16   10   33 1
  17   11   14 1
  18   11   34 1
  19   13   16 1
  20   14   15 1
  21   14   28 1
  22   14   35 1
  23   15   25 1
  24   15   36 1
  25   15   37 1
  26   16   17 2
  27   17   18 1
  28   17   19 1
  29   18   38 1
  30   19   20 ar
  31   19   24 ar
  32   20   21 ar
  33   20   39 1
  34   21   22 ar
  35   21   40 1
  36   22   23 ar
  37   22   41 1
  38   23   24 ar
  39   23   42 1
  40   24   43 1
  41   25   26 1
  42   25   27 1
  43   25   44 1
  44   26   45 1
  45   26   46 1
  46   26   47 1
  47   27   48 1
  48   27   49 1
  49   27   50 1
  50   28   29 1
  51   28   30 2
  52   29   31 1
  53   31   51 1
  54   31   52 1
  55   31   53 1

#	End of record

