#	Name: ASD01913911
#	Creating user name:	WinNT
#	Creation time:	15. 06. 2019 20:02

#	Modifying user name:	WinNT
#	Modification time:	15. 06. 2019 20:02

#	Program:	/corina/corina34_cracker 3.40 0067  02.08.2006

@<TRIPOS>MOLECULE
ASD01913911
  44   46    0    0    0
SMALL
NO_CHARGES


@<TRIPOS>ATOM
   1 C1            -0.0173     1.4278     0.0099 C.ar    
   2 C2             0.0021    -0.0041     0.0020 C.1     
   3 C3             0.0180    -1.1779    -0.0044 C.1     
   4 C4             0.0374    -2.6098    -0.0123 C.ar    
   5 C5            -1.1552    -3.3455    -0.0049 C.ar    
   6 C6             0.0738    -5.2913    -0.0270 C.ar    
   7 N7             1.2235    -4.6330    -0.0401 N.ar    
   8 C8             1.2495    -3.3127    -0.0335 C.ar    
   9 N9            -1.0934    -4.6646    -0.0125 N.ar    
  10 C10            1.1547     3.5252     0.0099 C.ar    
  11 C11           -1.2349     2.1133     0.0310 C.ar    
  12 C12           -0.0549     4.1972     0.0246 C.ar    
  13 C13           -1.2457     3.4924     0.0385 C.ar    
  14 N14            0.0926    -6.6792    -0.0346 N.am    
  15 C15            1.2707    -7.3203    -0.0549 C.2     
  16 N16            1.3654    -8.6582    -0.0742 N.am    
  17 C17            0.1723    -9.5061    -0.0616 C.3     
  18 C18           -0.9841    -8.7570    -0.7323 C.3     
  19 C19           -1.1735    -7.4136    -0.0141 C.3     
  20 C20            0.4562   -10.7997    -0.8277 C.3     
  21 C21           -0.2037    -9.8383     1.3838 C.3     
  22 O22            2.2932    -6.6626    -0.0564 O.2     
  23 C23            1.1812     2.1462     0.0023 C.ar    
  24 C24            2.6898    -9.2834    -0.1090 C.3     
  25 H25           -2.1103    -2.8414     0.0073 H       
  26 H26            2.1905    -2.7828    -0.0446 H       
  27 H27            2.0801     4.0818    -0.0008 H       
  28 H28           -2.1650     1.5646     0.0412 H       
  29 H29           -0.0696     5.2771     0.0309 H       
  30 H30           -2.1859     4.0236     0.0548 H       
  31 H31           -0.7482    -8.5842    -1.7823 H       
  32 H32           -1.8976    -9.3461    -0.6517 H       
  33 H33           -1.4814    -7.5916     1.0162 H       
  34 H34           -1.9375    -6.8303    -0.5280 H       
  35 H35            1.2826   -11.3290    -0.3533 H       
  36 H36           -0.4327   -11.4304    -0.8178 H       
  37 H37            0.7210   -10.5612    -1.8578 H       
  38 H38           -0.4084    -8.9159     1.9272 H       
  39 H39           -1.0922   -10.4697     1.3922 H       
  40 H40            0.6216   -10.3661     1.8618 H       
  41 H41            2.1259     1.6230    -0.0091 H       
  42 H42            3.4571    -8.5092    -0.1144 H       
  43 H43            2.8168    -9.9146     0.7705 H       
  44 H44            2.7809    -9.8916    -1.0089 H       
@<TRIPOS>BOND
   1    1    2 1
   2    1   23 ar
   3    1   11 ar
   4    2    3 3
   5    3    4 1
   6    4    5 ar
   7    4    8 ar
   8    5    9 ar
   9    5   25 1
  10    6    7 ar
  11    6   14 1
  12    6    9 ar
  13    7    8 ar
  14    8   26 1
  15   10   12 ar
  16   10   23 ar
  17   10   27 1
  18   11   13 ar
  19   11   28 1
  20   12   13 ar
  21   12   29 1
  22   13   30 1
  23   14   15 am
  24   14   19 1
  25   15   16 am
  26   15   22 2
  27   16   17 1
  28   16   24 1
  29   17   18 1
  30   17   20 1
  31   17   21 1
  32   18   19 1
  33   18   31 1
  34   18   32 1
  35   19   33 1
  36   19   34 1
  37   20   35 1
  38   20   36 1
  39   20   37 1
  40   21   38 1
  41   21   39 1
  42   21   40 1
  43   23   41 1
  44   24   42 1
  45   24   43 1
  46   24   44 1

#	End of record

