#	Name: ASD06660156
#	Creating user name:	WinNT
#	Creation time:	15. 06. 2019 21:08

#	Modifying user name:	WinNT
#	Modification time:	15. 06. 2019 21:08

#	Program:	/corina/corina34_cracker 3.40 0067  02.08.2006

@<TRIPOS>MOLECULE
ASD06660156
  74   77    0    0    0
SMALL
NO_CHARGES


@<TRIPOS>ATOM
   1 C1            -0.0184     1.5028     0.0103 C.2     
   2 C2             0.0021    -0.0041     0.0020 C.3     
   3 C3            -0.7241    -0.5171    -1.2431 C.3     
   4 O4             1.0197     2.1211     0.0037 O.2     
   5 O5            -1.1898     2.1580     0.0194 O.3     
   6 C6            -0.8113    -2.0207    -1.1900 C.ar    
   7 C7            -1.8983    -2.6278    -0.5884 C.ar    
   8 C8            -1.9814    -4.0054    -0.5380 C.ar    
   9 C9            -0.9713    -4.7813    -1.0925 C.ar    
  10 C10            0.1192    -4.1682    -1.6960 C.ar    
  11 C11            0.1932    -2.7901    -1.7480 C.ar    
  12 N12           -1.0519    -6.1748    -1.0428 N.3     
  13 C13            0.1154    -6.7927    -1.6847 C.3     
  14 C14           -0.0755    -8.3100    -1.7414 C.3     
  15 C15           -0.2456    -8.8516    -0.3193 C.3     
  16 C16           -1.4383    -8.1570     0.3437 C.3     
  17 C17           -1.2079    -6.6440     0.3399 C.3     
  18 C18           -0.4975   -10.3598    -0.3732 C.3     
  19 N19           -0.5413   -10.8966     0.9892 N.pl3   
  20 C20           -0.7597   -12.2541     1.1947 C.ar    
  21 C21           -0.9354   -13.0953     0.1035 C.ar    
  22 C22           -1.1527   -14.4495     0.3243 C.ar    
  23 C23           -1.1853   -14.9099     1.6406 C.ar    
  24 C24           -1.0026   -14.0146     2.6721 C.ar    
  25 N25           -0.7926   -12.7336     2.4293 N.ar    
  26 O26           -1.3294   -15.3039    -0.7156 O.3     
  27 C27           -1.5469   -16.6794    -0.3954 C.3     
  28 N28            1.3897    -0.4735    -0.0138 N.am    
  29 C29            2.0717    -0.5994     1.1419 C.2     
  30 C30            3.4710    -1.0728     1.1260 C.ar    
  31 C31            3.7500    -2.4378     1.2213 C.ar    
  32 C32            5.0575    -2.8741     1.2060 C.ar    
  33 C33            6.0946    -1.9604     1.0967 C.ar    
  34 C34            5.8232    -0.6040     1.0023 C.ar    
  35 C35            4.5192    -0.1574     1.0099 C.ar    
  36 O36            1.5354    -0.3233     2.1974 O.2     
  37 C37            4.2254     1.3167     0.9003 C.3     
  38 C38            2.6238    -3.4320     1.3411 C.3     
  39 F39            7.3743    -2.3933     1.0827 F       
  40 H40           -0.4983    -0.3791     0.8948 H       
  41 H41           -1.7288    -0.0959    -1.2772 H       
  42 H42           -0.1736    -0.2164    -2.1345 H       
  43 H43           -1.1523     3.1243     0.0245 H       
  44 H44           -2.6831    -2.0240    -0.1572 H       
  45 H45           -2.8305    -4.4790    -0.0677 H       
  46 H46            0.9062    -4.7685    -2.1281 H       
  47 H47            1.0385    -2.3127    -2.2213 H       
  48 H48            0.2226    -6.4021    -2.6967 H       
  49 H49            1.0115    -6.5606    -1.1092 H       
  50 H50           -0.9638    -8.5434    -2.3284 H       
  51 H51            0.7981    -8.7697    -2.2037 H       
  52 H52            0.6581    -8.6527     0.2568 H       
  53 H53           -2.3480    -8.3879    -0.2105 H       
  54 H54           -1.5385    -8.5072     1.3710 H       
  55 H55           -0.3056    -6.4127     0.9059 H       
  56 H56           -2.0619    -6.1455     0.7984 H       
  57 H57           -1.4485   -10.5517    -0.8701 H       
  58 H58            0.3065   -10.8428    -0.9284 H       
  59 H59           -0.4180   -10.3049     1.7478 H       
  60 H60           -0.9040   -12.7023    -0.9020 H       
  61 H61           -1.3524   -15.9564     1.8490 H       
  62 H62           -1.0270   -14.3661     3.6930 H       
  63 H63           -1.6726   -17.2511    -1.3149 H       
  64 H64           -0.6895   -17.0638     0.1570 H       
  65 H65           -2.4445   -16.7726     0.2160 H       
  66 H66            1.8177    -0.6938    -0.8559 H       
  67 H67            5.2744    -3.9295     1.2796 H       
  68 H68            6.6348     0.1036     0.9180 H       
  69 H69            4.1946     1.7561     1.8973 H       
  70 H70            5.0068     1.8003     0.3141 H       
  71 H71            3.2624     1.4598     0.4103 H       
  72 H72            2.3135    -3.7511     0.3461 H       
  73 H73            2.9621    -4.2972     1.9111 H       
  74 H74            1.7813    -2.9666     1.8527 H       
@<TRIPOS>BOND
   1    1    2 1
   2    1    4 2
   3    1    5 1
   4    2    3 1
   5    2   28 1
   6    2   40 1
   7    3    6 1
   8    3   41 1
   9    3   42 1
  10    5   43 1
  11    6    7 ar
  12    6   11 ar
  13    7    8 ar
  14    7   44 1
  15    8    9 ar
  16    8   45 1
  17    9   10 ar
  18    9   12 1
  19   10   11 ar
  20   10   46 1
  21   11   47 1
  22   12   13 1
  23   12   17 1
  24   13   14 1
  25   13   48 1
  26   13   49 1
  27   14   15 1
  28   14   50 1
  29   14   51 1
  30   15   16 1
  31   15   18 1
  32   15   52 1
  33   16   17 1
  34   16   53 1
  35   16   54 1
  36   17   55 1
  37   17   56 1
  38   18   19 1
  39   18   57 1
  40   18   58 1
  41   19   20 1
  42   19   59 1
  43   20   21 ar
  44   20   25 ar
  45   21   22 ar
  46   21   60 1
  47   22   23 ar
  48   22   26 1
  49   23   24 ar
  50   23   61 1
  51   24   25 ar
  52   24   62 1
  53   26   27 1
  54   27   63 1
  55   27   64 1
  56   27   65 1
  57   28   29 am
  58   28   66 1
  59   29   30 1
  60   29   36 2
  61   30   31 ar
  62   30   35 ar
  63   31   32 ar
  64   31   38 1
  65   32   33 ar
  66   32   67 1
  67   33   34 ar
  68   33   39 1
  69   34   35 ar
  70   34   68 1
  71   35   37 1
  72   37   69 1
  73   37   70 1
  74   37   71 1
  75   38   72 1
  76   38   73 1
  77   38   74 1

#	End of record

