#	Name: ASD03091724
#	Creating user name:	WinNT
#	Creation time:	15. 06. 2019 20:31

#	Modifying user name:	WinNT
#	Modification time:	15. 06. 2019 20:31

#	Program:	/corina/corina34_cracker 3.40 0067  02.08.2006

@<TRIPOS>MOLECULE
ASD03091724
  36   39    0    0    0
SMALL
NO_CHARGES


@<TRIPOS>ATOM
   1 C1            -0.0188     1.5354     0.0105 C.3     
   2 C2             0.0021    -0.0041     0.0020 C.3     
   3 N3             0.0279    -0.4602     1.4021 N.3     
   4 C4             0.0781     0.7235     2.2834 C.3     
   5 C5            -0.5170     1.8802     1.4507 C.3     
   6 C6             0.2659     3.1734     1.7649 C.3     
   7 N7             1.5706     3.0168     1.1019 N.am    
   8 C8             1.4290     2.0576    -0.0005 C.3     
   9 C9             2.7084     3.6502     1.4495 C.2     
  10 O10            2.7100     4.4286     2.3848 O.2     
  11 C11            3.9447     3.4011     0.7003 C.2     
  12 C12            5.1574     3.9738     0.9476 C.2     
  13 O13            4.0780     2.5622    -0.3474 O.3     
  14 C14            5.3442     2.5850    -0.7838 C.2     
  15 C15            6.0551     3.4499    -0.0088 C.2     
  16 C16            7.4983     3.7788    -0.1430 C.2     
  17 C17            8.2163     4.6381     0.6228 C.2     
  18 O18            9.4816     4.6506     0.1759 O.3     
  19 C19            9.6240     3.8209    -0.8685 C.2     
  20 C20            8.4413     3.2364    -1.1264 C.2     
  21 H21           -0.6324     1.9593    -0.7844 H       
  22 H22           -0.8919    -0.3828    -0.4934 H       
  23 H23            0.8918    -0.3585    -0.5184 H       
  24 H24           -0.7764    -1.0325     1.6108 H       
  25 H25           -0.5221     0.5543     3.1774 H       
  26 H26            1.1093     0.9470     2.5570 H       
  27 H27           -1.5995     1.9734     1.5378 H       
  28 H28           -0.2598     4.0393     1.3624 H       
  29 H29            0.4006     3.2803     2.8412 H       
  30 H30            2.1216     1.2279     0.1411 H       
  31 H31            1.6353     2.5530    -0.9493 H       
  32 H32            5.3867     4.6892     1.7235 H       
  33 H33            5.7364     2.0110    -1.6104 H       
  34 H34            7.8341     5.2148     1.4521 H       
  35 H35           10.5413     3.6473    -1.4115 H       
  36 H36            8.2275     2.5182    -1.9041 H       
@<TRIPOS>BOND
   1    1    2 1
   2    1    8 1
   3    1    5 1
   4    1   21 1
   5    2    3 1
   6    2   22 1
   7    2   23 1
   8    3    4 1
   9    3   24 1
  10    4    5 1
  11    4   25 1
  12    4   26 1
  13    5    6 1
  14    5   27 1
  15    6    7 1
  16    6   28 1
  17    6   29 1
  18    7    8 1
  19    7    9 am
  20    8   30 1
  21    8   31 1
  22    9   10 2
  23    9   11 1
  24   11   12 2
  25   11   13 1
  26   12   15 1
  27   12   32 1
  28   13   14 1
  29   14   15 2
  30   14   33 1
  31   15   16 1
  32   16   17 2
  33   16   20 1
  34   17   18 1
  35   17   34 1
  36   18   19 1
  37   19   20 2
  38   19   35 1
  39   20   36 1

#	End of record

