#	Name: ASD04882076
#	Creating user name:	WinNT
#	Creation time:	15. 06. 2019 20:54

#	Modifying user name:	WinNT
#	Modification time:	15. 06. 2019 20:54

#	Program:	/corina/corina34_cracker 3.40 0067  02.08.2006

@<TRIPOS>MOLECULE
ASD04882076
  79   83    0    0    0
SMALL
NO_CHARGES


@<TRIPOS>ATOM
   1 C1             3.0097     0.8497    -1.1170 C.ar    
   2 C2             3.1643    -0.5222    -1.0925 C.ar    
   3 C3             2.1119    -1.3452    -1.4737 C.ar    
   4 C4             0.9073    -0.7845    -1.8782 C.ar    
   5 C5             0.7594     0.5886    -1.9003 C.ar    
   6 C6             1.8088     1.4047    -1.5204 C.ar    
   7 C7            -0.2368    -1.6733    -2.2930 C.3     
   8 N8             2.2651    -2.7333    -1.4505 N.3     
   9 C9             1.3989    -3.3418    -0.4312 C.3     
  10 C10            3.6703    -3.1046    -1.2332 C.3     
  11 C11            3.8080    -4.6277    -1.2937 C.3     
  12 N12            2.9418    -5.2362    -0.2744 N.3     
  13 C13            1.5366    -4.8649    -0.4918 C.3     
  14 C14            3.0945    -6.6201    -0.2514 C.ar    
  15 C15            2.8137    -7.3683    -1.3884 C.ar    
  16 C16            3.5355    -7.2544     0.9138 C.ar    
  17 C17            3.6869    -8.6276     0.9364 C.ar    
  18 C18            3.3983    -9.3785    -0.2070 C.ar    
  19 C19            2.9634    -8.7376    -1.3700 C.ar    
  20 N20            3.8241    -6.4983     2.0575 N.am    
  21 C21            3.5956    -7.0139     3.2816 C.2     
  22 C22            3.8043    -6.1883     4.4756 C.2     
  23 O23            3.2162    -8.1646     3.3961 O.2     
  24 C24            3.6040    -6.5750     5.7606 C.2     
  25 N25            3.8639    -5.6469     6.6469 N.2     
  26 C26            4.2704    -4.5000     6.2057 C.2     
  27 S27            4.3672    -4.5187     4.4990 S.3     
  28 C28            3.5585   -10.8450    -0.1876 C.2     
  29 O29            3.9418   -11.4013     0.8234 O.2     
  30 N30            3.2801   -11.5680    -1.2904 N.am    
  31 C31            3.4392   -13.0242    -1.2712 C.3     
  32 C32            3.0600   -13.5968    -2.6383 C.3     
  33 C33            3.2262   -15.1176    -2.6182 C.3     
  34 N34            2.8631   -15.6659    -3.9273 N.am    
  35 C35            3.8057   -15.8553    -5.0361 C.3     
  36 C36            2.9298   -16.0266    -6.2970 C.3     
  37 C37            1.6106   -16.5626    -5.6941 C.3     
  38 C38            1.6249   -16.0655    -4.2653 C.2     
  39 O39            0.6584   -16.0263    -3.5337 O.2     
  40 C40            4.6152    -3.3175     7.0739 C.3     
  41 C41            3.1241    -7.9535     6.1354 C.3     
  42 F42            4.0888    -8.8986     5.7699 F       
  43 F43            2.9120    -8.0139     7.5169 F       
  44 F44            1.9260    -8.2278     5.4672 F       
  45 H45            3.8259     1.4900    -0.8165 H       
  46 H46            4.1025    -0.9550    -0.7777 H       
  47 H47           -0.1770     1.0252    -2.2148 H       
  48 H48            1.6904     2.4781    -1.5383 H       
  49 H49           -0.8112    -1.9609    -1.4124 H       
  50 H50           -0.8817    -1.1350    -2.9876 H       
  51 H51            0.1549    -2.5669    -2.7790 H       
  52 H52            1.6960    -2.9888     0.5563 H       
  53 H53            0.3625    -3.0626    -0.6209 H       
  54 H54            4.2899    -2.6524    -2.0076 H       
  55 H55            3.9932    -2.7489    -0.2548 H       
  56 H56            3.5109    -4.9807    -2.2813 H       
  57 H57            4.8444    -4.9070    -1.1040 H       
  58 H58            0.9170    -5.3172     0.2826 H       
  59 H59            1.2136    -5.2206    -1.4702 H       
  60 H60            2.4771    -6.8751    -2.2883 H       
  61 H61            4.0278    -9.1198     1.8353 H       
  62 H62            2.7398    -9.3167    -2.2538 H       
  63 H63            4.1882    -5.6037     1.9682 H       
  64 H64            2.9743   -11.1241    -2.0969 H       
  65 H65            4.4766   -13.2734    -1.0479 H       
  66 H66            2.7903   -13.4504    -0.5060 H       
  67 H67            2.0226   -13.3476    -2.8616 H       
  68 H68            3.7088   -13.1705    -3.4034 H       
  69 H69            4.2635   -15.3668    -2.3949 H       
  70 H70            2.5773   -15.5439    -1.8531 H       
  71 H71            4.4478   -14.9805    -5.1389 H       
  72 H72            4.4078   -16.7487    -4.8709 H       
  73 H73            2.7708   -15.0698    -6.7945 H       
  74 H74            3.3690   -16.7522    -6.9815 H       
  75 H75            0.7533   -16.1591    -6.2328 H       
  76 H76            1.5969   -17.6523    -5.7147 H       
  77 H77            5.6720    -3.3565     7.3379 H       
  78 H78            4.4104    -2.3954     6.5300 H       
  79 H79            4.0126    -3.3453     7.9818 H       
@<TRIPOS>BOND
   1    1    2 ar
   2    1    6 ar
   3    1   45 1
   4    2    3 ar
   5    2   46 1
   6    3    4 ar
   7    3    8 1
   8    4    5 ar
   9    4    7 1
  10    5    6 ar
  11    5   47 1
  12    6   48 1
  13    7   49 1
  14    7   50 1
  15    7   51 1
  16    8    9 1
  17    8   10 1
  18    9   13 1
  19    9   52 1
  20    9   53 1
  21   10   11 1
  22   10   54 1
  23   10   55 1
  24   11   12 1
  25   11   56 1
  26   11   57 1
  27   12   13 1
  28   12   14 1
  29   13   58 1
  30   13   59 1
  31   14   15 ar
  32   14   16 ar
  33   15   19 ar
  34   15   60 1
  35   16   17 ar
  36   16   20 1
  37   17   18 ar
  38   17   61 1
  39   18   19 ar
  40   18   28 1
  41   19   62 1
  42   20   21 am
  43   20   63 1
  44   21   22 1
  45   21   23 2
  46   22   24 2
  47   22   27 1
  48   24   25 1
  49   24   41 1
  50   25   26 2
  51   26   27 1
  52   26   40 1
  53   28   29 2
  54   28   30 am
  55   30   31 1
  56   30   64 1
  57   31   32 1
  58   31   65 1
  59   31   66 1
  60   32   33 1
  61   32   67 1
  62   32   68 1
  63   33   34 1
  64   33   69 1
  65   33   70 1
  66   34   35 1
  67   34   38 am
  68   35   36 1
  69   35   71 1
  70   35   72 1
  71   36   37 1
  72   36   73 1
  73   36   74 1
  74   37   38 1
  75   37   75 1
  76   37   76 1
  77   38   39 2
  78   40   77 1
  79   40   78 1
  80   40   79 1
  81   41   42 1
  82   41   43 1
  83   41   44 1

#	End of record

