#	Name: ASD01820036
#	Creating user name:	WinNT
#	Creation time:	15. 06. 2019 19:36

#	Modifying user name:	WinNT
#	Modification time:	15. 06. 2019 19:36

#	Program:	/corina/corina34_cracker 3.40 0067  02.08.2006

@<TRIPOS>MOLECULE
ASD01820036
  38   39    0    0    0
SMALL
NO_CHARGES


@<TRIPOS>ATOM
   1 C1            -0.0167     1.3794     0.0096 C.ar    
   2 C2             0.0021    -0.0041     0.0020 C.ar    
   3 C3            -1.1852    -0.7117     0.0100 C.ar    
   4 C4            -2.3919    -0.0378     0.0252 C.ar    
   5 C5            -2.4120     1.3457     0.0324 C.ar    
   6 C6            -1.2240     2.0543     0.0306 C.ar    
   7 C7            -1.2451     3.5612     0.0388 C.3     
   8 O8            -1.2453     4.0301     1.3887 O.3     
   9 Cl9            1.4747     2.2679     0.0002 Cl      
  10 Cl10          -3.9277     2.1919     0.0502 Cl      
  11 N11           -1.2646     5.4409     1.5083 N.2     
  12 C12           -1.2668     5.9905     2.6784 C.2     
  13 C13           -1.2869     7.4624     2.8032 C.ar    
  14 C14           -1.2897     8.0780     4.0604 C.ar    
  15 C15           -1.3087     9.4559     4.1303 C.ar    
  16 N16           -1.3242    10.1897     3.0343 N.ar    
  17 C17           -1.3227     9.6506     1.8305 C.ar    
  18 C18           -1.2979     8.2806     1.6675 C.ar    
  19 C19           -1.3441    11.6494     3.1580 C.3     
  20 C20            0.0912    12.1778     3.1943 C.3     
  21 C21            0.0704    13.7022     3.3235 C.3     
  22 H22            0.9446    -0.5312    -0.0105 H       
  23 H23           -1.1701    -1.7915     0.0041 H       
  24 H24           -3.3194    -0.5912     0.0311 H       
  25 H25           -0.3627     3.9397    -0.4771 H       
  26 H26           -2.1425     3.9148    -0.4688 H       
  27 H27           -1.2540     5.3736     3.5648 H       
  28 H28           -1.2774     7.4834     4.9619 H       
  29 H29           -1.3114     9.9403     5.0956 H       
  30 H30           -1.3365    10.2904     0.9604 H       
  31 H31           -1.2967     7.8461     0.6788 H       
  32 H32           -1.8681    12.0792     2.3043 H       
  33 H33           -1.8576    11.9291     4.0779 H       
  34 H34            0.6152    11.7479     4.0480 H       
  35 H35            0.6047    11.8981     2.2744 H       
  36 H36           -0.4535    14.1321     2.4698 H       
  37 H37           -0.4431    13.9819     4.2434 H       
  38 H38            1.0930    14.0787     3.3494 H       
@<TRIPOS>BOND
   1    1    2 ar
   2    1    9 1
   3    1    6 ar
   4    2    3 ar
   5    2   22 1
   6    3    4 ar
   7    3   23 1
   8    4    5 ar
   9    4   24 1
  10    5    6 ar
  11    5   10 1
  12    6    7 1
  13    7    8 1
  14    7   25 1
  15    7   26 1
  16    8   11 1
  17   11   12 2
  18   12   13 1
  19   12   27 1
  20   13   14 ar
  21   13   18 ar
  22   14   15 ar
  23   14   28 1
  24   15   16 ar
  25   15   29 1
  26   16   17 ar
  27   16   19 1
  28   17   18 ar
  29   17   30 1
  30   18   31 1
  31   19   20 1
  32   19   32 1
  33   19   33 1
  34   20   21 1
  35   20   34 1
  36   20   35 1
  37   21   36 1
  38   21   37 1
  39   21   38 1

#	End of record

