#	Name: ASD01881658
#	Creating user name:	WinNT
#	Creation time:	15. 06. 2019 19:43

#	Modifying user name:	WinNT
#	Modification time:	15. 06. 2019 19:43

#	Program:	/corina/corina34_cracker 3.40 0067  02.08.2006

@<TRIPOS>MOLECULE
ASD01881658
  57   61    0    0    0
SMALL
NO_CHARGES


@<TRIPOS>ATOM
   1 C1             2.7146     0.4418     2.6285 C.ar    
   2 C2             2.3802    -0.8566     2.2930 C.ar    
   3 C3             4.0385     0.7840     2.8430 C.ar    
   4 C4             5.0321    -0.1734     2.7217 C.ar    
   5 C5             4.7028    -1.4734     2.3858 C.ar    
   6 C6             3.3727    -1.8186     2.1709 C.ar    
   7 F7             4.3622     2.0540     3.1709 F       
   8 F8             5.6717    -2.4073     2.2665 F       
   9 N9             3.0359    -3.1342     1.8311 N.3     
  10 C10            2.1308    -3.7200     2.8282 C.3     
  11 C11            1.9008    -5.1979     2.5043 C.3     
  12 C12            1.2949    -5.3202     1.1034 C.3     
  13 C13            2.2341    -4.6598     0.0903 C.3     
  14 C14            2.4544    -3.1975     0.4841 C.3     
  15 N15            1.1260    -6.7393     0.7638 N.3     
  16 C16            0.0621    -6.9190    -0.2332 C.3     
  17 C17           -0.0817    -8.3840    -0.5559 C.2     
  18 C18            0.7424    -8.9764    -1.5282 C.2     
  19 C19            0.6177   -10.2879    -1.8210 C.2     
  20 N20           -0.3083   -11.0558    -1.1785 N.pl3   
  21 C21           -1.1277   -10.5052    -0.2237 C.2     
  22 C22           -1.0057    -9.1393     0.0967 C.2     
  23 C23           -1.8921    -8.5205     1.1466 C.3     
  24 C24           -0.6579   -12.3684    -1.2571 C.2     
  25 N25           -1.6239   -12.5704    -0.3986 N.2     
  26 N26           -1.9095   -11.4772     0.2171 N.2     
  27 F27           -2.9174    -7.7994     0.5253 F       
  28 F28           -2.4470    -9.5290     1.9418 F       
  29 F29           -1.1350    -7.6588     1.9474 F       
  30 C30           -0.0444   -13.4009    -2.1673 C.3     
  31 C31            1.1347   -14.0700    -1.4581 C.3     
  32 C32            1.8215   -15.2345    -2.1744 C.3     
  33 C33            2.5254   -13.8802    -2.0671 C.3     
  34 H34            1.9424     1.1914     2.7190 H       
  35 H35            1.3468    -1.1224     2.1262 H       
  36 H36            6.0645     0.0959     2.8891 H       
  37 H37            2.5754    -3.6303     3.8193 H       
  38 H38            1.1778    -3.1913     2.8086 H       
  39 H39            2.8516    -5.7299     2.5373 H       
  40 H40            1.2167    -5.6285     3.2356 H       
  41 H41            0.3260    -4.8214     1.0809 H       
  42 H42            3.1901    -5.1833     0.0853 H       
  43 H43            1.7880    -4.7059    -0.9032 H       
  44 H44            1.4999    -2.6712     0.4755 H       
  45 H45            3.1340    -2.7282    -0.2272 H       
  46 H46            1.9944    -7.1400     0.4421 H       
  47 H47           -0.8786    -6.5411     0.1672 H       
  48 H48            0.3175    -6.3706    -1.1399 H       
  49 H49            1.4792    -8.3786    -2.0441 H       
  50 H50            1.2559   -10.7326    -2.5702 H       
  51 H51           -0.7917   -14.1536    -2.4188 H       
  52 H52            0.3066   -12.9185    -3.0796 H       
  53 H53            1.0632   -14.1193    -0.3716 H       
  54 H54            2.2022   -16.0497    -1.5592 H       
  55 H55            1.4334   -15.5239    -3.1510 H       
  56 H56            2.6003   -13.2788    -2.9730 H       
  57 H57            3.3691   -13.8045    -1.3812 H       
@<TRIPOS>BOND
   1    1    2 ar
   2    1    3 ar
   3    1   34 1
   4    2    6 ar
   5    2   35 1
   6    3    4 ar
   7    3    7 1
   8    4    5 ar
   9    4   36 1
  10    5    6 ar
  11    5    8 1
  12    6    9 1
  13    9   10 1
  14    9   14 1
  15   10   11 1
  16   10   37 1
  17   10   38 1
  18   11   12 1
  19   11   39 1
  20   11   40 1
  21   12   13 1
  22   12   15 1
  23   12   41 1
  24   13   14 1
  25   13   42 1
  26   13   43 1
  27   14   44 1
  28   14   45 1
  29   15   16 1
  30   15   46 1
  31   16   17 1
  32   16   47 1
  33   16   48 1
  34   17   18 1
  35   17   22 2
  36   18   19 2
  37   18   49 1
  38   19   20 1
  39   19   50 1
  40   20   24 1
  41   20   21 1
  42   21   22 1
  43   21   26 2
  44   22   23 1
  45   23   27 1
  46   23   28 1
  47   23   29 1
  48   24   25 2
  49   24   30 1
  50   25   26 1
  51   30   31 1
  52   30   51 1
  53   30   52 1
  54   31   32 1
  55   31   33 1
  56   31   53 1
  57   32   33 1
  58   32   54 1
  59   32   55 1
  60   33   56 1
  61   33   57 1

#	End of record

