#	Name: ASD05380078
#	Creating user name:	WinNT
#	Creation time:	15. 06. 2019 20:59

#	Modifying user name:	WinNT
#	Modification time:	15. 06. 2019 20:59

#	Program:	/corina/corina34_cracker 3.40 0067  02.08.2006

@<TRIPOS>MOLECULE
ASD05380078
  65   70    0    0    0
SMALL
NO_CHARGES


@<TRIPOS>ATOM
   1 C1            -0.2705     1.7436    -0.3083 C.ar    
   2 C2            -0.0037     0.3804    -0.5671 C.ar    
   3 C3             0.6310     2.7219    -0.7219 C.ar    
   4 C4             1.7811     2.3494    -1.3833 C.ar    
   5 C5             2.0461     1.0108    -1.6397 C.ar    
   6 C6             1.1686     0.0283    -1.2385 C.ar    
   7 N7            -0.8956    -0.5547    -0.1547 N.2     
   8 C8            -1.9853    -0.2271     0.4705 C.2     
   9 N9            -2.3226     1.0585     0.7616 N.am    
  10 C10           -1.5101     2.0810     0.4064 C.2     
  11 C11           -3.5187     1.3257     1.4396 C.ar    
  12 C12           -4.6881     1.5512     0.7252 C.ar    
  13 C13           -3.5389     1.3601     2.8275 C.ar    
  14 C14           -4.7202     1.6235     3.4932 C.ar    
  15 C15           -5.8817     1.8527     2.7790 C.ar    
  16 C16           -5.8659     1.8139     1.3966 C.ar    
  17 C17           -2.9246    -1.3265     0.8948 C.3     
  18 N18           -2.9250    -2.3860    -0.1169 N.pl3   
  19 C19           -4.0232    -3.2180    -0.2472 C.ar    
  20 N20           -5.0857    -3.0695     0.5373 N.ar    
  21 O21           -1.7991     3.2358     0.6604 O.2     
  22 C22           -4.0433    -4.2356    -1.2159 C.ar    
  23 C23           -5.1863    -5.0486    -1.3005 C.ar    
  24 N24           -6.1988    -4.8279    -0.4685 N.ar    
  25 C25           -6.1379    -3.8586     0.4202 C.ar    
  26 N26           -3.1757    -4.6668    -2.1628 N.2     
  27 C27           -3.7006    -5.6681    -2.8074 C.2     
  28 N28           -4.9409    -5.9420    -2.3124 N.pl3   
  29 C29            0.3503     4.1771    -0.4483 C.3     
  30 C30           -2.4637    -1.9018     2.2356 C.3     
  31 C31           -4.7431     1.6606     4.9996 C.3     
  32 N32           -4.4649     3.0275     5.4601 N.3     
  33 C33           -4.7106     3.1574     6.9037 C.3     
  34 C34           -4.3521     4.5769     7.3512 C.3     
  35 O35           -5.1097     5.5182     6.5862 O.3     
  36 C36           -4.8942     5.4202     5.1758 C.3     
  37 C37           -5.2582     4.0092     4.7062 C.3     
  38 H38            2.4821     3.1052    -1.7053 H       
  39 H39            2.9520     0.7368    -2.1600 H       
  40 H40            1.3859    -1.0096    -1.4430 H       
  41 H41           -4.6764     1.5214    -0.3543 H       
  42 H42           -2.6320     1.1808     3.3859 H       
  43 H43           -6.8041     2.0581     3.3018 H       
  44 H44           -6.7748     1.9934     0.8415 H       
  45 H45           -3.9320    -0.9236     0.9994 H       
  46 H46           -2.1555    -2.5044    -0.6955 H       
  47 H47           -6.9799    -3.7032     1.0784 H       
  48 H48           -3.2239    -6.2033    -3.6153 H       
  49 H49           -5.5398    -6.6407    -2.6189 H       
  50 H50            0.6700     4.4247     0.5639 H       
  51 H51            0.8964     4.7930    -1.1627 H       
  52 H52           -0.7186     4.3659    -0.5482 H       
  53 H53           -1.4446    -2.2762     2.1393 H       
  54 H54           -2.4937    -1.1210     2.9955 H       
  55 H55           -3.1246    -2.7181     2.5271 H       
  56 H56           -5.7254     1.3501     5.3558 H       
  57 H57           -3.9840     0.9836     5.3913 H       
  58 H58           -5.7629     2.9648     7.1126 H       
  59 H59           -4.0942     2.4389     7.4439 H       
  60 H60           -4.5864     4.6951     8.4092 H       
  61 H61           -3.2879     4.7509     7.1919 H       
  62 H62           -5.5206     6.1482     4.6604 H       
  63 H63           -3.8458     5.6187     4.9532 H       
  64 H64           -5.0415     3.9124     3.6424 H       
  65 H65           -6.3193     3.8302     4.8800 H       
@<TRIPOS>BOND
   1    1    2 ar
   2    1    3 ar
   3    1   10 1
   4    2    7 1
   5    2    6 ar
   6    3    4 ar
   7    3   29 1
   8    4    5 ar
   9    4   38 1
  10    5    6 ar
  11    5   39 1
  12    6   40 1
  13    7    8 2
  14    8    9 1
  15    8   17 1
  16    9   10 am
  17    9   11 1
  18   10   21 2
  19   11   12 ar
  20   11   13 ar
  21   12   16 ar
  22   12   41 1
  23   13   14 ar
  24   13   42 1
  25   14   15 ar
  26   14   31 1
  27   15   16 ar
  28   15   43 1
  29   16   44 1
  30   17   18 1
  31   17   30 1
  32   17   45 1
  33   18   19 1
  34   18   46 1
  35   19   20 ar
  36   19   22 ar
  37   20   25 ar
  38   22   23 ar
  39   22   26 1
  40   23   24 ar
  41   23   28 1
  42   24   25 ar
  43   25   47 1
  44   26   27 2
  45   27   28 1
  46   27   48 1
  47   28   49 1
  48   29   50 1
  49   29   51 1
  50   29   52 1
  51   30   53 1
  52   30   54 1
  53   30   55 1
  54   31   32 1
  55   31   56 1
  56   31   57 1
  57   32   33 1
  58   32   37 1
  59   33   34 1
  60   33   58 1
  61   33   59 1
  62   34   35 1
  63   34   60 1
  64   34   61 1
  65   35   36 1
  66   36   37 1
  67   36   62 1
  68   36   63 1
  69   37   64 1
  70   37   65 1

#	End of record

