#	Name: ASD01916021
#	Creating user name:	WinNT
#	Creation time:	15. 06. 2019 20:06

#	Modifying user name:	WinNT
#	Modification time:	15. 06. 2019 20:06

#	Program:	/corina/corina34_cracker 3.40 0067  02.08.2006

@<TRIPOS>MOLECULE
ASD01916021
  47   49    0    0    0
SMALL
NO_CHARGES


@<TRIPOS>ATOM
   1 C1            -0.0283     1.4086    -0.1672 C.ar    
   2 C2            -0.0015     0.0146    -0.0170 C.ar    
   3 C3            -1.2041    -0.6612     0.0488 C.ar    
   4 C4            -2.3964     0.0594    -0.0357 C.ar    
   5 C5            -3.6884    -0.6572     0.0344 C.2     
   6 N6            -4.8381     0.0363     0.1509 N.am    
   7 O7            -3.7132    -1.8715    -0.0130 O.2     
   8 C8             1.1917     2.1548    -0.2404 C.1     
   9 C9             2.1918     2.7667    -0.3005 C.1     
  10 C10            3.4118     3.5130    -0.3737 C.ar    
  11 C11            3.3767     4.9025    -0.5235 C.ar    
  12 C12            5.8136     3.5798    -0.3610 C.ar    
  13 C13            4.5546     5.6151    -0.5934 C.ar    
  14 N14           -2.3867     1.3806    -0.1780 N.ar    
  15 C15           -1.2664     2.0601    -0.2506 C.ar    
  16 C16            4.6428     2.8557    -0.2898 C.ar    
  17 C17            5.7722     4.9568    -0.5159 C.ar    
  18 C18           -4.8172     1.4876     0.3792 C.3     
  19 C19           -5.6637     1.8044     1.6160 C.3     
  20 C20           -7.0651     1.2169     1.4343 C.3     
  21 C21           -6.9680    -0.3038     1.2920 C.3     
  22 C22           -6.1364    -0.6437     0.0459 C.3     
  23 O23           -7.8673     1.5383     2.5723 O.3     
  24 C24           -6.2958    -0.8911     2.5346 C.3     
  25 C25           -8.3720    -0.8934     1.1433 C.3     
  26 F26            6.9231     5.6609    -0.5845 F       
  27 H27            0.9364    -0.5173     0.0454 H       
  28 H28           -1.2218    -1.7349     0.1640 H       
  29 H29            2.4288     5.4164    -0.5847 H       
  30 H30            6.7653     3.0726    -0.3012 H       
  31 H31            4.5288     6.6886    -0.7091 H       
  32 H32           -1.2988     3.1335    -0.3658 H       
  33 H33            4.6764     1.7830    -0.1692 H       
  34 H34           -3.7913     1.8167     0.5444 H       
  35 H35           -5.2323     2.0000    -0.4887 H       
  36 H36           -5.1971     1.3661     2.4982 H       
  37 H37           -5.7355     2.8849     1.7407 H       
  38 H38           -7.5216     1.6370     0.5381 H       
  39 H39           -6.6612    -0.3048    -0.8473 H       
  40 H40           -5.9800    -1.7211    -0.0064 H       
  41 H41           -7.9732     2.4875     2.7235 H       
  42 H42           -6.8864    -0.6460     3.4174 H       
  43 H43           -6.2269    -1.9742     2.4329 H       
  44 H44           -5.2952    -0.4716     2.6390 H       
  45 H45           -8.8496    -0.4756     0.2570 H       
  46 H46           -8.3024    -1.9765     1.0420 H       
  47 H47           -8.9643    -0.6483     2.0249 H       
@<TRIPOS>BOND
   1    1    2 ar
   2    1    8 1
   3    1   15 ar
   4    2    3 ar
   5    2   27 1
   6    3    4 ar
   7    3   28 1
   8    4   14 ar
   9    4    5 1
  10    5    6 am
  11    5    7 2
  12    6   18 1
  13    6   22 1
  14    8    9 3
  15    9   10 1
  16   10   11 ar
  17   10   16 ar
  18   11   13 ar
  19   11   29 1
  20   12   17 ar
  21   12   16 ar
  22   12   30 1
  23   13   17 ar
  24   13   31 1
  25   14   15 ar
  26   15   32 1
  27   16   33 1
  28   17   26 1
  29   18   19 1
  30   18   34 1
  31   18   35 1
  32   19   20 1
  33   19   36 1
  34   19   37 1
  35   20   21 1
  36   20   23 1
  37   20   38 1
  38   21   22 1
  39   21   24 1
  40   21   25 1
  41   22   39 1
  42   22   40 1
  43   23   41 1
  44   24   42 1
  45   24   43 1
  46   24   44 1
  47   25   45 1
  48   25   46 1
  49   25   47 1

#	End of record

