#	Name: ASD08170077
#	Creating user name:	WinNT
#	Creation time:	15. 06. 2019 21:17

#	Modifying user name:	WinNT
#	Modification time:	15. 06. 2019 21:17

#	Program:	/corina/corina34_cracker 3.40 0067  02.08.2006

@<TRIPOS>MOLECULE
ASD08170077
  67   70    0    0    0
SMALL
NO_CHARGES


@<TRIPOS>ATOM
   1 N1            -0.0150     1.2583     0.0090 N.2     
   2 N2             0.0021    -0.0041     0.0020 N.2     
   3 C3             1.1271     1.8769     0.0014 C.2     
   4 S4             2.3826     0.7116    -0.0169 S.3     
   5 C5             1.1681    -0.5677    -0.0121 C.2     
   6 C6             1.4387    -2.0502    -0.0227 C.3     
   7 C7             1.5165    -2.5442    -1.4687 C.3     
   8 C8             2.1699    -6.2152    -3.4347 C.3     
   9 C9             2.2167    -6.5408    -4.9053 C.2     
  10 N10            3.2694    -6.5184    -5.6596 N.2     
  11 S11            0.8491    -7.0282    -5.9071 S.3     
  12 C12            1.9000    -7.1354    -7.2557 C.2     
  13 N13            3.1017    -6.8250    -6.8728 N.2     
  14 N14            1.5289    -7.4992    -8.5457 N.am    
  15 C15            2.4537    -7.5464    -9.5250 C.2     
  16 O16            3.6096    -7.2716    -9.2812 O.2     
  17 C17            2.0516    -7.9407   -10.9228 C.3     
  18 N18            1.3017     3.2566     0.0067 N.am    
  19 C19            0.2284     4.0717     0.0214 C.2     
  20 C20            0.4176     5.5667     0.0272 C.3     
  21 O21           -0.8897     3.6019     0.0299 O.2     
  22 C22            1.8986    -4.7206    -3.2516 C.3     
  23 C23            3.2807    -7.9145   -11.8336 C.3     
  24 S24            1.8422    -4.3286    -1.4814 S.3     
  25 C25           -0.9494     6.2538     0.0441 C.3     
  26 O26            3.7640    -6.5742   -11.9431 O.3     
  27 O27           -1.6426     5.9651    -1.1717 O.3     
  28 C28           -0.7614     7.7434     0.1737 C.ar    
  29 C29            2.9042    -8.4260   -13.2002 C.ar    
  30 C30            3.1047    -9.7558   -13.5200 C.ar    
  31 C31            2.7594   -10.2249   -14.7736 C.ar    
  32 C32            2.2131    -9.3643   -15.7073 C.ar    
  33 C33            2.0117    -8.0347   -15.3872 C.ar    
  34 C34            2.3530    -7.5665   -14.1321 C.ar    
  35 C35           -0.8136     8.3408     1.4191 C.ar    
  36 C36           -0.5310     8.5115    -0.9523 C.ar    
  37 C37           -0.3585     9.8779    -0.8334 C.ar    
  38 C38           -0.4169    10.4762     0.4113 C.ar    
  39 C39           -0.6412     9.7072     1.5380 C.ar    
  40 H40            2.3843    -2.2506     0.4811 H       
  41 H41            0.6334    -2.5702     0.4961 H       
  42 H42            0.5709    -2.3438    -1.9724 H       
  43 H43            2.3218    -2.0242    -1.9874 H       
  44 H44            1.3741    -6.7896    -2.9605 H       
  45 H45            3.1250    -6.4700    -2.9755 H       
  46 H46            0.6045    -7.7190    -8.7407 H       
  47 H47            1.6303    -8.9459   -10.9098 H       
  48 H48            1.3064    -7.2392   -11.2980 H       
  49 H49            2.1959     3.6323    -0.0001 H       
  50 H50            0.9817     5.8582     0.9132 H       
  51 H51            0.9643     5.8672    -0.8667 H       
  52 H52            2.6943    -4.1461    -3.7258 H       
  53 H53            0.9434    -4.4658    -3.7108 H       
  54 H54            4.0600    -8.5484   -11.4104 H       
  55 H55           -1.5304     5.8859     0.8897 H       
  56 H56            3.1215    -5.9534   -12.3130 H       
  57 H57           -1.1824     6.2650    -1.9676 H       
  58 H58            3.5315   -10.4282   -12.7905 H       
  59 H59            2.9167   -11.2637   -15.0237 H       
  60 H60            1.9439    -9.7307   -16.6870 H       
  61 H61            1.5851    -7.3622   -16.1168 H       
  62 H62            2.1956    -6.5277   -13.8821 H       
  63 H63           -0.9895     7.7402     2.2993 H       
  64 H64           -0.4854     8.0440    -1.9248 H       
  65 H65           -0.1779    10.4779    -1.7131 H       
  66 H66           -0.2818    11.5437     0.5043 H       
  67 H67           -0.6868    10.1747     2.5105 H       
@<TRIPOS>BOND
   1    1    2 1
   2    1    3 2
   3    2    5 2
   4    3    4 1
   5    3   18 1
   6    4    5 1
   7    5    6 1
   8    6    7 1
   9    6   40 1
  10    6   41 1
  11    7   24 1
  12    7   42 1
  13    7   43 1
  14    8    9 1
  15    8   22 1
  16    8   44 1
  17    8   45 1
  18    9   10 2
  19    9   11 1
  20   10   13 1
  21   11   12 1
  22   12   13 2
  23   12   14 1
  24   14   15 am
  25   14   46 1
  26   15   16 2
  27   15   17 1
  28   17   23 1
  29   17   47 1
  30   17   48 1
  31   18   19 am
  32   18   49 1
  33   19   20 1
  34   19   21 2
  35   20   25 1
  36   20   50 1
  37   20   51 1
  38   22   24 1
  39   22   52 1
  40   22   53 1
  41   23   26 1
  42   23   29 1
  43   23   54 1
  44   25   27 1
  45   25   28 1
  46   25   55 1
  47   26   56 1
  48   27   57 1
  49   28   35 ar
  50   28   36 ar
  51   29   30 ar
  52   29   34 ar
  53   30   31 ar
  54   30   58 1
  55   31   32 ar
  56   31   59 1
  57   32   33 ar
  58   32   60 1
  59   33   34 ar
  60   33   61 1
  61   34   62 1
  62   35   39 ar
  63   35   63 1
  64   36   37 ar
  65   36   64 1
  66   37   38 ar
  67   37   65 1
  68   38   39 ar
  69   38   66 1
  70   39   67 1

#	End of record

