#	Name: ASD00170610
#	Creating user name:	WinNT
#	Creation time:	15. 06. 2019 18:32

#	Modifying user name:	WinNT
#	Modification time:	15. 06. 2019 18:32

#	Program:	/corina/corina34_cracker 3.40 0067  02.08.2006

@<TRIPOS>MOLECULE
ASD00170610
  40   43    0    0    0
SMALL
NO_CHARGES


@<TRIPOS>ATOM
   1 C1            -0.0143     1.2103     0.0066 C.2     
   2 O2            -1.0742     1.8030     0.0279 O.2     
   3 C3             1.1993     1.9333    -0.0001 C.ar    
   4 C4             2.4289     1.2639     0.0910 C.ar    
   5 C5             3.6310     1.9883     0.0843 C.ar    
   6 C6             3.6379     3.3706    -0.0113 C.ar    
   7 C7             2.4267     4.0911    -0.1056 C.ar    
   8 C8             2.4240     5.4912    -0.2023 C.ar    
   9 C9             1.2391     6.1596    -0.2917 C.ar    
  10 C10            0.0294     5.4730    -0.2885 C.ar    
  11 C11           -0.0021     4.1116    -0.1957 C.ar    
  12 C12            1.1954     3.3956    -0.1083 C.ar    
  13 O13            4.8177     4.0374    -0.0138 O.3     
  14 C14            5.4294     4.2686    -1.2844 C.3     
  15 N15            2.4566    -0.1150     0.1881 N.pl3   
  16 C16            6.6875     0.3090     1.3049 C.2     
  17 C17            5.5332     0.9710     1.4189 C.2     
  18 C18            4.9198     1.2596     0.1820 C.2     
  19 C19            5.5834     0.8287    -0.8966 C.2     
  20 S20            7.0560     0.0148    -0.3962 S.3     
  21 C21            5.2215     1.2193     2.8942 C.3     
  22 C22            6.5617     1.0104     3.6264 C.3     
  23 C23            7.2904     0.0408     2.6764 C.3     
  24 H24            0.0004     0.1304    -0.0028 H       
  25 H25            3.3561     6.0366    -0.2055 H       
  26 H26            1.2398     7.2371    -0.3656 H       
  27 H27           -0.8967     6.0241    -0.3600 H       
  28 H28           -0.9476     3.5896    -0.1939 H       
  29 H29            5.6317     3.3137    -1.7694 H       
  30 H30            4.7583     4.8583    -1.9089 H       
  31 H31            6.3649     4.8102    -1.1441 H       
  32 H32            1.6276    -0.6124     0.2670 H       
  33 H33            3.3051    -0.5850     0.1772 H       
  34 H34            5.2622     0.9612    -1.9191 H       
  35 H35            4.8655     2.2392     3.0396 H       
  36 H36            4.4800     0.5041     3.2501 H       
  37 H37            7.1083     1.9493     3.7154 H       
  38 H38            6.4052     0.5573     4.6053 H       
  39 H39            7.1033    -0.9898     2.9781 H       
  40 H40            8.3609     0.2457     2.6669 H       
@<TRIPOS>BOND
   1    1    2 2
   2    1    3 1
   3    1   24 1
   4    3    4 ar
   5    3   12 ar
   6    4    5 ar
   7    4   15 1
   8    5    6 ar
   9    5   18 1
  10    6    7 ar
  11    6   13 1
  12    7    8 ar
  13    7   12 ar
  14    8    9 ar
  15    8   25 1
  16    9   10 ar
  17    9   26 1
  18   10   11 ar
  19   10   27 1
  20   11   12 ar
  21   11   28 1
  22   13   14 1
  23   14   29 1
  24   14   30 1
  25   14   31 1
  26   15   32 1
  27   15   33 1
  28   16   17 2
  29   16   20 1
  30   16   23 1
  31   17   18 1
  32   17   21 1
  33   18   19 2
  34   19   20 1
  35   19   34 1
  36   21   22 1
  37   21   35 1
  38   21   36 1
  39   22   23 1
  40   22   37 1
  41   22   38 1
  42   23   39 1
  43   23   40 1

#	End of record

