#	Name: ASD01811254
#	Creating user name:	WinNT
#	Creation time:	15. 06. 2019 19:26

#	Modifying user name:	WinNT
#	Modification time:	15. 06. 2019 19:26

#	Program:	/corina/corina34_cracker 3.40 0067  02.08.2006

@<TRIPOS>MOLECULE
ASD01811254
  67   70    0    0    0
SMALL
NO_CHARGES


@<TRIPOS>ATOM
   1 C1             0.0279     1.4359    -0.6059 C.2     
   2 C2             0.0164    -0.0079    -0.2871 C.ar    
   3 C3             1.2195    -0.6943    -0.1052 C.ar    
   4 C4             1.2105    -2.0424     0.1921 C.ar    
   5 C5             0.0139    -2.7214     0.3121 C.ar    
   6 C6            -1.1960    -2.0473     0.1328 C.ar    
   7 C7            -1.1942    -0.6854    -0.1617 C.ar    
   8 O8             0.8969     2.1523    -0.1487 O.2     
   9 N9            -0.9219     1.9565    -1.4080 N.am    
  10 C10            0.0138    -4.1930     0.6369 C.3     
  11 C11           -0.9105     3.3869    -1.7239 C.3     
  12 C12           -2.0868     3.7151    -2.6456 C.3     
  13 O13           -3.3144     3.4915    -1.9491 O.3     
  14 C14           -4.4818     3.7698    -2.7248 C.3     
  15 C15            2.5301     0.0384    -0.2343 C.3     
  16 C16            3.3215     0.1217     1.0817 C.3     
  17 C17            4.5863    -0.1359     0.2458 C.3     
  18 C18            3.6738    -0.8357    -0.7753 C.3     
  19 C19           -2.4762    -2.7759     0.2612 C.2     
  20 O20           -2.6747    -3.4908     1.2239 O.2     
  21 N21           -3.4231    -2.6473    -0.6893 N.am    
  22 C22           -4.7467    -3.2608    -0.5153 C.3     
  23 C23           -5.0504    -4.1330    -1.7376 C.3     
  24 C24           -4.9100    -3.2909    -3.0077 C.3     
  25 C25           -3.4730    -2.7779    -3.1255 C.3     
  26 C26           -3.1533    -1.8856    -1.9165 C.3     
  27 C27           -5.2412    -4.1369    -4.2101 C.ar    
  28 C28           -6.2850    -3.7726    -5.0420 C.ar    
  29 C29           -6.5936    -4.5424    -6.1443 C.ar    
  30 C30           -5.8495    -5.6913    -6.4199 C.ar    
  31 C31           -4.7971    -6.0528    -5.5764 C.ar    
  32 C32           -4.4964    -5.2712    -4.4802 C.ar    
  33 C33           -6.1645    -6.4954    -7.5622 C.1     
  34 N34           -6.4144    -7.1333    -8.4684 N.1     
  35 H35            2.1434    -2.5685     0.3310 H       
  36 H36           -2.1272    -0.1585    -0.2970 H       
  37 H37           -1.6130     1.3840    -1.7761 H       
  38 H38            0.0592    -4.3266     1.7177 H       
  39 H39           -0.8981    -4.6498     0.2523 H       
  40 H40            0.8801    -4.6670     0.1754 H       
  41 H41           -0.9988     3.9632    -0.8029 H       
  42 H42            0.0244     3.6413    -2.2234 H       
  43 H43           -2.0279     4.7595    -2.9520 H       
  44 H44           -2.0474     3.0750    -3.5269 H       
  45 H45           -5.3712     3.5755    -2.1254 H       
  46 H46           -4.4726     4.8153    -3.0329 H       
  47 H47           -4.4921     3.1308    -3.6078 H       
  48 H48            2.4311     0.9959    -0.7456 H       
  49 H49            3.2972     1.1084     1.5441 H       
  50 H50            3.0900    -0.6809     1.7819 H       
  51 H51            5.0507     0.7737    -0.1351 H       
  52 H52            5.2984    -0.8066     0.7266 H       
  53 H53            3.5386    -1.9000    -0.5827 H       
  54 H54            3.9340    -0.6218    -1.8120 H       
  55 H55           -4.7482    -3.8778     0.3833 H       
  56 H56           -5.5024    -2.4804    -0.4265 H       
  57 H57           -4.3481    -4.9658    -1.7737 H       
  58 H58           -6.0679    -4.5174    -1.6665 H       
  59 H59           -5.5950    -2.4444    -2.9597 H       
  60 H60           -2.7855    -3.6235    -3.1486 H       
  61 H61           -3.3678    -2.1977    -4.0422 H       
  62 H62           -3.7817    -0.9953    -1.9396 H       
  63 H63           -2.1031    -1.5949    -1.9427 H       
  64 H64           -6.8598    -2.8837    -4.8276 H       
  65 H65           -7.4091    -4.2573    -6.7925 H       
  66 H66           -4.2176    -6.9402    -5.7838 H       
  67 H67           -3.6801    -5.5474    -3.8293 H       
@<TRIPOS>BOND
   1    1    2 1
   2    1    8 2
   3    1    9 am
   4    2    3 ar
   5    2    7 ar
   6    3    4 ar
   7    3   15 1
   8    4    5 ar
   9    4   35 1
  10    5    6 ar
  11    5   10 1
  12    6    7 ar
  13    6   19 1
  14    7   36 1
  15    9   11 1
  16    9   37 1
  17   10   38 1
  18   10   39 1
  19   10   40 1
  20   11   12 1
  21   11   41 1
  22   11   42 1
  23   12   13 1
  24   12   43 1
  25   12   44 1
  26   13   14 1
  27   14   45 1
  28   14   46 1
  29   14   47 1
  30   15   16 1
  31   15   18 1
  32   15   48 1
  33   16   17 1
  34   16   49 1
  35   16   50 1
  36   17   18 1
  37   17   51 1
  38   17   52 1
  39   18   53 1
  40   18   54 1
  41   19   20 2
  42   19   21 am
  43   21   22 1
  44   21   26 1
  45   22   23 1
  46   22   55 1
  47   22   56 1
  48   23   24 1
  49   23   57 1
  50   23   58 1
  51   24   25 1
  52   24   27 1
  53   24   59 1
  54   25   26 1
  55   25   60 1
  56   25   61 1
  57   26   62 1
  58   26   63 1
  59   27   28 ar
  60   27   32 ar
  61   28   29 ar
  62   28   64 1
  63   29   30 ar
  64   29   65 1
  65   30   31 ar
  66   30   33 1
  67   31   32 ar
  68   31   66 1
  69   32   67 1
  70   33   34 3

#	End of record

