#	Name: ASD05740208
#	Creating user name:	WinNT
#	Creation time:	15. 06. 2019 21:03

#	Modifying user name:	WinNT
#	Modification time:	15. 06. 2019 21:03

#	Program:	/corina/corina34_cracker 3.40 0067  02.08.2006

@<TRIPOS>MOLECULE
ASD05740208
  61   65    0    0    0
SMALL
NO_CHARGES


@<TRIPOS>ATOM
   1 C1             0.4464     0.8468    -1.0750 C.3     
   2 N2            -0.4236     1.3144     0.0132 N.3     
   3 C3            -1.6597     0.6590    -0.0163 C.ar    
   4 C4            -2.6280     0.9599     0.9327 C.ar    
   5 C5            -3.8476     0.3132     0.9036 C.ar    
   6 C6            -4.1058    -0.6384    -0.0743 C.ar    
   7 C7            -3.1374    -0.9396    -1.0230 C.ar    
   8 C8            -1.9203    -0.2882    -0.9980 C.ar    
   9 N9            -5.3429    -1.2947    -0.1035 N.pl3   
  10 C10           -6.4926    -0.6174     0.2529 C.ar    
  11 N11           -6.4146     0.6843     0.5074 N.ar    
  12 N12           -7.6324    -1.2893     0.3228 N.ar    
  13 C13           -8.7561    -0.6708     0.6620 C.ar    
  14 C14           -8.7105     0.7122     0.9452 C.ar    
  15 C15           -7.4838     1.3792     0.8522 C.ar    
  16 N16           -9.9508    -1.3386     0.7425 N.am    
  17 C17          -11.0805    -0.6957     1.0874 C.2     
  18 C18          -11.0912     0.6832     1.3797 C.2     
  19 C19           -9.9405     1.4033     1.3194 C.2     
  20 C20           -9.9974    -2.7730     0.4481 C.3     
  21 O21          -12.1240    -1.3225     1.1486 O.2     
  22 C22           -9.8998    -3.5531     1.7337 C.ar    
  23 C23           -8.6685    -3.9883     2.1865 C.ar    
  24 C24          -11.0426    -3.8292     2.4646 C.ar    
  25 C25           -8.5787    -4.7043     3.3655 C.ar    
  26 C26           -9.7201    -4.9856     4.0933 C.ar    
  27 C27          -10.9514    -4.5463     3.6458 C.ar    
  28 C28           -7.4235    -3.6825     1.3943 C.3     
  29 C29            0.2316     1.1444     1.3175 C.3     
  30 C30            1.5392     1.9395     1.3360 C.3     
  31 N31            2.4093     1.4720     0.2479 N.3     
  32 C32            1.7540     1.6420    -1.0565 C.3     
  33 C33            3.7069     2.1599     0.2788 C.3     
  34 F34          -12.2459    -3.3992     2.0260 F       
  35 H35            0.6631    -0.2126    -0.9377 H       
  36 H36           -0.0556     0.9947    -2.0311 H       
  37 H37           -2.4269     1.6994     1.6936 H       
  38 H38           -4.6006     0.5472     1.6416 H       
  39 H39           -3.3380    -1.6802    -1.7830 H       
  40 H40           -1.1672    -0.5225    -1.7358 H       
  41 H41           -5.3921    -2.2249    -0.3740 H       
  42 H42           -7.4121     2.4362     1.0620 H       
  43 H43          -12.0165     1.1685     1.6528 H       
  44 H44           -9.9363     2.4602     1.5416 H       
  45 H45          -10.9367    -3.0111    -0.0510 H       
  46 H46           -9.1634    -3.0378    -0.2018 H       
  47 H47           -7.6163    -5.0445     3.7181 H       
  48 H48           -9.6488    -5.5451     5.0144 H       
  49 H49          -11.8428    -4.7661     4.2145 H       
  50 H50           -6.9812    -2.7545     1.7566 H       
  51 H51           -6.7083    -4.4964     1.5129 H       
  52 H52           -7.6806    -3.5753     0.3405 H       
  53 H53           -0.4270     1.5092     2.1057 H       
  54 H54            0.4458     0.0883     1.4820 H       
  55 H55            1.3226     2.9989     1.1987 H       
  56 H56            2.0413     1.7916     2.2921 H       
  57 H57            2.4127     1.2771    -1.8446 H       
  58 H58            1.5398     2.6980    -1.2209 H       
  59 H59            4.2004     1.9622     1.2304 H       
  60 H60            4.3311     1.7951    -0.5369 H       
  61 H61            3.5520     3.2329     0.1659 H       
@<TRIPOS>BOND
   1    1    2 1
   2    1   32 1
   3    1   35 1
   4    1   36 1
   5    2    3 1
   6    2   29 1
   7    3    4 ar
   8    3    8 ar
   9    4    5 ar
  10    4   37 1
  11    5    6 ar
  12    5   38 1
  13    6    7 ar
  14    6    9 1
  15    7    8 ar
  16    7   39 1
  17    8   40 1
  18    9   10 1
  19    9   41 1
  20   10   11 ar
  21   10   12 ar
  22   11   15 ar
  23   12   13 ar
  24   13   14 ar
  25   13   16 1
  26   14   15 ar
  27   14   19 1
  28   15   42 1
  29   16   17 am
  30   16   20 1
  31   17   18 1
  32   17   21 2
  33   18   19 2
  34   18   43 1
  35   19   44 1
  36   20   22 1
  37   20   45 1
  38   20   46 1
  39   22   24 ar
  40   22   23 ar
  41   23   25 ar
  42   23   28 1
  43   24   34 1
  44   24   27 ar
  45   25   26 ar
  46   25   47 1
  47   26   27 ar
  48   26   48 1
  49   27   49 1
  50   28   50 1
  51   28   51 1
  52   28   52 1
  53   29   30 1
  54   29   53 1
  55   29   54 1
  56   30   31 1
  57   30   55 1
  58   30   56 1
  59   31   32 1
  60   31   33 1
  61   32   57 1
  62   32   58 1
  63   33   59 1
  64   33   60 1
  65   33   61 1

#	End of record

