#	Name: ASD01208963
#	Creating user name:	WinNT
#	Creation time:	15. 06. 2019 19:10

#	Modifying user name:	WinNT
#	Modification time:	15. 06. 2019 19:10

#	Program:	/corina/corina34_cracker 3.40 0067  02.08.2006

@<TRIPOS>MOLECULE
ASD01208963
  49   52    0    0    0
SMALL
NO_CHARGES


@<TRIPOS>ATOM
   1 C1            -2.1183     1.2768     1.7513 C.3     
   2 C2            -2.0789    -0.2411     1.5490 C.3     
   3 C3            -3.4929    -0.8047     1.7202 C.3     
   4 C4            -4.0249    -0.4164     3.1022 C.3     
   5 C5            -2.7033     1.5847     3.1321 C.3     
   6 C6            -1.5690    -0.5568     0.1415 C.3     
   7 C7            -1.3068    -2.0592     0.0190 C.3     
   8 C8            -2.6173    -2.8024     0.0561 C.2     
   9 N9            -3.6112    -2.4583    -0.7866 N.am    
  10 C10           -4.8208    -3.1444    -0.7524 C.2     
  11 N11           -0.4637    -2.5001     1.1330 N.pl3   
  12 N12            0.9270    -2.6651     1.0989 N.2     
  13 C13            1.3197    -3.0694     2.2797 C.2     
  14 C14            0.1935    -3.1747     3.1023 C.2     
  15 C15           -0.8888    -2.8136     2.3748 C.2     
  16 O16           -2.7775    -3.7102     0.8443 O.2     
  17 O17           -4.0059     1.0062     3.2359 O.3     
  18 N18           -5.8446    -2.9027    -1.5124 N.2     
  19 C19           -6.9121    -3.6593    -1.3383 C.2     
  20 C20           -6.8118    -4.5942    -0.3908 C.2     
  21 S21           -5.2046    -4.4849     0.3241 S.3     
  22 S22            0.1862    -3.6810     4.7900 S.o2    
  23 C23            0.3940    -2.1407     5.7255 C.3     
  24 O24           -1.1156    -4.2143     4.9903 O.2     
  25 O25            1.3407    -4.5000     4.9152 O.2     
  26 C26            0.5466    -2.2515     7.2438 C.3     
  27 C27            1.7547    -1.8886     6.3780 C.3     
  28 F28           -7.7750    -5.4752    -0.0426 F       
  29 H29           -1.1074     1.6793     1.6860 H       
  30 H30           -2.7426     1.7308     0.9817 H       
  31 H31           -1.4154    -0.6903     2.2879 H       
  32 H32           -4.1450    -0.3928     0.9499 H       
  33 H33           -3.4652    -1.8909     1.6326 H       
  34 H34           -5.0470    -0.7783     3.2131 H       
  35 H35           -3.3955    -0.8623     3.8724 H       
  36 H36           -2.0567     1.1650     3.9027 H       
  37 H37           -2.7734     2.6644     3.2647 H       
  38 H38           -2.3179    -0.2577    -0.5919 H       
  39 H39           -0.6436    -0.0104    -0.0407 H       
  40 H40           -0.7996    -2.2638    -0.9238 H       
  41 H41           -3.4831    -1.7323    -1.4170 H       
  42 H42            2.3377    -3.2849     2.5690 H       
  43 H43           -1.9107    -2.7880     2.7234 H       
  44 H44           -7.8096    -3.5300    -1.9249 H       
  45 H45           -0.1453    -1.2775     5.3356 H       
  46 H46            0.1082    -1.4609     7.8528 H       
  47 H47            0.5222    -3.2499     7.6806 H       
  48 H48            2.5251    -2.6481     6.2451 H       
  49 H49            2.1110    -0.8592     6.4172 H       
@<TRIPOS>BOND
   1    1    2 1
   2    1    5 1
   3    1   29 1
   4    1   30 1
   5    2    3 1
   6    2    6 1
   7    2   31 1
   8    3    4 1
   9    3   32 1
  10    3   33 1
  11    4   17 1
  12    4   34 1
  13    4   35 1
  14    5   17 1
  15    5   36 1
  16    5   37 1
  17    6    7 1
  18    6   38 1
  19    6   39 1
  20    7    8 1
  21    7   11 1
  22    7   40 1
  23    8    9 am
  24    8   16 2
  25    9   10 1
  26    9   41 1
  27   10   18 2
  28   10   21 1
  29   11   12 1
  30   11   15 1
  31   12   13 2
  32   13   14 1
  33   13   42 1
  34   14   15 2
  35   14   22 1
  36   15   43 1
  37   18   19 1
  38   19   20 2
  39   19   44 1
  40   20   21 1
  41   20   28 1
  42   22   23 1
  43   22   24 2
  44   22   25 2
  45   23   26 1
  46   23   27 1
  47   23   45 1
  48   26   27 1
  49   26   46 1
  50   26   47 1
  51   27   48 1
  52   27   49 1

#	End of record

