#	Name: ASD03091502
#	Creating user name:	WinNT
#	Creation time:	15. 06. 2019 20:30

#	Modifying user name:	WinNT
#	Modification time:	15. 06. 2019 20:30

#	Program:	/corina/corina34_cracker 3.40 0067  02.08.2006

@<TRIPOS>MOLECULE
ASD03091502
  48   51    0    0    0
SMALL
NO_CHARGES


@<TRIPOS>ATOM
   1 N1            -0.0077     1.3343    -0.0537 N.pl3   
   2 C2             0.0160    -0.0221    -0.0611 C.2     
   3 C3             1.1510    -0.7229     0.2178 C.2     
   4 C4             2.3849     0.0178     0.5262 C.2     
   5 C5             2.3778     1.4597     0.2455 C.ar    
   6 C6             3.5477     2.2313     0.2574 C.ar    
   7 N7             3.4821     3.5278    -0.0088 N.ar    
   8 C8             2.3391     4.1310    -0.2886 C.ar    
   9 C9             1.1453     3.4448    -0.3185 C.ar    
  10 C10            1.1458     2.0768    -0.0454 C.ar    
  11 N11            4.7664     1.6417     0.5454 N.pl3   
  12 C12            7.0036     2.1579     1.3096 C.ar    
  13 C13            5.9453     2.3854     0.4388 C.ar    
  14 C14            6.0765     3.3652    -0.5424 C.ar    
  15 C15            7.2642     4.0753    -0.6085 C.ar    
  16 C16            8.2721     3.7911     0.2939 C.ar    
  17 N17            8.1168     2.8564     1.2114 N.ar    
  18 O18            3.3653    -0.5384     0.9925 O.2     
  19 C19           -1.2998     2.0246    -0.0609 C.3     
  20 C20            1.1430    -2.2059     0.2111 C.ar    
  21 C21            0.9071    -2.8977    -0.9759 C.ar    
  22 C22            0.9002    -4.2770    -0.9788 C.ar    
  23 C23            1.1278    -4.9761     0.1985 C.ar    
  24 C24            1.3630    -4.2902     1.3821 C.ar    
  25 C25            1.3769    -2.9110     1.3906 C.ar    
  26 O26            1.1199    -6.3352     0.1925 O.3     
  27 C27            1.3613    -6.9910     1.4390 C.3     
  28 C28            1.3139    -8.5066     1.2355 C.3     
  29 H29           -0.8901    -0.5616    -0.2941 H       
  30 H30            2.3419     5.1902    -0.4997 H       
  31 H31            0.2233     3.9579    -0.5491 H       
  32 H32            4.8024     0.7125     0.8213 H       
  33 H33            6.9117     1.4038     2.0773 H       
  34 H34            5.2724     3.5660    -1.2348 H       
  35 H35            7.4012     4.8421    -1.3566 H       
  36 H36            9.1999     4.3418     0.2467 H       
  37 H37           -2.1045     1.2895    -0.0718 H       
  38 H38           -1.3857     2.6441     0.8319 H       
  39 H39           -1.3705     2.6540    -0.9480 H       
  40 H40            0.7296    -2.3543    -1.8923 H       
  41 H41            0.7172    -4.8136    -1.8981 H       
  42 H42            1.5394    -4.8371     2.2966 H       
  43 H43            1.5643    -2.3779     2.3110 H       
  44 H44            2.3435    -6.7055     1.8155 H       
  45 H45            0.5969    -6.6969     2.1582 H       
  46 H46            0.3316    -8.7922     0.8590 H       
  47 H47            2.0783    -8.8008     0.5162 H       
  48 H48            1.4980    -9.0068     2.1863 H       
@<TRIPOS>BOND
   1    1    2 1
   2    1   10 1
   3    1   19 1
   4    2    3 2
   5    2   29 1
   6    3    4 1
   7    3   20 1
   8    4    5 1
   9    4   18 2
  10    5    6 ar
  11    5   10 ar
  12    6    7 ar
  13    6   11 1
  14    7    8 ar
  15    8    9 ar
  16    8   30 1
  17    9   10 ar
  18    9   31 1
  19   11   13 1
  20   11   32 1
  21   12   13 ar
  22   12   17 ar
  23   12   33 1
  24   13   14 ar
  25   14   15 ar
  26   14   34 1
  27   15   16 ar
  28   15   35 1
  29   16   17 ar
  30   16   36 1
  31   19   37 1
  32   19   38 1
  33   19   39 1
  34   20   21 ar
  35   20   25 ar
  36   21   22 ar
  37   21   40 1
  38   22   23 ar
  39   22   41 1
  40   23   24 ar
  41   23   26 1
  42   24   25 ar
  43   24   42 1
  44   25   43 1
  45   26   27 1
  46   27   28 1
  47   27   44 1
  48   27   45 1
  49   28   46 1
  50   28   47 1
  51   28   48 1

#	End of record

