#	Name: ASD07130006
#	Creating user name:	WinNT
#	Creation time:	15. 06. 2019 21:09

#	Modifying user name:	WinNT
#	Modification time:	15. 06. 2019 21:09

#	Program:	/corina/corina34_cracker 3.40 0067  02.08.2006

@<TRIPOS>MOLECULE
ASD07130006
  33   35    0    0    0
SMALL
NO_CHARGES


@<TRIPOS>ATOM
   1 C1            -0.1138     1.2372    -0.2718 C.ar    
   2 C2            -0.0513    -0.1470    -0.1921 C.ar    
   3 C3             1.1559    -0.7856    -0.1413 C.ar    
   4 C4             2.3359    -0.0404    -0.1702 C.ar    
   5 C5             2.2780     1.3631    -0.2514 C.ar    
   6 C6             1.0385     1.9922    -0.3016 C.ar    
   7 C7             3.7591    -0.3852    -0.1338 C.2     
   8 C8             4.4439     0.7679    -0.1919 C.2     
   9 N9             3.5757     1.8231    -0.2626 N.pl3   
  10 C10            4.3437    -1.7715    -0.0469 C.3     
  11 N11            5.6854    -1.7755    -0.6449 N.3     
  12 C12            4.4345    -2.1782     1.3649 C.1     
  13 N13            4.5046    -2.4920     2.4544 N.1     
  14 C14            5.6199    -1.5028    -2.0880 C.3     
  15 C15            7.0399    -1.4571    -2.6583 C.3     
  16 O16            7.7039    -2.6905    -2.3700 O.3     
  17 C17            7.7863    -2.9873    -0.9735 C.3     
  18 C18            6.3738    -3.0485    -0.3861 C.3     
  19 H19           -1.0752     1.7273    -0.3153 H       
  20 H20           -0.9639    -0.7240    -0.1697 H       
  21 H21            1.1968    -1.8630    -0.0787 H       
  22 H22            0.9794     3.0687    -0.3644 H       
  23 H23            5.5207     0.8504    -0.1843 H       
  24 H24            3.8358     2.7562    -0.3138 H       
  25 H25            3.7036    -2.4701    -0.5858 H       
  26 H26            5.0543    -2.2927    -2.5824 H       
  27 H27            5.1294    -0.5438    -2.2553 H       
  28 H28            6.9942    -1.3119    -3.7376 H       
  29 H29            7.5888    -0.6330    -2.2025 H       
  30 H30            8.2803    -3.9489    -0.8342 H       
  31 H31            8.3569    -2.2078    -0.4687 H       
  32 H32            6.4336    -3.2179     0.6890 H       
  33 H33            5.8203    -3.8631    -0.8533 H       
@<TRIPOS>BOND
   1    1    2 ar
   2    1    6 ar
   3    1   19 1
   4    2    3 ar
   5    2   20 1
   6    3    4 ar
   7    3   21 1
   8    4    5 ar
   9    4    7 1
  10    5    6 ar
  11    5    9 1
  12    6   22 1
  13    7    8 2
  14    7   10 1
  15    8    9 1
  16    8   23 1
  17    9   24 1
  18   10   11 1
  19   10   12 1
  20   10   25 1
  21   11   14 1
  22   11   18 1
  23   12   13 3
  24   14   15 1
  25   14   26 1
  26   14   27 1
  27   15   16 1
  28   15   28 1
  29   15   29 1
  30   16   17 1
  31   17   18 1
  32   17   30 1
  33   17   31 1
  34   18   32 1
  35   18   33 1

#	End of record

