#	Name: ASD03740242
#	Creating user name:	WinNT
#	Creation time:	15. 06. 2019 20:46

#	Modifying user name:	WinNT
#	Modification time:	15. 06. 2019 20:46

#	Program:	/corina/corina34_cracker 3.40 0067  02.08.2006

@<TRIPOS>MOLECULE
ASD03740242
  58   59    0    0    0
SMALL
NO_CHARGES


@<TRIPOS>ATOM
   1 C1            -3.7980     1.3601    -0.1438 C.1     
   2 C2            -1.7350     2.7392    -0.1407 C.2     
   3 C3            -2.3773     1.5354    -0.1052 C.2     
   4 S4            -1.2018     0.2324    -0.0041 S.3     
   5 C5             0.1301     1.3799    -0.0138 C.2     
   6 C6            -0.3641     2.6612    -0.0911 C.2     
   7 N7             0.4585     3.7882    -0.1174 N.am    
   8 C8             1.5006     1.0378     0.0483 C.2     
   9 O9             2.3473     1.9122     0.0357 O.2     
  10 O10            1.8700    -0.2586     0.1216 O.3     
  11 C11            0.8255     4.4566     1.1336 C.3     
  12 C12            2.3479     4.4541     1.2855 C.3     
  13 C13            0.3177     5.8996     1.1088 C.3     
  14 C14            0.9153     4.2618    -1.2936 C.2     
  15 C15            0.5995     3.5317    -2.5736 C.3     
  16 O16            1.5806     5.2755    -1.3220 O.2     
  17 C17            0.4334     4.5429    -3.7098 C.3     
  18 C18            0.1128     3.8017    -5.0093 C.3     
  19 C19            1.2560     2.8415    -5.3441 C.3     
  20 C20            1.4221     1.8304    -4.2080 C.3     
  21 C21            1.7427     2.5716    -2.9084 C.3     
  22 C22            0.9354     2.1003    -6.6437 C.3     
  23 C23           -4.9628     1.2163    -0.1754 C.1     
  24 C24           -6.4231     1.0361    -0.2151 C.3     
  25 C25           -6.7546    -0.4564    -0.1557 C.3     
  26 C26           -7.0575     1.7474     0.9818 C.3     
  27 C27           -6.9753     1.6299    -1.5125 C.3     
  28 H28           -2.2627     3.6792    -0.2073 H       
  29 H29            2.8268    -0.3934     0.1601 H       
  30 H30            0.3756     3.9275     1.9737 H       
  31 H31            2.8019     4.9025     0.4018 H       
  32 H32            2.6258     5.0297     2.1685 H       
  33 H33            2.7005     3.4285     1.3945 H       
  34 H34           -0.7467     5.9063     0.8738 H       
  35 H35            0.4772     6.3577     2.0849 H       
  36 H36            0.8608     6.4629     0.3500 H       
  37 H37           -0.3249     2.9674    -2.4514 H       
  38 H38           -0.3810     5.2269    -3.4712 H       
  39 H39            1.3579     5.1072    -3.8320 H       
  40 H40           -0.8117     3.2373    -4.8871 H       
  41 H41           -0.0055     4.5220    -5.8187 H       
  42 H42            2.1805     3.4059    -5.4663 H       
  43 H43            0.4977     1.2660    -4.0858 H       
  44 H44            2.2366     1.1464    -4.4465 H       
  45 H45            2.6672     3.1360    -3.0306 H       
  46 H46            1.8611     1.8513    -2.0990 H       
  47 H47            0.8170     2.8207    -7.4531 H       
  48 H48            1.7498     1.4163    -6.8822 H       
  49 H49            0.0109     1.5359    -6.5215 H       
  50 H50           -6.3612    -0.8795     0.7686 H       
  51 H51           -7.8360    -0.5899    -0.1850 H       
  52 H52           -6.3027    -0.9632    -1.0084 H       
  53 H53           -6.8214     2.8106     0.9396 H       
  54 H54           -8.1389     1.6139     0.9525 H       
  55 H55           -6.6641     1.3243     1.9062 H       
  56 H56           -6.5234     1.1232    -2.3652 H       
  57 H57           -8.0567     1.4964    -1.5419 H       
  58 H58           -6.7391     2.6932    -1.5548 H       
@<TRIPOS>BOND
   1    1    3 1
   2    1   23 3
   3    2    3 2
   4    2    6 1
   5    2   28 1
   6    3    4 1
   7    4    5 1
   8    5    6 2
   9    5    8 1
  10    6    7 1
  11    7   11 1
  12    7   14 am
  13    8    9 2
  14    8   10 1
  15   10   29 1
  16   11   12 1
  17   11   13 1
  18   11   30 1
  19   12   31 1
  20   12   32 1
  21   12   33 1
  22   13   34 1
  23   13   35 1
  24   13   36 1
  25   14   15 1
  26   14   16 2
  27   15   17 1
  28   15   21 1
  29   15   37 1
  30   17   18 1
  31   17   38 1
  32   17   39 1
  33   18   19 1
  34   18   40 1
  35   18   41 1
  36   19   20 1
  37   19   22 1
  38   19   42 1
  39   20   21 1
  40   20   43 1
  41   20   44 1
  42   21   45 1
  43   21   46 1
  44   22   47 1
  45   22   48 1
  46   22   49 1
  47   23   24 1
  48   24   25 1
  49   24   26 1
  50   24   27 1
  51   25   50 1
  52   25   51 1
  53   25   52 1
  54   26   53 1
  55   26   54 1
  56   26   55 1
  57   27   56 1
  58   27   57 1
  59   27   58 1

#	End of record

