#	Name: ASD01209346
#	Creating user name:	WinNT
#	Creation time:	15. 06. 2019 19:11

#	Modifying user name:	WinNT
#	Modification time:	15. 06. 2019 19:11

#	Program:	/corina/corina34_cracker 3.40 0067  02.08.2006

@<TRIPOS>MOLECULE
ASD01209346
  41   42    0    0    0
SMALL
NO_CHARGES


@<TRIPOS>ATOM
   1 C1             0.9630     1.5644    -1.4053 C.2     
   2 C2             0.7554     0.0793    -1.2556 C.3     
   3 O3             1.7467     2.1402    -0.6882 O.2     
   4 O4             0.2815     2.2466    -2.3391 O.3     
   5 S5             1.8170    -0.5486     0.0746 S.3     
   6 N6             2.6111    -3.0822    -0.4112 N.am    
   7 C7             1.4530    -2.3257     0.0827 C.3     
   8 C8             1.2210    -2.8037     1.4972 C.2     
   9 C9             2.1475    -3.7213     1.7546 C.2     
  10 C10            3.0097    -3.8992     0.5818 C.2     
  11 O11            3.9468    -4.6716     0.5157 O.2     
  12 C12            2.2903    -4.4673     3.0562 C.3     
  13 C13            0.1435    -2.3296     2.4381 C.3     
  14 C14            3.2165    -2.9726    -1.7407 C.3     
  15 C15            4.2928    -1.9181    -1.7172 C.ar    
  16 C16            5.5942    -2.2671    -1.4069 C.ar    
  17 C17            6.5827    -1.3023    -1.3846 C.ar    
  18 C18            6.2687     0.0176    -1.6739 C.ar    
  19 C19            4.9622     0.3653    -1.9850 C.ar    
  20 C20            3.9784    -0.6042    -2.0114 C.ar    
  21 O21            7.2393     0.9686    -1.6523 O.3     
  22 C22            6.8435     2.3067    -1.9604 C.3     
  23 H23           -0.2883    -0.1189    -1.0118 H       
  24 H24            1.0112    -0.4194    -2.1905 H       
  25 H25            0.4482     3.1973    -2.3972 H       
  26 H26            0.5781    -2.5326    -0.5336 H       
  27 H27            1.6961    -5.3804     3.0187 H       
  28 H28            3.3380    -4.7219     3.2161 H       
  29 H29            1.9399    -3.8392     3.8753 H       
  30 H30           -0.7571    -2.9251     2.2888 H       
  31 H31            0.4855    -2.4397     3.4672 H       
  32 H32           -0.0772    -1.2809     2.2389 H       
  33 H33            3.6530    -3.9311    -2.0214 H       
  34 H34            2.4519    -2.6951    -2.4663 H       
  35 H35            5.8381    -3.2948    -1.1814 H       
  36 H36            7.5991    -1.5754    -1.1418 H       
  37 H37            4.7152     1.3922    -2.2105 H       
  38 H38            2.9620    -0.3349    -2.2581 H       
  39 H39            6.4242     2.3391    -2.9660 H       
  40 H40            6.0928     2.6379    -1.2429 H       
  41 H41            7.7116     2.9637    -1.9075 H       
@<TRIPOS>BOND
   1    1    2 1
   2    1    3 2
   3    1    4 1
   4    2    5 1
   5    2   23 1
   6    2   24 1
   7    4   25 1
   8    5    7 1
   9    6    7 1
  10    6   10 am
  11    6   14 1
  12    7    8 1
  13    7   26 1
  14    8    9 2
  15    8   13 1
  16    9   10 1
  17    9   12 1
  18   10   11 2
  19   12   27 1
  20   12   28 1
  21   12   29 1
  22   13   30 1
  23   13   31 1
  24   13   32 1
  25   14   15 1
  26   14   33 1
  27   14   34 1
  28   15   16 ar
  29   15   20 ar
  30   16   17 ar
  31   16   35 1
  32   17   18 ar
  33   17   36 1
  34   18   19 ar
  35   18   21 1
  36   19   20 ar
  37   19   37 1
  38   20   38 1
  39   21   22 1
  40   22   39 1
  41   22   40 1
  42   22   41 1

#	End of record

