#	Name: ASD01230666
#	Creating user name:	WinNT
#	Creation time:	15. 06. 2019 19:14

#	Modifying user name:	WinNT
#	Modification time:	15. 06. 2019 19:14

#	Program:	/corina/corina34_cracker 3.40 0067  02.08.2006

@<TRIPOS>MOLECULE
ASD01230666
  44   47    0    0    0
SMALL
NO_CHARGES


@<TRIPOS>ATOM
   1 S1             0.0804     1.7745     1.3212 S.o2    
   2 N2            -0.1040     0.2588     0.6838 N.am    
   3 C3             0.6434    -0.1827    -0.2986 C.2     
   4 N4             1.6417     0.5184    -0.9127 N.pl3   
   5 C5             1.9786     1.9091    -0.5972 C.3     
   6 C6             1.8051     2.1788     0.9001 C.3     
   7 C7             0.3597    -1.5590    -0.7584 C.2     
   8 C8             1.1316    -2.1037    -1.7615 C.2     
   9 C9             2.1627    -1.3350    -2.3188 C.2     
  10 C10            2.3919    -0.0807    -1.8940 C.2     
  11 C11           -0.7393    -2.3418    -0.1488 C.ar    
  12 C12           -0.4543    -3.4972     0.5798 C.ar    
  13 C13           -1.4801    -4.2234     1.1465 C.ar    
  14 C14           -2.7958    -3.8064     0.9926 C.ar    
  15 C15           -3.0832    -2.6573     0.2678 C.ar    
  16 C16           -2.0620    -1.9227    -0.2965 C.ar    
  17 O17           -3.8043    -4.5248     1.5521 O.3     
  18 C18           -4.3864    -5.4978     0.8030 C.ar    
  19 C19           -3.8783    -5.8069    -0.4509 C.ar    
  20 C20           -4.4712    -6.7965    -1.2103 C.ar    
  21 C21           -5.5712    -7.4792    -0.7220 C.ar    
  22 C22           -6.0796    -7.1724     0.5274 C.ar    
  23 C23           -5.4859    -6.1875     1.2930 C.ar    
  24 C24           -3.9199    -7.1326    -2.5720 C.3     
  25 F25           -2.8174    -6.3153    -2.8435 F       
  26 F26           -3.5233    -8.4740    -2.5964 F       
  27 F27           -4.9073    -6.9205    -3.5402 F       
  28 Br28          -6.3812    -8.8331    -1.7644 Br      
  29 O29           -0.8226     2.5855     0.5822 O.2     
  30 O30           -0.0674     1.5935     2.7228 O.2     
  31 H31            3.0138     2.1010    -0.8793 H       
  32 H32            1.3240     2.5742    -1.1605 H       
  33 H33            2.0032     3.2291     1.1138 H       
  34 H34            2.4849     1.5476     1.4723 H       
  35 H35            0.9452    -3.1079    -2.1126 H       
  36 H36            2.7806    -1.7558    -3.0983 H       
  37 H37            3.1991     0.4789    -2.3431 H       
  38 H38            0.5686    -3.8224     0.6993 H       
  39 H39           -1.2603    -5.1178     1.7106 H       
  40 H40           -4.1076    -2.3364     0.1495 H       
  41 H41           -2.2859    -1.0265    -0.8560 H       
  42 H42           -3.0202    -5.2738    -0.8327 H       
  43 H43           -6.9387    -7.7060     0.9063 H       
  44 H44           -5.8804    -5.9514     2.2703 H       
@<TRIPOS>BOND
   1    1    2 am
   2    1    6 1
   3    1   29 2
   4    1   30 2
   5    2    3 2
   6    3    4 1
   7    3    7 1
   8    4    5 1
   9    4   10 1
  10    5    6 1
  11    5   31 1
  12    5   32 1
  13    6   33 1
  14    6   34 1
  15    7    8 2
  16    7   11 1
  17    8    9 1
  18    8   35 1
  19    9   10 2
  20    9   36 1
  21   10   37 1
  22   11   12 ar
  23   11   16 ar
  24   12   13 ar
  25   12   38 1
  26   13   14 ar
  27   13   39 1
  28   14   15 ar
  29   14   17 1
  30   15   16 ar
  31   15   40 1
  32   16   41 1
  33   17   18 1
  34   18   19 ar
  35   18   23 ar
  36   19   20 ar
  37   19   42 1
  38   20   21 ar
  39   20   24 1
  40   21   22 ar
  41   21   28 1
  42   22   23 ar
  43   22   43 1
  44   23   44 1
  45   24   25 1
  46   24   26 1
  47   24   27 1

#	End of record

