#	Name: ASD00069104
#	Creating user name:	WinNT
#	Creation time:	15. 06. 2019 18:29

#	Modifying user name:	WinNT
#	Modification time:	15. 06. 2019 18:29

#	Program:	/corina/corina34_cracker 3.40 0067  02.08.2006

@<TRIPOS>MOLECULE
ASD00069104
  71   77    0    0    0
SMALL
NO_CHARGES


@<TRIPOS>ATOM
   1 C1             0.7269     1.7976    -0.0697 C.3     
   2 C2             1.6344     0.5712    -0.1846 C.3     
   3 C3             2.1964     1.8917     0.3459 C.3     
   4 C4             0.3200     2.4843    -1.3479 C.2     
   5 O5             0.7110     2.0606    -2.4150 O.2     
   6 N6            -0.4784     3.5693    -1.3053 N.am    
   7 N7            -1.6533     6.5376    -5.8126 N.pl3   
   8 N8            -1.6714     7.8169    -5.2483 N.2     
   9 C9            -1.4133     7.7427    -3.9627 C.2     
  10 C10           -1.2075     6.3267    -3.6345 C.ar    
  11 C11           -0.9087     5.6403    -2.4556 C.ar    
  12 C12           -0.7776     4.2654    -2.4835 C.ar    
  13 C13           -0.9415     3.5673    -3.6801 C.ar    
  14 C14           -1.2328     4.2280    -4.8384 C.ar    
  15 C15           -1.3705     5.6145    -4.8360 C.ar    
  16 C16           -1.9031     6.2297    -7.2229 C.3     
  17 C17           -3.4016     6.3475    -7.5135 C.3     
  18 C18           -3.6474     6.0833    -9.0022 C.3     
  19 C19           -2.8157     7.0691    -9.8285 C.3     
  20 C20           -1.3399     6.9235    -9.4485 C.3     
  21 O21           -1.1857     7.1515    -8.0462 O.3     
  22 C22           -1.3426     8.8762    -3.0200 C.2     
  23 N23           -1.5388    10.1901    -3.3518 N.pl3   
  24 C24           -1.3866    10.9314    -2.1928 C.ar    
  25 C25           -1.0950    10.0083    -1.1728 C.ar    
  26 N26           -1.0877     8.7759    -1.7370 N.2     
  27 C27           -0.8856    10.4666     0.1317 C.ar    
  28 C28           -0.9673    11.8193     0.4041 C.ar    
  29 C29           -1.2568    12.7266    -0.6131 C.ar    
  30 C30           -1.4650    12.2858    -1.9026 C.ar    
  31 N31           -0.7586    12.2801     1.7086 N.3     
  32 C32           -0.8907    13.7409     1.7782 C.3     
  33 C33           -0.5146    14.2222     3.1814 C.3     
  34 C34           -1.4367    13.5582     4.2077 C.3     
  35 C35           -1.3163    12.0370     4.0815 C.3     
  36 C36           -1.6692    11.6191     2.6522 C.3     
  37 C37           -1.0265    13.9884     5.6175 C.3     
  38 F38            1.4404    -0.4645     0.7358 F       
  39 F39            2.0229     0.1731    -1.4682 F       
  40 H40           -0.0213     1.7976     0.7230 H       
  41 H41            2.8688     2.4502    -0.3052 H       
  42 H42            2.4150     1.9535     1.4120 H       
  43 H43           -0.8459     3.8681    -0.4588 H       
  44 H44           -0.7808     6.1804    -1.5291 H       
  45 H45           -0.8364     2.4925    -3.6901 H       
  46 H46           -1.3564     3.6754    -5.7580 H       
  47 H47           -1.5698     5.2145    -7.4379 H       
  48 H48           -3.9467     5.6146    -6.9187 H       
  49 H49           -3.7440     7.3508    -7.2603 H       
  50 H50           -3.3509     5.0629    -9.2453 H       
  51 H51           -4.7051     6.2205    -9.2271 H       
  52 H52           -2.9418     6.8524   -10.8893 H       
  53 H53           -3.1463     8.0871    -9.6220 H       
  54 H54           -0.9992     5.9174    -9.6928 H       
  55 H55           -0.7483     7.6524   -10.0025 H       
  56 H56           -1.7458    10.5365    -4.2339 H       
  57 H57           -0.6613     9.7666     0.9230 H       
  58 H58           -1.3188    13.7814    -0.3899 H       
  59 H59           -1.6886    12.9943    -2.6864 H       
  60 H60           -0.2267    14.2009     1.0464 H       
  61 H61           -1.9210    14.0232     1.5615 H       
  62 H62            0.5200    13.9525     3.3935 H       
  63 H63           -0.6278    15.3049     3.2373 H       
  64 H64           -2.4674    13.8589     4.0196 H       
  65 H65           -0.2944    11.7328     4.3078 H       
  66 H66           -2.0023    11.5584     4.7804 H       
  67 H67           -2.6958    11.9112     2.4314 H       
  68 H68           -1.5706    10.5379     2.5551 H       
  69 H69           -1.1072    15.0719     5.7047 H       
  70 H70           -1.6834    13.5153     6.3473 H       
  71 H71            0.0034    13.6845     5.8048 H       
@<TRIPOS>BOND
   1    1    2 1
   2    1    3 1
   3    1    4 1
   4    1   40 1
   5    2    3 1
   6    2   38 1
   7    2   39 1
   8    3   41 1
   9    3   42 1
  10    4    5 2
  11    4    6 am
  12    6   12 1
  13    6   43 1
  14    7    8 1
  15    7   15 1
  16    7   16 1
  17    8    9 2
  18    9   10 1
  19    9   22 1
  20   10   11 ar
  21   10   15 ar
  22   11   12 ar
  23   11   44 1
  24   12   13 ar
  25   13   14 ar
  26   13   45 1
  27   14   15 ar
  28   14   46 1
  29   16   17 1
  30   16   21 1
  31   16   47 1
  32   17   18 1
  33   17   48 1
  34   17   49 1
  35   18   19 1
  36   18   50 1
  37   18   51 1
  38   19   20 1
  39   19   52 1
  40   19   53 1
  41   20   21 1
  42   20   54 1
  43   20   55 1
  44   22   23 1
  45   22   26 2
  46   23   24 1
  47   23   56 1
  48   24   25 ar
  49   24   30 ar
  50   25   26 1
  51   25   27 ar
  52   27   28 ar
  53   27   57 1
  54   28   29 ar
  55   28   31 1
  56   29   30 ar
  57   29   58 1
  58   30   59 1
  59   31   32 1
  60   31   36 1
  61   32   33 1
  62   32   60 1
  63   32   61 1
  64   33   34 1
  65   33   62 1
  66   33   63 1
  67   34   35 1
  68   34   37 1
  69   34   64 1
  70   35   36 1
  71   35   65 1
  72   35   66 1
  73   36   67 1
  74   36   68 1
  75   37   69 1
  76   37   70 1
  77   37   71 1

#	End of record

