#	Name: ASD01911159
#	Creating user name:	WinNT
#	Creation time:	15. 06. 2019 19:57

#	Modifying user name:	WinNT
#	Modification time:	15. 06. 2019 19:57

#	Program:	/corina/corina34_cracker 3.40 0067  02.08.2006

@<TRIPOS>MOLECULE
ASD01911159
  49   52    0    0    0
SMALL
NO_CHARGES


@<TRIPOS>ATOM
   1 C1             0.1116     1.3577    -0.1708 C.ar    
   2 C2             0.1632    -0.0265    -0.2217 C.ar    
   3 C3             1.3799    -0.6819    -0.2472 C.ar    
   4 C4             2.5654     0.0360    -0.2226 C.ar    
   5 C5             2.5292     1.4203    -0.1722 C.ar    
   6 C6             1.2886     2.0886    -0.1458 C.ar    
   7 C7             3.5599     2.4792    -0.1346 C.2     
   8 N8             2.9448     3.6747    -0.0900 N.am    
   9 C9             1.6072     3.5310    -0.0933 C.2     
  10 C10            3.6399     4.9634    -0.0435 C.3     
  11 C11            3.8766     5.4574    -1.4474 C.ar    
  12 C12            2.9280     6.2551    -2.0729 C.ar    
  13 C13            3.1500     6.7089    -3.3670 C.ar    
  14 C14            4.3128     6.3662    -4.0285 C.ar    
  15 C15            5.2570     5.5717    -3.4047 C.ar    
  16 C16            5.0422     5.1214    -2.1128 C.ar    
  17 N17            1.7509     6.6007    -1.4016 N.am    
  18 C18            0.6390     6.9005    -2.1018 C.2     
  19 C19           -0.6231     7.1892    -1.3941 C.ar    
  20 C20           -1.7815     7.5014    -2.1181 C.ar    
  21 C21           -2.9621     7.7710    -1.4428 C.ar    
  22 C22           -2.9947     7.7323    -0.0628 C.ar    
  23 C23           -1.8517     7.4245     0.6566 C.ar    
  24 C24           -0.6714     7.1473     0.0013 C.ar    
  25 O25            0.7971     4.4352    -0.0595 O.2     
  26 O26            4.7610     2.2998    -0.1426 O.2     
  27 F27            5.9665     4.3452    -1.5058 F       
  28 O28            0.6760     6.9331    -3.3167 O.2     
  29 O29           -1.7478     7.5400    -3.4744 O.3     
  30 C30           -1.8334     6.3655    -4.1201 C.2     
  31 C31           -1.6880     6.3176    -5.6193 C.3     
  32 O32           -2.0270     5.3473    -3.4991 O.2     
  33 H33           -0.8419     1.8646    -0.1552 H       
  34 H34           -0.7537    -0.5969    -0.2412 H       
  35 H35            1.4071    -1.7609    -0.2861 H       
  36 H36            3.5132    -0.4813    -0.2424 H       
  37 H37            3.0296     5.6862     0.4979 H       
  38 H38            4.5964     4.8422     0.4651 H       
  39 H39            2.4133     7.3293    -3.8557 H       
  40 H40            4.4848     6.7190    -5.0347 H       
  41 H41            6.1654     5.3052    -3.9244 H       
  42 H42            1.7347     6.6247    -0.4320 H       
  43 H43           -3.8573     8.0121    -1.9969 H       
  44 H44           -3.9167     7.9434     0.4585 H       
  45 H45           -1.8867     7.3973     1.7357 H       
  46 H46            0.2174     6.9076     0.5662 H       
  47 H47           -1.5201     7.3249    -6.0005 H       
  48 H48           -0.8411     5.6838    -5.8821 H       
  49 H49           -2.5977     5.9094    -6.0597 H       
@<TRIPOS>BOND
   1    1    2 ar
   2    1    6 ar
   3    1   33 1
   4    2    3 ar
   5    2   34 1
   6    3    4 ar
   7    3   35 1
   8    4    5 ar
   9    4   36 1
  10    5    6 ar
  11    5    7 1
  12    6    9 1
  13    7    8 am
  14    7   26 2
  15    8    9 am
  16    8   10 1
  17    9   25 2
  18   10   11 1
  19   10   37 1
  20   10   38 1
  21   11   12 ar
  22   11   16 ar
  23   12   13 ar
  24   12   17 1
  25   13   14 ar
  26   13   39 1
  27   14   15 ar
  28   14   40 1
  29   15   16 ar
  30   15   41 1
  31   16   27 1
  32   17   18 am
  33   17   42 1
  34   18   19 1
  35   18   28 2
  36   19   20 ar
  37   19   24 ar
  38   20   21 ar
  39   20   29 1
  40   21   22 ar
  41   21   43 1
  42   22   23 ar
  43   22   44 1
  44   23   24 ar
  45   23   45 1
  46   24   46 1
  47   29   30 1
  48   30   31 1
  49   30   32 2
  50   31   47 1
  51   31   48 1
  52   31   49 1

#	End of record

