#	Name: ASD01940405
#	Creating user name:	WinNT
#	Creation time:	15. 06. 2019 20:12

#	Modifying user name:	WinNT
#	Modification time:	15. 06. 2019 20:12

#	Program:	/corina/corina34_cracker 3.40 0067  02.08.2006

@<TRIPOS>MOLECULE
ASD01940405
  53   56    0    0    0
SMALL
NO_CHARGES


@<TRIPOS>ATOM
   1 S1             1.6629     2.4731     2.6898 S.3     
   2 N2             2.1067     0.9732     3.3449 N.2     
   3 C3             2.7535     0.3129     2.4462 C.2     
   4 C4             2.9601     0.9018     1.1879 C.ar    
   5 C5             2.3962     2.1881     1.1084 C.ar    
   6 C6             2.4883     2.9461    -0.0565 C.ar    
   7 C7             3.1555     2.4162    -1.1689 C.ar    
   8 C8             3.7189     1.1313    -1.0893 C.ar    
   9 C9             3.6285     0.3961     0.0439 C.ar    
  10 C10            3.2649     3.1986    -2.4104 C.2     
  11 O11            2.7599     4.3031    -2.4798 O.2     
  12 N12            3.9247     2.6915    -3.4706 N.am    
  13 O13            4.0300     3.4443    -4.6653 O.3     
  14 C14            4.7550     2.7854    -5.7055 C.3     
  15 O15            4.9913     3.6094    -9.2758 O.3     
  16 C16            3.7183     4.1501    -8.8984 C.3     
  17 O17            3.4852     3.8602    -7.5099 O.3     
  18 C18            4.8054     3.6859    -6.9415 C.3     
  19 C19            5.5591     2.9916    -8.1032 C.3     
  20 C20            3.7188     5.6649    -9.1142 C.3     
  21 C21            2.6169     3.5134    -9.7484 C.3     
  22 N22            1.9250     4.2125    -0.1150 N.pl3   
  23 C23            0.6353     4.3822    -0.6359 C.ar    
  24 C24            0.0230     5.6305    -0.5846 C.ar    
  25 C25           -1.2487     5.7971    -1.0989 C.ar    
  26 C26           -1.9148     4.7178    -1.6669 C.ar    
  27 C27           -1.3026     3.4719    -1.7170 C.ar    
  28 C28           -0.0292     3.3064    -1.2081 C.ar    
  29 S29           -3.5364     4.9295    -2.3229 S.3     
  30 C30           -3.9512     3.2708    -2.9289 C.3     
  31 F31            0.6712     6.6791    -0.0319 F       
  32 H32            3.1308    -0.6767     2.6576 H       
  33 H33            4.2327     0.7232    -1.9471 H       
  34 H34            4.0712    -0.5885     0.0771 H       
  35 H35            4.3274     1.8107    -3.4153 H       
  36 H36            5.7697     2.5776    -5.3658 H       
  37 H37            4.2576     1.8490    -5.9583 H       
  38 H38            5.2577     4.6485    -6.7029 H       
  39 H39            5.3658     1.9189    -8.1011 H       
  40 H40            6.6289     3.1915    -8.0422 H       
  41 H41            3.8812     5.8814   -10.1701 H       
  42 H42            2.7589     6.0766    -8.8023 H       
  43 H43            4.5166     6.1157    -8.5240 H       
  44 H44            2.6301     2.4323    -9.6097 H       
  45 H45            1.6479     3.9072    -9.4418 H       
  46 H46            2.7881     3.7470   -10.7992 H       
  47 H47            2.4238     4.9805     0.2047 H       
  48 H48           -1.7249     6.7657    -1.0592 H       
  49 H49           -1.8208     2.6333    -2.1581 H       
  50 H50            0.4478     2.3385    -1.2515 H       
  51 H51           -4.9507     3.2823    -3.3637 H       
  52 H52           -3.2285     2.9699    -3.6874 H       
  53 H53           -3.9237     2.5637    -2.0999 H       
@<TRIPOS>BOND
   1    1    2 1
   2    1    5 1
   3    2    3 2
   4    3    4 1
   5    3   32 1
   6    4    5 ar
   7    4    9 ar
   8    5    6 ar
   9    6    7 ar
  10    6   22 1
  11    7    8 ar
  12    7   10 1
  13    8    9 ar
  14    8   33 1
  15    9   34 1
  16   10   11 2
  17   10   12 am
  18   12   13 1
  19   12   35 1
  20   13   14 1
  21   14   18 1
  22   14   36 1
  23   14   37 1
  24   15   16 1
  25   15   19 1
  26   16   17 1
  27   16   20 1
  28   16   21 1
  29   17   18 1
  30   18   19 1
  31   18   38 1
  32   19   39 1
  33   19   40 1
  34   20   41 1
  35   20   42 1
  36   20   43 1
  37   21   44 1
  38   21   45 1
  39   21   46 1
  40   22   23 1
  41   22   47 1
  42   23   24 ar
  43   23   28 ar
  44   24   25 ar
  45   24   31 1
  46   25   26 ar
  47   25   48 1
  48   26   27 ar
  49   26   29 1
  50   27   28 ar
  51   27   49 1
  52   28   50 1
  53   29   30 1
  54   30   51 1
  55   30   52 1
  56   30   53 1

#	End of record

