#	Name: ASD03330630
#	Creating user name:	WinNT
#	Creation time:	15. 06. 2019 20:37

#	Modifying user name:	WinNT
#	Modification time:	15. 06. 2019 20:37

#	Program:	/corina/corina34_cracker 3.40 0067  02.08.2006

@<TRIPOS>MOLECULE
ASD03330630
  70   73    0    0    0
SMALL
NO_CHARGES


@<TRIPOS>ATOM
   1 C1            -0.3276     1.1639     0.8057 C.2     
   2 N2            -0.3628    -0.1699     1.0352 N.pl3   
   3 C3             0.9782     1.5481     0.8655 C.2     
   4 N4             1.7205     0.4470     1.1120 N.2     
   5 C5             0.9233    -0.5914     1.2098 C.2     
   6 C6             1.3478    -1.9843     1.4666 C.ar    
   7 C7             1.4892     2.9194     0.6916 C.2     
   8 O8             0.7169     3.8328     0.4718 O.2     
   9 C9             3.3204     4.5244     0.6031 C.3     
  10 N10            2.8124     3.1612     0.7760 N.am    
  11 C11            3.5118     4.8121    -0.8873 C.3     
  12 C12            2.1516     4.8004    -1.5878 C.3     
  13 C13            4.1636     6.1852    -1.0621 C.3     
  14 C14            4.4115     3.7384    -1.5026 C.3     
  15 C15            4.6415     4.6622     1.3150 C.2     
  16 N16            5.1797     5.8829     1.5064 N.am    
  17 O17            5.2203     3.6747     1.7158 O.2     
  18 C18            6.4971     6.0124     2.1340 C.3     
  19 C19           -1.5755    -0.9905     1.0955 C.3     
  20 C20           -2.4695    -0.6560    -0.1025 C.3     
  21 C21           -3.3824     0.5151     0.2471 C.3     
  22 N22           -2.7115     1.4529     1.1497 N.3     
  23 C23           -1.5197     2.0402     0.5200 C.3     
  24 C24           -3.6367     2.4997     1.6039 C.3     
  25 C25            0.4915    -2.8638     2.1318 C.ar    
  26 C26            0.8864    -4.1611     2.3717 C.ar    
  27 C27            2.1417    -4.5980     1.9503 C.ar    
  28 C28            3.0000    -3.7196     1.2841 C.ar    
  29 C29            2.6028    -2.4218     1.0389 C.ar    
  30 F30            4.2163    -4.1428     0.8757 F       
  31 C31            2.5660    -5.9948     2.2097 C.ar    
  32 C32            3.0817    -6.7730     1.1744 C.ar    
  33 C33            2.4561    -6.5330     3.4909 C.ar    
  34 C34            2.8530    -7.8335     3.7265 C.ar    
  35 C35            3.3596    -8.6026     2.6943 C.ar    
  36 C36            3.4754    -8.0723     1.4219 C.ar    
  37 H37            2.6065     5.2339     1.0214 H       
  38 H38            3.4283     2.4326     0.9513 H       
  39 H39            1.5106     5.5653    -1.1495 H       
  40 H40            2.2879     5.0053    -2.6496 H       
  41 H41            1.6872     3.8221    -1.4633 H       
  42 H42            5.1208     6.2020    -0.5409 H       
  43 H43            4.3240     6.3789    -2.1227 H       
  44 H44            3.5104     6.9529    -0.6472 H       
  45 H45            3.9471     2.7602    -1.3781 H       
  46 H46            4.5479     3.9434    -2.5644 H       
  47 H47            5.3806     3.7467    -1.0036 H       
  48 H48            4.6948     6.6758     1.2286 H       
  49 H49            6.7642     7.0669     2.2040 H       
  50 H50            6.4678     5.5780     3.1333 H       
  51 H51            7.2395     5.4887     1.5318 H       
  52 H52           -1.3034    -2.0455     1.0635 H       
  53 H53           -2.1122    -0.7798     2.0205 H       
  54 H54           -1.8466    -0.3879    -0.9559 H       
  55 H55           -3.0760    -1.5253    -0.3563 H       
  56 H56           -3.6615     1.0369    -0.6683 H       
  57 H57           -4.2826     0.1353     0.7302 H       
  58 H58           -1.3457     3.0362     0.9272 H       
  59 H59           -1.6725     2.1075    -0.5572 H       
  60 H60           -4.4719     2.0415     2.1337 H       
  61 H61           -3.1128     3.1824     2.2728 H       
  62 H62           -4.0120     3.0518     0.7422 H       
  63 H63           -0.4810    -2.5264     2.4586 H       
  64 H64            0.2236    -4.8404     2.8870 H       
  65 H65            3.2654    -1.7420     0.5240 H       
  66 H66            3.1726    -6.3601     0.1807 H       
  67 H67            2.0614    -5.9332     4.2977 H       
  68 H68            2.7683    -8.2515     4.7187 H       
  69 H69            3.6696    -9.6197     2.8834 H       
  70 H70            3.8713    -8.6776     0.6197 H       
@<TRIPOS>BOND
   1    1    2 1
   2    1    3 2
   3    1   23 1
   4    2   19 1
   5    2    5 1
   6    3    4 1
   7    3    7 1
   8    4    5 2
   9    5    6 1
  10    6   25 ar
  11    6   29 ar
  12    7    8 2
  13    7   10 am
  14    9   10 1
  15    9   11 1
  16    9   15 1
  17    9   37 1
  18   10   38 1
  19   11   12 1
  20   11   13 1
  21   11   14 1
  22   12   39 1
  23   12   40 1
  24   12   41 1
  25   13   42 1
  26   13   43 1
  27   13   44 1
  28   14   45 1
  29   14   46 1
  30   14   47 1
  31   15   16 am
  32   15   17 2
  33   16   18 1
  34   16   48 1
  35   18   49 1
  36   18   50 1
  37   18   51 1
  38   19   20 1
  39   19   52 1
  40   19   53 1
  41   20   21 1
  42   20   54 1
  43   20   55 1
  44   21   22 1
  45   21   56 1
  46   21   57 1
  47   22   23 1
  48   22   24 1
  49   23   58 1
  50   23   59 1
  51   24   60 1
  52   24   61 1
  53   24   62 1
  54   25   26 ar
  55   25   63 1
  56   26   27 ar
  57   26   64 1
  58   27   28 ar
  59   27   31 1
  60   28   29 ar
  61   28   30 1
  62   29   65 1
  63   31   32 ar
  64   31   33 ar
  65   32   36 ar
  66   32   66 1
  67   33   34 ar
  68   33   67 1
  69   34   35 ar
  70   34   68 1
  71   35   36 ar
  72   35   69 1
  73   36   70 1

#	End of record

