#	Name: ASD01917075
#	Creating user name:	WinNT
#	Creation time:	15. 06. 2019 20:08

#	Modifying user name:	WinNT
#	Modification time:	15. 06. 2019 20:08

#	Program:	/corina/corina34_cracker 3.40 0067  02.08.2006

@<TRIPOS>MOLECULE
ASD01917075
  41   43    0    0    0
SMALL
NO_CHARGES


@<TRIPOS>ATOM
   1 C1            -0.0425     1.4708     0.1516 C.ar    
   2 C2            -0.0085    -0.0060     0.0634 C.2     
   3 N3             1.0564    -0.7654     0.2106 N.2     
   4 C4             0.7170    -2.0511     0.0660 C.2     
   5 N5            -0.5741    -2.1275    -0.1762 N.2     
   6 N6            -1.0679    -0.8129    -0.1769 N.pl3   
   7 C7            -2.4543    -0.3967    -0.4029 C.3     
   8 C8            -3.1970    -0.3904     0.9084 C.2     
   9 O9            -4.4919    -0.0390     0.9445 O.3     
  10 O10           -2.6267    -0.7016     1.9271 O.2     
  11 C11           -5.1435    -0.0557     2.2420 C.3     
  12 C12            1.6459    -3.2042     0.1625 C.ar    
  13 C13           -1.2475     2.1304     0.3942 C.ar    
  14 C14            2.9981    -2.9914     0.4247 C.ar    
  15 C15            3.8590    -4.0651     0.5144 C.ar    
  16 C16            3.3799    -5.3568     0.3433 C.ar    
  17 C17            2.0336    -5.5718     0.0815 C.ar    
  18 C18            1.1669    -4.5024    -0.0031 C.ar    
  19 C19           -1.2725     3.5076     0.4758 C.ar    
  20 C20           -0.1059     4.2341     0.3175 C.ar    
  21 C21            1.0922     3.5858     0.0763 C.ar    
  22 C22            1.1313     2.2088    -0.0018 C.ar    
  23 O23            4.2305    -6.4127     0.4317 O.3     
  24 C24            3.6706    -7.7141     0.2451 C.3     
  25 F25            2.6869    -7.9418     1.2134 F       
  26 F26            3.0990    -7.7976    -1.0290 F       
  27 H27           -2.4675     0.6048    -0.8328 H       
  28 H28           -2.9354    -1.0932    -1.0896 H       
  29 H29           -6.1843     0.2481     2.1299 H       
  30 H30           -5.1016    -1.0629     2.6567 H       
  31 H31           -4.6337     0.6352     2.9135 H       
  32 H32           -2.1590     1.5644     0.5176 H       
  33 H33            3.3714    -1.9867     0.5572 H       
  34 H34            4.9069    -3.9008     0.7175 H       
  35 H35            1.6638    -6.5777    -0.0518 H       
  36 H36            0.1195    -4.6702    -0.2064 H       
  37 H37           -2.2049     4.0194     0.6632 H       
  38 H38           -0.1306     5.3119     0.3823 H       
  39 H39            1.9995     4.1585    -0.0467 H       
  40 H40            2.0673     1.7038    -0.1899 H       
  41 H41            4.4554    -8.4645     0.3411 H       
@<TRIPOS>BOND
   1    1    2 1
   2    1   13 ar
   3    1   22 ar
   4    2    3 2
   5    2    6 1
   6    3    4 1
   7    4    5 2
   8    4   12 1
   9    5    6 1
  10    6    7 1
  11    7    8 1
  12    7   27 1
  13    7   28 1
  14    8    9 1
  15    8   10 2
  16    9   11 1
  17   11   29 1
  18   11   30 1
  19   11   31 1
  20   12   14 ar
  21   12   18 ar
  22   13   19 ar
  23   13   32 1
  24   14   15 ar
  25   14   33 1
  26   15   16 ar
  27   15   34 1
  28   16   17 ar
  29   16   23 1
  30   17   18 ar
  31   17   35 1
  32   18   36 1
  33   19   20 ar
  34   19   37 1
  35   20   21 ar
  36   20   38 1
  37   21   22 ar
  38   21   39 1
  39   22   40 1
  40   23   24 1
  41   24   25 1
  42   24   26 1
  43   24   41 1

#	End of record

