#	Name: ASD01811654
#	Creating user name:	WinNT
#	Creation time:	15. 06. 2019 19:27

#	Modifying user name:	WinNT
#	Modification time:	15. 06. 2019 19:27

#	Program:	/corina/corina34_cracker 3.40 0067  02.08.2006

@<TRIPOS>MOLECULE
ASD01811654
  70   75    0    0    0
SMALL
NO_CHARGES


@<TRIPOS>ATOM
   1 C1            -0.0167     1.3788     0.0096 C.ar    
   2 C2             0.0021    -0.0041     0.0020 C.ar    
   3 C3             1.2021    -0.6839    -0.0136 C.ar    
   4 C4             2.4054     0.0172    -0.0213 C.ar    
   5 C5             2.3746     1.4098    -0.0126 C.ar    
   6 C6             1.1737     2.0836     0.0020 C.ar    
   7 N7             3.7265    -0.4370    -0.0372 N.am    
   8 C8             4.6130     0.5792    -0.0365 C.2     
   9 C9             3.8084     1.8453    -0.0209 C.3     
  10 C10            4.1334     2.7509    -1.2172 C.3     
  11 N11            5.3105     3.5325    -0.7873 N.am    
  12 C12            5.3515     3.5571     0.6832 C.3     
  13 C13            4.1497     2.7284     1.1911 C.3     
  14 C14            6.2009     4.1253    -1.6072 C.2     
  15 O15            7.2370     4.8131    -1.0913 O.3     
  16 O16            6.0686     4.0390    -2.8120 O.2     
  17 C17            8.1565     5.4254    -2.0337 C.3     
  18 C18            7.3978     6.4223    -2.9120 C.3     
  19 C19            9.2598     6.1575    -1.2673 C.3     
  20 C20            8.7806     4.3414    -2.9148 C.3     
  21 O21            5.8223     0.4876    -0.0464 O.2     
  22 C22            4.1047    -1.8522    -0.0524 C.3     
  23 C23            4.2219    -2.3256    -1.4783 C.ar    
  24 C24            5.4360    -2.2323    -2.1390 C.ar    
  25 C25            5.5487    -2.6650    -3.4468 C.ar    
  26 C26            4.4376    -3.1964    -4.1013 C.ar    
  27 C27            3.2175    -3.2881    -3.4316 C.ar    
  28 C28            3.1167    -2.8578    -2.1220 C.ar    
  29 F29            1.9355    -2.9461    -1.4723 F       
  30 F30            6.5114    -1.7170    -1.5041 F       
  31 C31            4.5527    -3.6610    -5.5025 C.ar    
  32 C32            4.0669    -4.9854    -5.8931 C.ar    
  33 C33            4.2071    -5.3935    -7.2996 C.ar    
  34 C34            4.8024    -4.4931    -8.2082 C.ar    
  35 C35            5.2354    -3.2783    -7.7899 C.ar    
  36 C36            5.1152    -2.8521    -6.4697 C.ar    
  37 C37            3.4635    -6.0357    -5.2368 C.2     
  38 N38            3.2432    -7.0096    -6.1322 N.pl3   
  39 N39            3.7008    -6.6100    -7.3933 N.2     
  40 C40            2.6170    -8.3001    -5.8346 C.3     
  41 H41           -0.9585     1.9073     0.0170 H       
  42 H42           -0.9273    -0.5542     0.0087 H       
  43 H43            1.2086    -1.7639    -0.0195 H       
  44 H44            1.1612     3.1635     0.0073 H       
  45 H45            4.3761     2.1499    -2.0936 H       
  46 H46            3.2948     3.4137    -1.4306 H       
  47 H47            6.2828     3.1136     1.0354 H       
  48 H48            5.2701     4.5842     1.0390 H       
  49 H49            3.3117     3.3781     1.4436 H       
  50 H50            4.4365     2.1163     2.0462 H       
  51 H51            6.9531     7.1946    -2.2842 H       
  52 H52            8.0880     6.8819    -3.6194 H       
  53 H53            6.6117     5.9007    -3.4580 H       
  54 H54            9.8003     5.4473    -0.6415 H       
  55 H55            9.9500     6.6172    -1.9747 H       
  56 H56            8.8152     6.9298    -0.6395 H       
  57 H57            7.9945     3.8198    -3.4608 H       
  58 H58            9.4708     4.8010    -3.6222 H       
  59 H59            9.3211     3.6311    -2.2890 H       
  60 H60            5.0627    -1.9777     0.4520 H       
  61 H61            3.3432    -2.4374     0.4632 H       
  62 H62            6.4956    -2.5915    -3.9611 H       
  63 H63            2.3541    -3.6984    -3.9342 H       
  64 H64            4.9145    -4.7739    -9.2450 H       
  65 H65            5.6873    -2.6126    -8.5104 H       
  66 H66            5.4782    -1.8728    -6.1947 H       
  67 H67            3.2124    -6.0689    -4.1870 H       
  68 H68            1.5382    -8.2200    -5.9687 H       
  69 H69            3.0116    -9.0597    -6.5094 H       
  70 H70            2.8352    -8.5808    -4.8042 H       
@<TRIPOS>BOND
   1    1    2 ar
   2    1    6 ar
   3    1   41 1
   4    2    3 ar
   5    2   42 1
   6    3    4 ar
   7    3   43 1
   8    4    5 ar
   9    4    7 1
  10    5    6 ar
  11    5    9 1
  12    6   44 1
  13    7    8 am
  14    7   22 1
  15    8    9 1
  16    8   21 2
  17    9   10 1
  18    9   13 1
  19   10   11 1
  20   10   45 1
  21   10   46 1
  22   11   12 1
  23   11   14 am
  24   12   13 1
  25   12   47 1
  26   12   48 1
  27   13   49 1
  28   13   50 1
  29   14   15 1
  30   14   16 2
  31   15   17 1
  32   17   18 1
  33   17   19 1
  34   17   20 1
  35   18   51 1
  36   18   52 1
  37   18   53 1
  38   19   54 1
  39   19   55 1
  40   19   56 1
  41   20   57 1
  42   20   58 1
  43   20   59 1
  44   22   23 1
  45   22   60 1
  46   22   61 1
  47   23   24 ar
  48   23   28 ar
  49   24   25 ar
  50   24   30 1
  51   25   26 ar
  52   25   62 1
  53   26   27 ar
  54   26   31 1
  55   27   28 ar
  56   27   63 1
  57   28   29 1
  58   31   32 ar
  59   31   36 ar
  60   32   33 ar
  61   32   37 2
  62   33   34 ar
  63   33   39 2
  64   34   35 ar
  65   34   64 1
  66   35   36 ar
  67   35   65 1
  68   36   66 1
  69   37   38 1
  70   37   67 1
  71   38   39 1
  72   38   40 1
  73   40   68 1
  74   40   69 1
  75   40   70 1

#	End of record

