#	Name: ASD01880812
#	Creating user name:	WinNT
#	Creation time:	15. 06. 2019 19:41

#	Modifying user name:	WinNT
#	Modification time:	15. 06. 2019 19:41

#	Program:	/corina/corina34_cracker 3.40 0067  02.08.2006

@<TRIPOS>MOLECULE
ASD01880812
  57   60    0    0    0
SMALL
NO_CHARGES


@<TRIPOS>ATOM
   1 N1            -0.0158     1.3136     0.0093 N.ar    
   2 C2             0.0021    -0.0041     0.0020 C.ar    
   3 N3             1.1321    -0.6824    -0.0120 N.ar    
   4 C4             2.2981    -0.0570    -0.0197 C.ar    
   5 C5             2.3199     1.3290    -0.0130 C.ar    
   6 C6             1.1114     2.0071     0.0022 C.ar    
   7 C7             3.6262     2.0803    -0.0209 C.3     
   8 O8             4.0270     2.3245    -1.3706 O.3     
   9 C9             5.1917     2.9962    -1.5555 C.ar    
  10 C10            5.6406     3.2675    -2.8444 C.ar    
  11 C11            6.8186     3.9473    -3.0300 C.ar    
  12 C12            7.5727     4.3703    -1.9303 C.ar    
  13 C13            7.1171     4.0955    -0.6379 C.ar    
  14 C14            5.9321     3.4174    -0.4574 C.ar    
  15 C15            7.5713     4.3929    -4.2590 C.3     
  16 N16            8.7743     5.0803    -3.7758 N.am    
  17 C17            8.7710     5.0650    -2.4319 C.2     
  18 O18            9.6342     5.5552    -1.7298 O.2     
  19 C19           -1.3043    -0.7553     0.0105 C.3     
  20 C20            3.5851    -0.8409    -0.0352 C.3     
  21 C21            7.9191     4.5445     0.5563 C.3     
  22 C22            1.0812     3.5137     0.0096 C.3     
  23 C23            1.0571     4.0227    -1.4086 C.ar    
  24 C24           -0.1509     4.2320    -2.0473 C.ar    
  25 C25           -0.1730     4.6988    -3.3483 C.ar    
  26 C26            1.0127     4.9567    -4.0104 C.ar    
  27 C27            2.2206     4.7482    -3.3714 C.ar    
  28 C28            2.2427     4.2855    -2.0689 C.ar    
  29 C29            9.4496     7.1440    -4.9012 C.3     
  30 C30            9.8088     5.6837    -4.6195 C.3     
  31 H31            3.5022     3.0303     0.4989 H       
  32 H32            4.3894     1.4874     0.4831 H       
  33 H33            5.0631     2.9433    -3.6975 H       
  34 H34            5.5804     3.2058     0.5416 H       
  35 H35            7.8503     3.5284    -4.8614 H       
  36 H36            6.9588     5.0773    -4.8459 H       
  37 H37           -1.6291    -0.9309    -1.0151 H       
  38 H38           -1.1707    -1.7107     0.5179 H       
  39 H39           -2.0580    -0.1677     0.5347 H       
  40 H40            3.8860    -1.0251    -1.0666 H       
  41 H41            4.3631    -0.2722     0.4741 H       
  42 H42            3.4372    -1.7924     0.4755 H       
  43 H43            7.6005     5.5437     0.8531 H       
  44 H44            7.7593     3.8518     1.3825 H       
  45 H45            8.9777     4.5627     0.2970 H       
  46 H46            0.1893     3.8567     0.5340 H       
  47 H47            1.9688     3.8925     0.5165 H       
  48 H48           -1.0773     4.0305    -1.5301 H       
  49 H49           -1.1168     4.8617    -3.8476 H       
  50 H50            0.9954     5.3207    -5.0271 H       
  51 H51            3.1471     4.9493    -3.8888 H       
  52 H52            3.1864     4.1226    -1.5696 H       
  53 H53            8.4895     7.1894    -5.4152 H       
  54 H54            9.3841     7.6901    -3.9601 H       
  55 H55           10.2194     7.5930    -5.5289 H       
  56 H56           10.7690     5.6384    -4.1055 H       
  57 H57            9.8743     5.1377    -5.5606 H       
@<TRIPOS>BOND
   1    1    2 ar
   2    1    6 ar
   3    2    3 ar
   4    2   19 1
   5    3    4 ar
   6    4    5 ar
   7    4   20 1
   8    5    6 ar
   9    5    7 1
  10    6   22 1
  11    7    8 1
  12    7   31 1
  13    7   32 1
  14    8    9 1
  15    9   10 ar
  16    9   14 ar
  17   10   11 ar
  18   10   33 1
  19   11   12 ar
  20   11   15 1
  21   12   13 ar
  22   12   17 1
  23   13   14 ar
  24   13   21 1
  25   14   34 1
  26   15   16 1
  27   15   35 1
  28   15   36 1
  29   16   17 am
  30   16   30 1
  31   17   18 2
  32   19   37 1
  33   19   38 1
  34   19   39 1
  35   20   40 1
  36   20   41 1
  37   20   42 1
  38   21   43 1
  39   21   44 1
  40   21   45 1
  41   22   23 1
  42   22   46 1
  43   22   47 1
  44   23   24 ar
  45   23   28 ar
  46   24   25 ar
  47   24   48 1
  48   25   26 ar
  49   25   49 1
  50   26   27 ar
  51   26   50 1
  52   27   28 ar
  53   27   51 1
  54   28   52 1
  55   29   30 1
  56   29   53 1
  57   29   54 1
  58   29   55 1
  59   30   56 1
  60   30   57 1

#	End of record

