#	Name: ASD01840031
#	Creating user name:	WinNT
#	Creation time:	15. 06. 2019 19:37

#	Modifying user name:	WinNT
#	Modification time:	15. 06. 2019 19:37

#	Program:	/corina/corina34_cracker 3.40 0067  02.08.2006

@<TRIPOS>MOLECULE
ASD01840031
  38   40    0    0    0
SMALL
NO_CHARGES


@<TRIPOS>ATOM
   1 C1             0.5665     1.7968    -1.3121 C.ar    
   2 C2             0.8610     0.6594    -2.0290 C.ar    
   3 C3             2.1247     0.0964    -1.9257 C.ar    
   4 N4             3.0437     0.6298    -1.1556 N.ar    
   5 C5             2.8181     1.7327    -0.4358 C.ar    
   6 C6             1.5680     2.3591    -0.4874 C.ar    
   7 S7             3.8900     2.6097     0.6496 S.3     
   8 C8             2.6623     3.8026     1.0242 C.2     
   9 C9             1.5071     3.5394     0.3576 C.2     
  10 C10           -0.7956     2.4343    -1.4090 C.3     
  11 C11            2.4473    -1.1489    -2.7107 C.3     
  12 N12            0.3726     4.3273     0.4730 N.pl3   
  13 C13            2.8485     4.8950     1.9047 C.2     
  14 C14            4.0968     5.0091     2.6867 C.ar    
  15 O15            1.9791     5.7413     2.0179 O.2     
  16 C16            4.6076     6.2685     3.0108 C.ar    
  17 C17            5.7716     6.3707     3.7399 C.ar    
  18 C18            6.4379     5.2231     4.1531 C.ar    
  19 C19            5.9333     3.9684     3.8322 C.ar    
  20 C20            4.7666     3.8579     3.1089 C.ar    
  21 O21            7.5848     5.3279     4.8714 O.3     
  22 C22            8.2183     4.1086     5.2638 C.3     
  23 H23            0.1145     0.2089    -2.6664 H       
  24 H24           -1.4195     2.0852    -0.5862 H       
  25 H25           -0.6943     3.5181    -1.3536 H       
  26 H26           -1.2582     2.1606    -2.3572 H       
  27 H27            2.8472    -0.8704    -3.6857 H       
  28 H28            3.1874    -1.7381    -2.1693 H       
  29 H29            1.5407    -1.7389    -2.8449 H       
  30 H30           -0.4970     3.9614     0.2476 H       
  31 H31            0.4483     5.2446     0.7792 H       
  32 H32            4.0906     7.1607     2.6898 H       
  33 H33            6.1672     7.3439     3.9905 H       
  34 H34            6.4541     3.0790     4.1548 H       
  35 H35            4.3723     2.8826     2.8644 H       
  36 H36            7.5359     3.5280     5.8846 H       
  37 H37            8.4804     3.5333     4.3759 H       
  38 H38            9.1218     4.3345     5.8302 H       
@<TRIPOS>BOND
   1    1    2 ar
   2    1    6 ar
   3    1   10 1
   4    2    3 ar
   5    2   23 1
   6    3    4 ar
   7    3   11 1
   8    4    5 ar
   9    5    7 1
  10    5    6 ar
  11    6    9 1
  12    7    8 1
  13    8    9 2
  14    8   13 1
  15    9   12 1
  16   10   24 1
  17   10   25 1
  18   10   26 1
  19   11   27 1
  20   11   28 1
  21   11   29 1
  22   12   30 1
  23   12   31 1
  24   13   14 1
  25   13   15 2
  26   14   16 ar
  27   14   20 ar
  28   16   17 ar
  29   16   32 1
  30   17   18 ar
  31   17   33 1
  32   18   19 ar
  33   18   21 1
  34   19   20 ar
  35   19   34 1
  36   20   35 1
  37   21   22 1
  38   22   36 1
  39   22   37 1
  40   22   38 1

#	End of record

