#	Name: ASD01918121
#	Creating user name:	WinNT
#	Creation time:	15. 06. 2019 20:10

#	Modifying user name:	WinNT
#	Modification time:	15. 06. 2019 20:10

#	Program:	/corina/corina34_cracker 3.40 0067  02.08.2006

@<TRIPOS>MOLECULE
ASD01918121
  37   39    0    0    0
SMALL
NO_CHARGES


@<TRIPOS>ATOM
   1 N1            -0.0170     1.4004     0.0112 N.am    
   2 N2             0.0019    -0.0042     0.0064 N.pl3   
   3 C3             2.4508    -0.0759    -0.5920 C.3     
   4 C4             2.1989     1.3742    -1.0222 C.3     
   5 C5             1.2967     2.0726     0.0008 C.3     
   6 C6            -0.9994    -0.8866     0.2502 C.2     
   7 C7            -0.4645    -2.1200     0.1249 C.2     
   8 N8             0.8350    -1.9817    -0.1895 N.2     
   9 C9             1.1246    -0.7183    -0.2649 C.2     
  10 C10           -1.1968    -3.4246     0.3065 C.3     
  11 O11           -2.5623    -3.1625     0.6361 O.3     
  12 C12           -1.1715     2.0959     0.0191 C.2     
  13 O13           -2.2312     1.5131    -0.0718 O.2     
  14 C14           -1.1456     3.5978     0.1409 C.3     
  15 C15           -3.3669    -4.2397     0.8344 C.ar    
  16 C16           -4.7038    -4.0582     1.1574 C.ar    
  17 C17           -5.5195    -5.1548     1.3585 C.ar    
  18 C18           -5.0046    -6.4324     1.2382 C.ar    
  19 C19           -3.6723    -6.6158     0.9169 C.ar    
  20 C20           -2.8539    -5.5225     0.7087 C.ar    
  21 H21            2.9305    -0.6208    -1.4050 H       
  22 H22            3.0917    -0.0900     0.2896 H       
  23 H23            3.1498     1.9031    -1.0867 H       
  24 H24            1.7142     1.3832    -1.9984 H       
  25 H25            1.1699     3.1188    -0.2778 H       
  26 H26            1.7483     2.0079     0.9907 H       
  27 H27           -2.0238    -0.6490     0.4967 H       
  28 H28           -1.1501    -3.9993    -0.6185 H       
  29 H29           -0.7315    -3.9934     1.1115 H       
  30 H30           -0.5166     4.0153    -0.6454 H       
  31 H31           -2.1585     3.9879     0.0414 H       
  32 H32           -0.7428     3.8764     1.1146 H       
  33 H33           -5.1064    -3.0606     1.2518 H       
  34 H34           -6.5603    -5.0141     1.6103 H       
  35 H35           -5.6439    -7.2884     1.3959 H       
  36 H36           -3.2723    -7.6147     0.8242 H       
  37 H37           -1.8134    -5.6663     0.4577 H       
@<TRIPOS>BOND
   1    1    2 1
   2    1    5 1
   3    1   12 am
   4    2    6 1
   5    2    9 1
   6    3    4 1
   7    3    9 1
   8    3   21 1
   9    3   22 1
  10    4    5 1
  11    4   23 1
  12    4   24 1
  13    5   25 1
  14    5   26 1
  15    6    7 2
  16    6   27 1
  17    7    8 1
  18    7   10 1
  19    8    9 2
  20   10   11 1
  21   10   28 1
  22   10   29 1
  23   11   15 1
  24   12   13 2
  25   12   14 1
  26   14   30 1
  27   14   31 1
  28   14   32 1
  29   15   16 ar
  30   15   20 ar
  31   16   17 ar
  32   16   33 1
  33   17   18 ar
  34   17   34 1
  35   18   19 ar
  36   18   35 1
  37   19   20 ar
  38   19   36 1
  39   20   37 1

#	End of record

