#	Name: ASD01230352
#	Creating user name:	WinNT
#	Creation time:	15. 06. 2019 19:14

#	Modifying user name:	WinNT
#	Modification time:	15. 06. 2019 19:14

#	Program:	/corina/corina34_cracker 3.40 0067  02.08.2006

@<TRIPOS>MOLECULE
ASD01230352
  48   51    0    0    0
SMALL
NO_CHARGES


@<TRIPOS>ATOM
   1 S1            -1.6210     2.7527     1.5548 S.o2    
   2 N2            -1.3521     1.2757     0.8764 N.am    
   3 C3            -0.2273     0.8822     0.4276 C.2     
   4 N4             0.9289     1.6182     0.4825 N.pl3   
   5 C5             1.1095     2.6846     1.4611 C.3     
   6 C6            -0.0645     3.6616     1.3705 C.3     
   7 C7            -0.0954    -0.4912    -0.2105 C.3     
   8 C8             1.2818    -1.0402     0.1703 C.3     
   9 C9             2.3974    -0.1596    -0.3764 C.3     
  10 C10            1.9804     1.3017    -0.4898 C.3     
  11 C11           -1.1739    -1.4050     0.3120 C.ar    
  12 C12           -2.0840    -1.9693    -0.5628 C.ar    
  13 C13           -3.0735    -2.8072    -0.0864 C.ar    
  14 C14           -3.1535    -3.0827     1.2712 C.ar    
  15 C15           -2.2387    -2.5155     2.1468 C.ar    
  16 C16           -1.2481    -1.6821     1.6646 C.ar    
  17 O17           -4.1262    -3.9063     1.7424 O.3     
  18 C18           -4.9323    -4.5237     0.8391 C.ar    
  19 C19           -4.5698    -5.7551     0.3119 C.ar    
  20 C20           -5.3905    -6.3808    -0.6060 C.ar    
  21 C21           -6.5734    -5.7806    -0.9999 C.ar    
  22 C22           -6.9367    -4.5532    -0.4757 C.ar    
  23 C23           -6.1215    -3.9264     0.4471 C.ar    
  24 C24           -4.9972    -7.7178    -1.1793 C.3     
  25 F25           -3.7721    -8.1167    -0.6341 F       
  26 F26           -5.9774    -8.6658    -0.8668 F       
  27 F27           -4.8768    -7.6121    -2.5691 F       
  28 Br28          -7.6948    -6.6394    -2.2573 Br      
  29 O29           -2.6315     3.3299     0.7393 O.2     
  30 O30           -1.8679     2.4653     2.9244 O.2     
  31 H31            1.1495     2.2562     2.4625 H       
  32 H32            2.0397     3.2140     1.2544 H       
  33 H33           -0.0478     4.1610     0.4018 H       
  34 H34            0.0187     4.4043     2.1639 H       
  35 H35           -0.1738    -0.4056    -1.2943 H       
  36 H36            1.3610    -1.0837     1.2565 H       
  37 H37            1.3898    -2.0462    -0.2352 H       
  38 H38            3.2599    -0.2302     0.2864 H       
  39 H39            2.6825    -0.5231    -1.3637 H       
  40 H40            1.6076     1.4916    -1.4963 H       
  41 H41            2.8457     1.9375    -0.3024 H       
  42 H42           -2.0213    -1.7545    -1.6193 H       
  43 H43           -3.7846    -3.2471    -0.7700 H       
  44 H44           -2.2987    -2.7284     3.2039 H       
  45 H45           -0.5334    -1.2436     2.3452 H       
  46 H46           -3.6465    -6.2237     0.6188 H       
  47 H47           -7.8602    -4.0863    -0.7848 H       
  48 H48           -6.4078    -2.9703     0.8597 H       
@<TRIPOS>BOND
   1    1    2 am
   2    1    6 1
   3    1   29 2
   4    1   30 2
   5    2    3 2
   6    3    4 1
   7    3    7 1
   8    4    5 1
   9    4   10 1
  10    5    6 1
  11    5   31 1
  12    5   32 1
  13    6   33 1
  14    6   34 1
  15    7    8 1
  16    7   11 1
  17    7   35 1
  18    8    9 1
  19    8   36 1
  20    8   37 1
  21    9   10 1
  22    9   38 1
  23    9   39 1
  24   10   40 1
  25   10   41 1
  26   11   12 ar
  27   11   16 ar
  28   12   13 ar
  29   12   42 1
  30   13   14 ar
  31   13   43 1
  32   14   15 ar
  33   14   17 1
  34   15   16 ar
  35   15   44 1
  36   16   45 1
  37   17   18 1
  38   18   19 ar
  39   18   23 ar
  40   19   20 ar
  41   19   46 1
  42   20   21 ar
  43   20   24 1
  44   21   22 ar
  45   21   28 1
  46   22   23 ar
  47   22   47 1
  48   23   48 1
  49   24   25 1
  50   24   26 1
  51   24   27 1

#	End of record

