#	Name: ASD01917099
#	Creating user name:	WinNT
#	Creation time:	15. 06. 2019 20:08

#	Modifying user name:	WinNT
#	Modification time:	15. 06. 2019 20:08

#	Program:	/corina/corina34_cracker 3.40 0067  02.08.2006

@<TRIPOS>MOLECULE
ASD01917099
  37   39    0    0    0
SMALL
NO_CHARGES


@<TRIPOS>ATOM
   1 C1            -0.0661     1.4718    -0.1207 C.ar    
   2 C2            -0.0188    -0.0055    -0.0548 C.2     
   3 N3            -0.9974    -0.7941     0.3364 N.2     
   4 C4            -0.6031    -2.0704     0.2672 C.2     
   5 N5             0.6368    -2.1115    -0.1708 N.2     
   6 N6             1.0362    -0.7835    -0.3917 N.pl3   
   7 C7             2.3398    -0.3296    -0.8826 C.3     
   8 C8             2.3254    -0.2960    -2.3891 C.2     
   9 O9             3.4199     0.0918    -3.0623 O.3     
  10 O10            1.3285    -0.6182    -2.9911 O.2     
  11 C11           -1.4300    -3.2491     0.6270 C.ar    
  12 C12            0.8408     2.1660    -0.9219 C.ar    
  13 C13           -0.9037    -4.5340     0.5112 C.ar    
  14 C14           -1.6770    -5.6266     0.8476 C.ar    
  15 C15           -2.9722    -5.4478     1.2990 C.ar    
  16 C16           -3.4997    -4.1745     1.4158 C.ar    
  17 C17           -2.7334    -3.0746     1.0871 C.ar    
  18 C18            0.7923     3.5433    -0.9804 C.ar    
  19 C19           -0.1548     4.2373    -0.2446 C.ar    
  20 C20           -1.0581     3.5523     0.5530 C.ar    
  21 C21           -1.0216     2.1752     0.6138 C.ar    
  22 F22           -0.1977     5.5863    -0.3045 F       
  23 C23           -2.0851     4.3136     1.3510 C.3     
  24 H24            2.5445     0.6699    -0.4988 H       
  25 H25            3.1153    -1.0155    -0.5418 H       
  26 H26            3.3628     0.0971    -4.0276 H       
  27 H27            1.5797     1.6259    -1.4952 H       
  28 H28            0.1074    -4.6747     0.1586 H       
  29 H29           -1.2701    -6.6230     0.7580 H       
  30 H30           -3.5739    -6.3056     1.5608 H       
  31 H31           -4.5115    -4.0405     1.7687 H       
  32 H32           -3.1463    -2.0808     1.1787 H       
  33 H33            1.4939     4.0816    -1.6003 H       
  34 H34           -1.7260     1.6423     1.2353 H       
  35 H35           -2.9878     4.4412     0.7535 H       
  36 H36           -2.3251     3.7585     2.2578 H       
  37 H37           -1.6853     5.2916     1.6187 H       
@<TRIPOS>BOND
   1    1    2 1
   2    1   12 ar
   3    1   21 ar
   4    2    3 2
   5    2    6 1
   6    3    4 1
   7    4    5 2
   8    4   11 1
   9    5    6 1
  10    6    7 1
  11    7    8 1
  12    7   24 1
  13    7   25 1
  14    8    9 1
  15    8   10 2
  16    9   26 1
  17   11   13 ar
  18   11   17 ar
  19   12   18 ar
  20   12   27 1
  21   13   14 ar
  22   13   28 1
  23   14   15 ar
  24   14   29 1
  25   15   16 ar
  26   15   30 1
  27   16   17 ar
  28   16   31 1
  29   17   32 1
  30   18   19 ar
  31   18   33 1
  32   19   20 ar
  33   19   22 1
  34   20   21 ar
  35   20   23 1
  36   21   34 1
  37   23   35 1
  38   23   36 1
  39   23   37 1

#	End of record

