#	Name: ASD01840176
#	Creating user name:	WinNT
#	Creation time:	15. 06. 2019 19:37

#	Modifying user name:	WinNT
#	Modification time:	15. 06. 2019 19:37

#	Program:	/corina/corina34_cracker 3.40 0067  02.08.2006

@<TRIPOS>MOLECULE
ASD01840176
  47   50    0    0    0
SMALL
NO_CHARGES


@<TRIPOS>ATOM
   1 C1            -1.7299     1.4524    -0.1139 C.3     
   2 C2            -1.8098    -0.0841    -0.0632 C.3     
   3 N3            -1.2714    -0.7422    -1.2561 N.am    
   4 C4            -1.7006    -1.9731    -1.5983 C.2     
   5 C5            -1.1632    -2.6300    -2.7890 C.2     
   6 O6            -2.5358    -2.5381    -0.9160 O.2     
   7 C7            -1.5296    -3.8639    -3.2158 C.2     
   8 C8            -0.8528    -4.2964    -4.4245 C.ar    
   9 C9             0.0486    -3.3358    -4.9026 C.ar    
  10 S10            0.0340    -1.9231    -3.8564 S.3     
  11 C11           -0.9715    -5.5001    -5.1559 C.ar    
  12 C12           -0.1974    -5.6506    -6.2855 C.ar    
  13 N13            0.6270    -4.6875    -6.6603 N.ar    
  14 N14            0.7473    -3.5899    -6.0114 N.ar    
  15 C15           -0.2904    -6.9175    -7.0963 C.3     
  16 C16           -1.9165    -6.5871    -4.7127 C.3     
  17 N17           -2.4689    -4.6441    -2.5552 N.pl3   
  18 C18           -0.8085     0.0007     1.1029 C.3     
  19 N19           -0.4075     1.3062     0.5334 N.3     
  20 C20           -0.2346     2.2595     1.5398 C.ar    
  21 C21           -1.2098     2.4413     2.5131 C.ar    
  22 C22            0.9192     3.0364     1.5851 C.ar    
  23 C23            1.0450     3.9711     2.6062 C.ar    
  24 C24            0.0238     4.0960     3.5373 C.ar    
  25 N25           -1.0531     3.3388     3.4653 N.ar    
  26 O26            2.1539     4.7523     2.6916 O.3     
  27 C27            2.2065     5.6882     3.7702 C.3     
  28 H28           -1.6817     1.8565    -1.1251 H       
  29 H29           -2.4714     1.9515     0.5099 H       
  30 H30           -2.7903    -0.4631     0.2251 H       
  31 H31           -0.6060    -0.2921    -1.7997 H       
  32 H32           -1.0602    -6.8046    -7.8597 H       
  33 H33            0.6693    -7.1141    -7.5743 H       
  34 H34           -0.5474    -7.7500    -6.4414 H       
  35 H35           -2.9163    -6.3765    -5.0926 H       
  36 H36           -1.5748    -7.5464    -5.1014 H       
  37 H37           -1.9421    -6.6246    -3.6237 H       
  38 H38           -2.6797    -4.4660    -1.6253 H       
  39 H39           -2.9144    -5.3674    -3.0235 H       
  40 H40           -1.2805     0.0753     2.0825 H       
  41 H41           -0.0239    -0.7550     1.0639 H       
  42 H42           -2.1068     1.8403     2.4887 H       
  43 H43            1.6972     2.9159     0.8459 H       
  44 H44            0.1141     4.8200     4.3337 H       
  45 H45            1.3669     6.3790     3.6931 H       
  46 H46            2.1512     5.1535     4.7184 H       
  47 H47            3.1417     6.2461     3.7217 H       
@<TRIPOS>BOND
   1    1    2 1
   2    1   19 1
   3    1   28 1
   4    1   29 1
   5    2    3 1
   6    2   18 1
   7    2   30 1
   8    3    4 am
   9    3   31 1
  10    4    5 1
  11    4    6 2
  12    5    7 2
  13    5   10 1
  14    7    8 1
  15    7   17 1
  16    8    9 ar
  17    8   11 ar
  18    9   10 1
  19    9   14 ar
  20   11   12 ar
  21   11   16 1
  22   12   13 ar
  23   12   15 1
  24   13   14 ar
  25   15   32 1
  26   15   33 1
  27   15   34 1
  28   16   35 1
  29   16   36 1
  30   16   37 1
  31   17   38 1
  32   17   39 1
  33   18   19 1
  34   18   40 1
  35   18   41 1
  36   19   20 1
  37   20   22 ar
  38   20   21 ar
  39   21   25 ar
  40   21   42 1
  41   22   23 ar
  42   22   43 1
  43   23   24 ar
  44   23   26 1
  45   24   25 ar
  46   24   44 1
  47   26   27 1
  48   27   45 1
  49   27   46 1
  50   27   47 1

#	End of record

