#	Name: ASD01870692
#	Creating user name:	WinNT
#	Creation time:	15. 06. 2019 19:39

#	Modifying user name:	WinNT
#	Modification time:	15. 06. 2019 19:39

#	Program:	/corina/corina34_cracker 3.40 0067  02.08.2006

@<TRIPOS>MOLECULE
ASD01870692
  45   48    0    0    0
SMALL
NO_CHARGES


@<TRIPOS>ATOM
   1 N1            -0.0056     1.2917     0.2633 N.2     
   2 C2            -0.0036     0.0191    -0.0415 C.2     
   3 C3             1.3246    -0.3796    -0.2076 C.2     
   4 C4             2.0802     0.7566     0.0242 C.2     
   5 N5             1.1919     1.7540     0.3103 N.pl3   
   6 C6             3.5467     0.8677    -0.0267 C.2     
   7 N7             4.1276     2.0797    -0.1275 N.am    
   8 O8             4.2346    -0.1342     0.0222 O.2     
   9 C9             6.1134     2.7393    -1.3842 C.3     
  10 C10            5.5881     2.2306    -0.0395 C.3     
  11 C11            3.3213     3.2927    -0.3353 C.3     
  12 C12            5.2476     3.8882    -1.8555 C.2     
  13 C13            5.6574     4.8510    -2.8618 C.2     
  14 C14            4.0130     4.1292    -1.3966 C.2     
  15 S15            3.3144     5.5327    -2.1859 S.3     
  16 C16            4.7051     5.7921    -3.1332 C.2     
  17 C17            6.9332     4.8141    -3.5111 C.1     
  18 N18            7.9453     4.7848    -4.0262 N.1     
  19 N19            4.8510     6.8183    -4.0547 N.am    
  20 C20            3.8482     7.6976    -4.2485 C.2     
  21 C21            4.0036     8.7903    -5.2296 C.ar    
  22 C22            5.1865     8.9114    -5.9624 C.ar    
  23 C23            2.9659     9.7030    -5.4325 C.ar    
  24 C24            3.1161    10.7206    -6.3499 C.ar    
  25 C25            4.2947    10.8392    -7.0707 C.ar    
  26 C26            5.3260     9.9328    -6.8772 C.ar    
  27 F27            4.4364    11.8383    -7.9690 F       
  28 C28           -1.2188    -0.8603    -0.1869 C.3     
  29 O29            2.8156     7.5913    -3.6155 O.2     
  30 H30            1.6855    -1.3652    -0.4622 H       
  31 H31            1.4291     2.6715     0.5174 H       
  32 H32            7.1406     3.0844    -1.2670 H       
  33 H33            6.0802     1.9330    -2.1169 H       
  34 H34            5.8347     2.9472     0.7438 H       
  35 H35            6.0419     1.2662     0.1888 H       
  36 H36            2.3220     3.0188    -0.6737 H       
  37 H37            3.2556     3.8567     0.5951 H       
  38 H38            5.6748     6.9031    -4.5597 H       
  39 H39            5.9906     8.2061    -5.8121 H       
  40 H40            2.0474     9.6113    -4.8718 H       
  41 H41            2.3143    11.4267    -6.5078 H       
  42 H42            6.2402    10.0274    -7.4443 H       
  43 H43           -1.5649    -0.8337    -1.2202 H       
  44 H44           -0.9608    -1.8842     0.0835 H       
  45 H45           -2.0095    -0.4991     0.4706 H       
@<TRIPOS>BOND
   1    1    2 2
   2    1    5 1
   3    2    3 1
   4    2   28 1
   5    3    4 2
   6    3   30 1
   7    4    5 1
   8    4    6 1
   9    5   31 1
  10    6    7 am
  11    6    8 2
  12    7   11 1
  13    7   10 1
  14    9   10 1
  15    9   12 1
  16    9   32 1
  17    9   33 1
  18   10   34 1
  19   10   35 1
  20   11   14 1
  21   11   36 1
  22   11   37 1
  23   12   14 2
  24   12   13 1
  25   13   16 2
  26   13   17 1
  27   14   15 1
  28   15   16 1
  29   16   19 1
  30   17   18 3
  31   19   20 am
  32   19   38 1
  33   20   21 1
  34   20   29 2
  35   21   23 ar
  36   21   22 ar
  37   22   26 ar
  38   22   39 1
  39   23   24 ar
  40   23   40 1
  41   24   25 ar
  42   24   41 1
  43   25   26 ar
  44   25   27 1
  45   26   42 1
  46   28   43 1
  47   28   44 1
  48   28   45 1

#	End of record

