#	Name: ASD04230015
#	Creating user name:	WinNT
#	Creation time:	15. 06. 2019 20:48

#	Modifying user name:	WinNT
#	Modification time:	15. 06. 2019 20:48

#	Program:	/corina/corina34_cracker 3.40 0067  02.08.2006

@<TRIPOS>MOLECULE
ASD04230015
  44   48    0    0    0
SMALL
NO_CHARGES


@<TRIPOS>ATOM
   1 C1             1.5194     4.6811     1.7152 C.ar    
   2 C2             2.5220     5.3860     2.3662 C.ar    
   3 C3             3.7815     4.8678     2.4667 C.ar    
   4 C4             4.0684     3.6184     1.8997 C.ar    
   5 C5             3.0439     2.8879     1.2679 C.ar    
   6 C6             1.7732     3.4390     1.1708 C.ar    
   7 C7             5.3809     3.0829     1.9616 C.2     
   8 C8             5.6543     1.9440     1.2154 C.2     
   9 C9             4.5606     1.3994     0.3904 C.2     
  10 O10            3.2901     1.6494     0.7791 O.3     
  11 C11            6.9815     1.3073     1.2465 C.2     
  12 N12            7.2163     0.2025     0.5111 N.am    
  13 O13            7.8660     1.7782     1.9359 O.2     
  14 C14            8.5052    -0.3372     0.4518 C.ar    
  15 C15            8.6793    -1.7133     0.3700 C.ar    
  16 C16            9.9515    -2.2502     0.3112 C.ar    
  17 C17           11.0562    -1.4226     0.3334 C.ar    
  18 C18           10.8909    -0.0408     0.4149 C.ar    
  19 C19            9.6099     0.5013     0.4688 C.ar    
  20 C20           12.0775     0.8502     0.4394 C.2     
  21 O21            4.7940     0.7457    -0.6089 O.2     
  22 C22           13.3735     0.4571     0.2927 C.2     
  23 N23           14.1460     1.5813     0.3777 N.pl3   
  24 C24           13.2992     2.6418     0.5756 C.2     
  25 N25           12.0571     2.1823     0.6041 N.2     
  26 C26           15.4949     1.7787     0.3025 C.2     
  27 C27           16.0163     3.0176     0.4216 C.2     
  28 C28           15.1750     4.1241     0.6249 C.2     
  29 C29           13.8292     3.9426     0.7006 C.2     
  30 H30            0.5299     5.1069     1.6379 H       
  31 H31            2.3045     6.3525     2.7965 H       
  32 H32            4.5544     5.4192     2.9814 H       
  33 H33            0.9850     2.8964     0.6701 H       
  34 H34            6.1435     3.5466     2.5697 H       
  35 H35            6.4913    -0.2182     0.0229 H       
  36 H36            7.8183    -2.3651     0.3526 H       
  37 H37           10.0819    -3.3205     0.2481 H       
  38 H38           12.0488    -1.8458     0.2881 H       
  39 H39            9.4769     1.5712     0.5320 H       
  40 H40           13.7244    -0.5525     0.1384 H       
  41 H41           16.1510     0.9351     0.1464 H       
  42 H42           17.0852     3.1591     0.3608 H       
  43 H43           15.5949     5.1146     0.7198 H       
  44 H44           13.1731     4.7861     0.8565 H       
@<TRIPOS>BOND
   1    1    2 ar
   2    1    6 ar
   3    1   30 1
   4    2    3 ar
   5    2   31 1
   6    3    4 ar
   7    3   32 1
   8    4    5 ar
   9    4    7 1
  10    5    6 ar
  11    5   10 1
  12    6   33 1
  13    7    8 2
  14    7   34 1
  15    8    9 1
  16    8   11 1
  17    9   10 1
  18    9   21 2
  19   11   12 am
  20   11   13 2
  21   12   14 1
  22   12   35 1
  23   14   15 ar
  24   14   19 ar
  25   15   16 ar
  26   15   36 1
  27   16   17 ar
  28   16   37 1
  29   17   18 ar
  30   17   38 1
  31   18   19 ar
  32   18   20 1
  33   19   39 1
  34   20   22 2
  35   20   25 1
  36   22   23 1
  37   22   40 1
  38   23   24 1
  39   23   26 1
  40   24   25 2
  41   24   29 1
  42   26   27 2
  43   26   41 1
  44   27   28 1
  45   27   42 1
  46   28   29 2
  47   28   43 1
  48   29   44 1

#	End of record

