#	Name: ASD03490076
#	Creating user name:	WinNT
#	Creation time:	15. 06. 2019 20:42

#	Modifying user name:	WinNT
#	Modification time:	15. 06. 2019 20:42

#	Program:	/corina/corina34_cracker 3.40 0067  02.08.2006

@<TRIPOS>MOLECULE
ASD03490076
  56   56    0    0    0
SMALL
NO_CHARGES


@<TRIPOS>ATOM
   1 C1             2.8881     2.0443    -2.2731 C.3     
   2 C2             3.2534     1.8962    -0.7938 C.3     
   3 O3             2.2442     1.1331    -0.1294 O.3     
   4 C4             2.0871    -0.1935    -0.6368 C.3     
   5 C5             1.6749    -0.1294    -2.1098 C.3     
   6 C6             2.7327     0.6528    -2.8944 C.3     
   7 C7             3.4117    -0.9485    -0.5100 C.3     
   8 O8             2.3201     0.7808    -4.2565 O.3     
   9 O9             4.5106     1.2269    -0.6781 O.3     
  10 O10            4.0605    -0.5713     0.7060 O.3     
  11 C11            3.1413    -2.4544    -0.4980 C.3     
  12 O12            3.3872    -2.9929    -1.7986 O.3     
  13 C13            4.0653    -3.1304     0.5170 C.3     
  14 O14            3.7286    -4.5394     0.6147 O.3     
  15 C15            4.4514    -5.2809     1.4688 C.2     
  16 C16            4.1594    -6.7512     1.6237 C.3     
  17 O17            5.3362    -4.7695     2.1134 O.2     
  18 C18            4.8019    -7.5231     0.4695 C.3     
  19 C19            4.5054    -9.0159     0.6268 C.3     
  20 C20            4.2275    -7.0263    -0.8586 C.3     
  21 N21            4.7109    -7.2283     2.8989 N.3     
  22 N22            1.5708    -1.4877    -2.6486 N.am    
  23 O23            0.5821    -0.7528    -4.4937 O.2     
  24 C24            1.0050    -1.6928    -3.8545 C.2     
  25 C25            0.8979    -3.0901    -4.4088 C.3     
  26 C26            3.3500     3.2605    -0.1610 C.2     
  27 O27            2.6948     3.5189     0.8207 O.2     
  28 O28            4.1640     4.1887    -0.6880 O.3     
  29 H29            1.9491     2.5905    -2.3635 H       
  30 H30            3.6782     2.5882    -2.7907 H       
  31 H31            1.3168    -0.7121    -0.0660 H       
  32 H32            0.7114     0.3729    -2.1969 H       
  33 H33            3.6851     0.1247    -2.8486 H       
  34 H34            4.0532    -0.7014    -1.3559 H       
  35 H35            2.9444     1.2666    -4.8126 H       
  36 H36            4.8689     1.2156     0.2200 H       
  37 H37            3.5739    -0.8182     1.5044 H       
  38 H38            2.1028    -2.6348    -0.2204 H       
  39 H39            4.2938    -2.8684    -2.1109 H       
  40 H40            5.1004    -3.0259     0.1919 H       
  41 H41            3.9412    -2.6587     1.4918 H       
  42 H42            3.0812    -6.9107     1.6118 H       
  43 H43            5.8801    -7.3636     0.4815 H       
  44 H44            3.4272    -9.1754     0.6149 H       
  45 H45            4.9632    -9.5658    -0.1954 H       
  46 H46            4.9146    -9.3699     1.5730 H       
  47 H47            4.6852    -7.5762    -1.6809 H       
  48 H48            3.1493    -7.1858    -0.8706 H       
  49 H49            4.4387    -5.9628    -0.9707 H       
  50 H50            5.7099    -7.0913     2.9346 H       
  51 H51            4.2563    -6.7795     3.6800 H       
  52 H52            1.9090    -2.2395    -2.1374 H       
  53 H53            1.3281    -3.7965    -3.6989 H       
  54 H54           -0.1510    -3.3355    -4.5753 H       
  55 H55            1.4391    -3.1489    -5.3531 H       
  56 H56            4.1923     5.0489    -0.2473 H       
@<TRIPOS>BOND
   1    1    2 1
   2    1    6 1
   3    1   29 1
   4    1   30 1
   5    2    3 1
   6    2    9 1
   7    2   26 1
   8    3    4 1
   9    4    5 1
  10    4    7 1
  11    4   31 1
  12    5    6 1
  13    5   22 1
  14    5   32 1
  15    6    8 1
  16    6   33 1
  17    7   10 1
  18    7   11 1
  19    7   34 1
  20    8   35 1
  21    9   36 1
  22   10   37 1
  23   11   12 1
  24   11   13 1
  25   11   38 1
  26   12   39 1
  27   13   14 1
  28   13   40 1
  29   13   41 1
  30   14   15 1
  31   15   16 1
  32   15   17 2
  33   16   18 1
  34   16   21 1
  35   16   42 1
  36   18   19 1
  37   18   20 1
  38   18   43 1
  39   19   44 1
  40   19   45 1
  41   19   46 1
  42   20   47 1
  43   20   48 1
  44   20   49 1
  45   21   50 1
  46   21   51 1
  47   22   24 am
  48   22   52 1
  49   23   24 2
  50   24   25 1
  51   25   53 1
  52   25   54 1
  53   25   55 1
  54   26   27 2
  55   26   28 1
  56   28   56 1

#	End of record

