#	Name: ASD02038056
#	Creating user name:	WinNT
#	Creation time:	15. 06. 2019 20:16

#	Modifying user name:	WinNT
#	Modification time:	15. 06. 2019 20:16

#	Program:	/corina/corina34_cracker 3.40 0067  02.08.2006

@<TRIPOS>MOLECULE
ASD02038056
  48   50    0    0    0
SMALL
NO_CHARGES


@<TRIPOS>ATOM
   1 N1             0.0471     1.4119     1.0432 N.am    
   2 N2             1.2467     3.3917     0.7422 N.am    
   3 C3             1.2250     2.0595     0.9450 C.2     
   4 C4             1.3017     6.7354     0.0314 C.3     
   5 O5             0.4170     7.4000    -0.8729 O.3     
   6 C6             0.3192     8.7515    -0.7595 C.ar    
   7 C7            -0.5215     9.4592    -1.6061 C.ar    
   8 C8             1.0558     9.4213     0.2063 C.ar    
   9 C9             0.9566    10.7938     0.3223 C.ar    
  10 C10            0.1197    11.5033    -0.5284 C.ar    
  11 C11           -0.6210    10.8318    -1.4918 C.ar    
  12 O12            2.2681     1.4419     1.0394 O.2     
  13 N13            0.0181    12.8962    -0.4109 N.am    
  14 C14            0.0228     0.0167     1.1569 C.ar    
  15 C15            2.2841     4.4223     0.5857 C.3     
  16 C16            1.2789     5.2310    -0.2460 C.3     
  17 C17            0.2433     4.4536     0.5735 C.3     
  18 C18           -0.9850    -0.7137     0.5413 C.ar    
  19 C19            1.0903    13.6206    -0.0340 C.2     
  20 N20            0.9670    14.9455     0.1800 N.am    
  21 O21            2.1689    13.0788     0.1129 O.2     
  22 C22            2.1325    15.7329     0.5897 C.3     
  23 C23            1.0095    -0.6394     1.8807 C.ar    
  24 C24            0.9832    -2.0158     1.9914 C.ar    
  25 C25           -0.0252    -2.7411     1.3814 C.ar    
  26 C26           -1.0068    -2.0900     0.6551 C.ar    
  27 Cl27          -0.0552    -4.4711     1.5220 Cl      
  28 H28           -0.7835     1.9127     1.0391 H       
  29 H29            2.3142     7.1149    -0.1062 H       
  30 H30            0.9803     6.9209     1.0563 H       
  31 H31           -1.0981     8.9366    -2.3550 H       
  32 H32            1.7068     8.8692     0.8680 H       
  33 H33            1.5297    11.3151     1.0748 H       
  34 H34           -1.2722    11.3831    -2.1538 H       
  35 H35           -0.8238    13.3388    -0.6009 H       
  36 H36            2.5606     4.9058     1.5227 H       
  37 H37            3.1485     4.0848     0.0138 H       
  38 H38            1.2784     4.9863    -1.3082 H       
  39 H39           -0.6259     4.1441    -0.0068 H       
  40 H40           -0.0265     4.9437     1.5090 H       
  41 H41           -1.7513    -0.2061    -0.0256 H       
  42 H42            0.1065    15.3777     0.0628 H       
  43 H43            2.5170    15.3483     1.5343 H       
  44 H44            2.9066    15.6606    -0.1742 H       
  45 H45            1.8409    16.7759     0.7139 H       
  46 H46            1.7971    -0.0739     2.3565 H       
  47 H47            1.7504    -2.5266     2.5543 H       
  48 H48           -1.7930    -2.6582     0.1802 H       
@<TRIPOS>BOND
   1    1   14 1
   2    1    3 am
   3    1   28 1
   4    2    3 am
   5    2   15 1
   6    2   17 1
   7    3   12 2
   8    4    5 1
   9    4   16 1
  10    4   29 1
  11    4   30 1
  12    5    6 1
  13    6    7 ar
  14    6    8 ar
  15    7   11 ar
  16    7   31 1
  17    8    9 ar
  18    8   32 1
  19    9   10 ar
  20    9   33 1
  21   10   11 ar
  22   10   13 1
  23   11   34 1
  24   13   19 am
  25   13   35 1
  26   14   23 ar
  27   14   18 ar
  28   15   16 1
  29   15   36 1
  30   15   37 1
  31   16   17 1
  32   16   38 1
  33   17   39 1
  34   17   40 1
  35   18   26 ar
  36   18   41 1
  37   19   20 am
  38   19   21 2
  39   20   22 1
  40   20   42 1
  41   22   43 1
  42   22   44 1
  43   22   45 1
  44   23   24 ar
  45   23   46 1
  46   24   25 ar
  47   24   47 1
  48   25   26 ar
  49   25   27 1
  50   26   48 1

#	End of record

