#	Name: ASD05130023
#	Creating user name:	WinNT
#	Creation time:	15. 06. 2019 20:56

#	Modifying user name:	WinNT
#	Modification time:	15. 06. 2019 20:56

#	Program:	/corina/corina34_cracker 3.40 0067  02.08.2006

@<TRIPOS>MOLECULE
ASD05130023
  54   57    0    0    0
SMALL
NO_CHARGES


@<TRIPOS>ATOM
   1 N1            -0.1616     1.5506     0.1048 N.am    
   2 C2             0.0497     0.4223     0.8110 C.2     
   3 O3             1.1166     0.2435     1.3664 O.2     
   4 N4            -0.9214    -0.5079     0.9017 N.am    
   5 C5            -0.6671    -1.7245     1.5445 C.ar    
   6 C6            -1.6785    -2.3638     2.2494 C.ar    
   7 C7            -1.4244    -3.5648     2.8824 C.ar    
   8 C8            -0.1644    -4.1305     2.8150 C.ar    
   9 C9             0.8449    -3.4963     2.1142 C.ar    
  10 C10            0.5956    -2.2982     1.4740 C.ar    
  11 C11            0.8132     2.5566     0.0835 C.ar    
  12 C12            0.4379     3.8858    -0.0881 C.ar    
  13 C13            1.3979     4.8820    -0.1096 C.ar    
  14 C14            2.7333     4.5625     0.0392 C.ar    
  15 C15            3.1174     3.2327     0.2121 C.ar    
  16 C16            2.1501     2.2291     0.2391 C.ar    
  17 I17            4.1823     6.0751     0.0044 I       
  18 F18           -0.8669     4.2041    -0.2346 F       
  19 N19            6.5391     2.8474     1.7826 N.am    
  20 C20            5.2367     3.1608     1.6363 C.2     
  21 C21            4.5496     2.8881     0.3719 C.2     
  22 C22            5.2387     2.3126    -0.6606 C.2     
  23 C23            6.6056     1.9928    -0.4824 C.ar    
  24 C24            7.3494     1.4034    -1.5122 C.ar    
  25 N25            8.6191     1.1128    -1.3302 N.ar    
  26 C26            9.2447     1.3592    -0.1841 C.ar    
  27 C27            8.5827     1.9411     0.8877 C.ar    
  28 C28            7.2390     2.2685     0.7492 C.ar    
  29 O29            4.6284     3.6726     2.5593 O.2     
  30 N30           10.5858     1.0280    -0.0565 N.pl3   
  31 C31           11.2894     1.2934     1.2008 C.3     
  32 C32            7.2167     3.1307     3.0502 C.3     
  33 C33            7.0833     1.9236     3.9807 C.3     
  34 H34           -0.9869     1.6644    -0.3920 H       
  35 H35           -1.7966    -0.3339     0.5214 H       
  36 H36           -2.6626    -1.9221     2.3030 H       
  37 H37           -2.2105    -4.0624     3.4308 H       
  38 H38            0.0318    -5.0695     3.3111 H       
  39 H39            1.8282    -3.9403     2.0641 H       
  40 H40            1.3831    -1.8055     0.9230 H       
  41 H41            1.1022     5.9121    -0.2434 H       
  42 H42            2.4427     1.1986     0.3765 H       
  43 H43            4.7460     2.1050    -1.5989 H       
  44 H44            6.8784     1.1863    -2.4595 H       
  45 H45            9.1028     2.1365     1.8138 H       
  46 H46           11.0576     0.6206    -0.7996 H       
  47 H47           12.3261     0.9684     1.1126 H       
  48 H48           11.2606     2.3619     1.4147 H       
  49 H49           10.8051     0.7476     2.0105 H       
  50 H50            8.2717     3.3294     2.8618 H       
  51 H51            6.7607     4.0029     3.5189 H       
  52 H52            6.0283     1.7249     4.1692 H       
  53 H53            7.5392     1.0515     3.5121 H       
  54 H54            7.5874     2.1344     4.9239 H       
@<TRIPOS>BOND
   1    1    2 am
   2    1   11 1
   3    1   34 1
   4    2    3 2
   5    2    4 am
   6    4    5 1
   7    4   35 1
   8    5    6 ar
   9    5   10 ar
  10    6    7 ar
  11    6   36 1
  12    7    8 ar
  13    7   37 1
  14    8    9 ar
  15    8   38 1
  16    9   10 ar
  17    9   39 1
  18   10   40 1
  19   11   12 ar
  20   11   16 ar
  21   12   13 ar
  22   12   18 1
  23   13   14 ar
  24   13   41 1
  25   14   15 ar
  26   14   17 1
  27   15   16 ar
  28   15   21 1
  29   16   42 1
  30   19   20 am
  31   19   28 1
  32   19   32 1
  33   20   21 1
  34   20   29 2
  35   21   22 2
  36   22   23 1
  37   22   43 1
  38   23   24 ar
  39   23   28 ar
  40   24   25 ar
  41   24   44 1
  42   25   26 ar
  43   26   27 ar
  44   26   30 1
  45   27   28 ar
  46   27   45 1
  47   30   31 1
  48   30   46 1
  49   31   47 1
  50   31   48 1
  51   31   49 1
  52   32   33 1
  53   32   50 1
  54   32   51 1
  55   33   52 1
  56   33   53 1
  57   33   54 1

#	End of record

