#	Name: ASD03200076
#	Creating user name:	WinNT
#	Creation time:	15. 06. 2019 20:34

#	Modifying user name:	WinNT
#	Modification time:	15. 06. 2019 20:34

#	Program:	/corina/corina34_cracker 3.40 0067  02.08.2006

@<TRIPOS>MOLECULE
ASD03200076
  20   21    0    0    0
SMALL
NO_CHARGES


@<TRIPOS>ATOM
   1 C1            -0.0161     1.3329     0.0094 C.2     
   2 C2            -2.2861     0.2615     0.0358 C.2     
   3 C3            -1.2359    -0.6075     0.0106 C.2     
   4 C4             0.0021    -0.0041     0.0020 C.2     
   5 C5            -3.7022    -0.1194     0.0504 C.2     
   6 C6            -4.7573     0.9547     0.0721 C.3     
   7 C7            -5.9844     0.4881    -0.7140 C.3     
   8 O8            -7.5013    -1.2592    -0.2306 O.2     
   9 C9            -6.3393    -0.9157    -0.2905 C.2     
  10 N10           -5.3595    -1.7856     0.0201 N.am    
  11 N11           -4.0241    -1.3740     0.0391 N.2     
  12 S12           -1.6762     1.9113     0.0360 S.3     
  13 H13            0.8600     1.9644     0.0044 H       
  14 H14           -1.3641    -1.6798    -0.0013 H       
  15 H15            0.9217    -0.5702    -0.0101 H       
  16 H16           -5.0440     1.1607     1.1034 H       
  17 H17           -6.8230     1.1535    -0.5088 H       
  18 H18           -5.5824    -2.7054     0.2325 H       
  19 H19           -4.3601     1.8625    -0.3821 H       
  20 H20           -5.7602     0.5012    -1.7806 H       
@<TRIPOS>BOND
   1    1    4 2
   2    1   13 1
   3    1   12 1
   4    2    3 2
   5    2    5 1
   6    2   12 1
   7    3    4 1
   8    3   14 1
   9    4   15 1
  10    5   11 2
  11    5    6 1
  12    6   16 1
  13    6   19 1
  14    6    7 1
  15    7    9 1
  16    7   17 1
  17    7   20 1
  18    8    9 2
  19    9   10 am
  20   10   11 1
  21   10   18 1

#	End of record

