#	Name: ASD03430165
#	Creating user name:	WinNT
#	Creation time:	15. 06. 2019 20:40

#	Modifying user name:	WinNT
#	Modification time:	15. 06. 2019 20:40

#	Program:	/corina/corina34_cracker 3.40 0067  02.08.2006

@<TRIPOS>MOLECULE
ASD03430165
  52   57    0    0    0
SMALL
NO_CHARGES


@<TRIPOS>ATOM
   1 C1            -0.0167     1.3822     0.0096 C.ar    
   2 C2             0.0021    -0.0041     0.0020 C.ar    
   3 C3             1.2027    -0.6819    -0.0149 C.ar    
   4 C4             2.4085     0.0128    -0.0146 C.ar    
   5 C5             2.3861     1.4039    -0.0116 C.ar    
   6 C6             1.1815     2.0867     0.0020 C.ar    
   7 O7             3.4713    -0.8419    -0.0037 O.3     
   8 C8             1.5511    -2.1459    -0.0481 C.3     
   9 C9             3.0369    -2.1462    -0.4336 C.3     
  10 C10            0.4284    -3.8612     1.0089 C.ar    
  11 C11            1.3146    -2.8195     1.2709 C.ar    
  12 C12            0.7184    -2.9075    -1.0390 C.2     
  13 N13            0.1000    -3.8862    -0.3487 N.am    
  14 O14            0.6211    -2.6852    -2.2274 O.2     
  15 C15            1.7779    -2.5986     2.5487 C.ar    
  16 C16            1.3649    -3.4148     3.5866 C.ar    
  17 C17            0.4858    -4.4531     3.3376 C.ar    
  18 C18            0.0183    -4.6783     2.0596 C.ar    
  19 O19           -1.2113     2.0356     0.0189 O.3     
  20 C20           -1.1865     3.4162     0.3977 C.3     
  21 C21           -0.0350     4.0992    -0.3526 C.3     
  22 O22            1.1866     3.4483     0.0117 O.3     
  23 C23           -0.8100    -4.8630    -0.9520 C.3     
  24 C24           -2.2190    -4.3301    -0.9095 C.ar    
  25 C25           -2.7015    -3.5741    -1.9631 C.ar    
  26 C26           -3.9905    -3.0836    -1.9306 C.ar    
  27 C27           -4.8083    -3.3515    -0.8318 C.ar    
  28 C28           -4.3154    -4.1147     0.2278 C.ar    
  29 C29           -3.0262    -4.6037     0.1804 C.ar    
  30 C30           -6.1906    -2.8286    -0.7901 C.2     
  31 O31           -6.6171    -2.1639    -1.7140 O.2     
  32 N32           -6.9778    -3.0891     0.2724 N.am    
  33 H33           -0.9269    -0.5549     0.0097 H       
  34 H34            3.3148     1.9551    -0.0194 H       
  35 H35            3.1572    -2.2586    -1.5111 H       
  36 H36            3.5752    -2.9291     0.1008 H       
  37 H37            2.4647    -1.7875     2.7408 H       
  38 H38            1.7283    -3.2419     4.5887 H       
  39 H39            0.1642    -5.0908     4.1476 H       
  40 H40           -0.6680    -5.4910     1.8731 H       
  41 H41           -2.1315     3.8882     0.1290 H       
  42 H42           -1.0257     3.4997     1.4725 H       
  43 H43           -0.1921     4.0092    -1.4275 H       
  44 H44            0.0119     5.1520    -0.0742 H       
  45 H45           -0.5192    -5.0391    -1.9876 H       
  46 H46           -0.7587    -5.7991    -0.3960 H       
  47 H47           -2.0675    -3.3673    -2.8126 H       
  48 H48           -4.3658    -2.4934    -2.7535 H       
  49 H49           -4.9432    -4.3255     1.0809 H       
  50 H50           -2.6435    -5.1944     0.9995 H       
  51 H51           -6.6375    -3.6195     1.0098 H       
  52 H52           -7.8848    -2.7460     0.2998 H       
@<TRIPOS>BOND
   1    1    2 ar
   2    1    6 ar
   3    1   19 1
   4    2    3 ar
   5    2   33 1
   6    3    4 ar
   7    3    8 1
   8    4    5 ar
   9    4    7 1
  10    5    6 ar
  11    5   34 1
  12    6   22 1
  13    7    9 1
  14    8    9 1
  15    8   11 1
  16    8   12 1
  17    9   35 1
  18    9   36 1
  19   10   11 ar
  20   10   13 1
  21   10   18 ar
  22   11   15 ar
  23   12   13 am
  24   12   14 2
  25   13   23 1
  26   15   16 ar
  27   15   37 1
  28   16   17 ar
  29   16   38 1
  30   17   18 ar
  31   17   39 1
  32   18   40 1
  33   19   20 1
  34   20   21 1
  35   20   41 1
  36   20   42 1
  37   21   22 1
  38   21   43 1
  39   21   44 1
  40   23   24 1
  41   23   45 1
  42   23   46 1
  43   24   25 ar
  44   24   29 ar
  45   25   26 ar
  46   25   47 1
  47   26   27 ar
  48   26   48 1
  49   27   28 ar
  50   27   30 1
  51   28   29 ar
  52   28   49 1
  53   29   50 1
  54   30   31 2
  55   30   32 am
  56   32   51 1
  57   32   52 1

#	End of record

