#	Name: ASD03092741
#	Creating user name:	WinNT
#	Creation time:	15. 06. 2019 20:33

#	Modifying user name:	WinNT
#	Modification time:	15. 06. 2019 20:33

#	Program:	/corina/corina34_cracker 3.40 0067  02.08.2006

@<TRIPOS>MOLECULE
ASD03092741
  48   50    0    0    0
SMALL
NO_CHARGES


@<TRIPOS>ATOM
   1 C1             0.0247     1.1858     0.0030 C.2     
   2 O2            -0.6770     1.1942     0.9963 O.2     
   3 C3             2.5226     1.2869     0.1080 C.ar    
   4 C4             1.2860     1.9475    -0.0145 C.ar    
   5 C5             1.2744     3.3389    -0.1535 C.ar    
   6 C6             2.4960     4.0115    -0.1645 C.ar    
   7 C7             3.6777     3.2814    -0.0376 C.ar    
   8 N8             3.6566     1.9706     0.0914 N.ar    
   9 N9             2.5536    -0.0871     0.2520 N.pl3   
  10 C10            3.8371    -0.7934     0.2660 C.3     
  11 C11            3.5916    -2.2939     0.4365 C.3     
  12 C12            2.5382     5.4875    -0.3100 C.ar    
  13 C13            3.7625     6.1533    -0.3201 C.ar    
  14 C14            3.7986     7.5254    -0.4560 C.ar    
  15 C15            2.6171     8.2431    -0.5821 C.ar    
  16 C16            1.3961     7.5827    -0.5723 C.ar    
  17 C17            1.3540     6.2102    -0.4425 C.ar    
  18 O18            2.6558     9.5950    -0.7149 O.3     
  19 C19            1.4029    10.2706    -0.8401 C.3     
  20 C20            1.6462    11.7748    -0.9786 C.3     
  21 C21           -0.3842     0.4071    -1.1834 C.ar    
  22 C22           -1.5163    -0.4103    -1.1295 C.ar    
  23 C23           -1.8933    -1.1355    -2.2412 C.ar    
  24 C24           -1.1493    -1.0531    -3.4114 C.ar    
  25 C25           -0.0257    -0.2438    -3.4683 C.ar    
  26 C26            0.3561     0.4897    -2.3652 C.ar    
  27 F27           -1.5220    -1.7648    -4.4975 F       
  28 F28           -2.9872    -1.9269    -2.1915 F       
  29 H29            0.3439     3.8785    -0.2503 H       
  30 H30            4.6255     3.7992    -0.0457 H       
  31 H31            1.7256    -0.5839     0.3438 H       
  32 H32            4.3601    -0.6153    -0.6736 H       
  33 H33            4.4438    -0.4280     1.0945 H       
  34 H34            4.5465    -2.8194     0.4469 H       
  35 H35            3.0686    -2.4721     1.3761 H       
  36 H36            2.9848    -2.6593    -0.3921 H       
  37 H37            4.6820     5.5955    -0.2213 H       
  38 H38            4.7471     8.0419    -0.4639 H       
  39 H39            0.4785     8.1437    -0.6703 H       
  40 H40            0.4040     5.6965    -0.4391 H       
  41 H41            0.8792     9.9045    -1.7232 H       
  42 H42            0.7974    10.0806     0.0461 H       
  43 H43            2.2516    11.9648    -1.8649 H       
  44 H44            0.6905    12.2902    -1.0741 H       
  45 H45            2.1698    12.1410    -0.0955 H       
  46 H46           -2.0946    -0.4747    -0.2196 H       
  47 H47            0.5495    -0.1840    -4.3804 H       
  48 H48            1.2292     1.1235    -2.4131 H       
@<TRIPOS>BOND
   1    1    2 2
   2    1    4 1
   3    1   21 1
   4    3    4 ar
   5    3    8 ar
   6    3    9 1
   7    4    5 ar
   8    5    6 ar
   9    5   29 1
  10    6    7 ar
  11    6   12 1
  12    7    8 ar
  13    7   30 1
  14    9   10 1
  15    9   31 1
  16   10   11 1
  17   10   32 1
  18   10   33 1
  19   11   34 1
  20   11   35 1
  21   11   36 1
  22   12   13 ar
  23   12   17 ar
  24   13   14 ar
  25   13   37 1
  26   14   15 ar
  27   14   38 1
  28   15   16 ar
  29   15   18 1
  30   16   17 ar
  31   16   39 1
  32   17   40 1
  33   18   19 1
  34   19   20 1
  35   19   41 1
  36   19   42 1
  37   20   43 1
  38   20   44 1
  39   20   45 1
  40   21   22 ar
  41   21   26 ar
  42   22   23 ar
  43   22   46 1
  44   23   24 ar
  45   23   28 1
  46   24   25 ar
  47   24   27 1
  48   25   26 ar
  49   25   47 1
  50   26   48 1

#	End of record

