#	Name: ASD03740009
#	Creating user name:	WinNT
#	Creation time:	15. 06. 2019 20:46

#	Modifying user name:	WinNT
#	Modification time:	15. 06. 2019 20:46

#	Program:	/corina/corina34_cracker 3.40 0067  02.08.2006

@<TRIPOS>MOLECULE
ASD03740009
  38   40    0    0    0
SMALL
NO_CHARGES


@<TRIPOS>ATOM
   1 C1            -0.0167     1.3784     0.0096 C.ar    
   2 C2             0.0021    -0.0041     0.0020 C.ar    
   3 C3            -1.1841    -0.7122     0.0095 C.ar    
   4 C4            -2.3948    -0.0349     0.0247 C.ar    
   5 C5            -2.4109     1.3523     0.0323 C.ar    
   6 C6            -1.2219     2.0557     0.0305 C.ar    
   7 S7             1.4980     2.2786    -0.0000 S.o2    
   8 O8            -3.5630    -0.7292     0.0317 O.3     
   9 C9            -4.7711     0.0339     0.0474 C.3     
  10 N10            1.9043     2.5376    -1.5844 N.am    
  11 O11            1.2097     3.5550     0.5541 O.2     
  12 O12            2.4865     1.4064     0.5303 O.2     
  13 C13            1.5393     3.6065    -2.3385 C.2     
  14 C14            2.0765     3.4375    -3.5777 C.2     
  15 C15            2.7884     2.2300    -3.5753 C.2     
  16 N16            2.6900     1.6958    -2.3818 N.2     
  17 N17            0.7581     4.6798    -1.9202 N.pl3   
  18 O18            3.4693     1.7051    -4.6288 O.3     
  19 C19            4.0943     0.5266    -4.4281 C.2     
  20 C20            4.8470    -0.0981    -5.5183 C.2     
  21 O21            4.0328    -0.0172    -3.3418 O.2     
  22 C22            5.5232    -1.2836    -5.4510 C.2     
  23 C23            6.0925    -1.4953    -6.7158 C.2     
  24 C24            5.7439    -0.4439    -7.4904 C.2     
  25 O25            4.9894     0.3932    -6.7669 O.3     
  26 H26            0.9448    -0.5308    -0.0102 H       
  27 H27           -1.1689    -1.7920     0.0032 H       
  28 H28           -3.3521     1.8818     0.0442 H       
  29 H29           -1.2339     3.1356     0.0364 H       
  30 H30           -4.8122     0.6674    -0.8387 H       
  31 H31           -5.6271    -0.6410     0.0515 H       
  32 H32           -4.7955     0.6572     0.9412 H       
  33 H33            1.9722     4.1129    -4.4139 H       
  34 H34            0.4203     4.7087    -1.0113 H       
  35 H35            0.5514     5.3989    -2.5375 H       
  36 H36            5.6040    -1.9318    -4.5910 H       
  37 H37            6.6961    -2.3397    -7.0143 H       
  38 H38            6.0246    -0.3037    -8.5238 H       
@<TRIPOS>BOND
   1    1    2 ar
   2    1    7 1
   3    1    6 ar
   4    2    3 ar
   5    2   26 1
   6    3    4 ar
   7    3   27 1
   8    4    5 ar
   9    4    8 1
  10    5    6 ar
  11    5   28 1
  12    6   29 1
  13    7   10 am
  14    7   11 2
  15    7   12 2
  16    8    9 1
  17    9   30 1
  18    9   31 1
  19    9   32 1
  20   10   13 1
  21   10   16 1
  22   13   14 2
  23   13   17 1
  24   14   15 1
  25   14   33 1
  26   15   16 2
  27   15   18 1
  28   17   34 1
  29   17   35 1
  30   18   19 1
  31   19   20 1
  32   19   21 2
  33   20   22 2
  34   20   25 1
  35   22   23 1
  36   22   36 1
  37   23   24 2
  38   23   37 1
  39   24   25 1
  40   24   38 1

#	End of record

