#	Name: ASD03091643
#	Creating user name:	WinNT
#	Creation time:	15. 06. 2019 20:31

#	Modifying user name:	WinNT
#	Modification time:	15. 06. 2019 20:31

#	Program:	/corina/corina34_cracker 3.40 0067  02.08.2006

@<TRIPOS>MOLECULE
ASD03091643
  78   80    0    0    0
SMALL
NO_CHARGES


@<TRIPOS>ATOM
   1 C1            -0.0166     1.3763     0.0096 C.ar    
   2 C2             0.0021    -0.0041     0.0020 C.ar    
   3 C3             1.2110    -0.6896    -0.0128 C.ar    
   4 C4             2.4049     0.0068    -0.0205 C.ar    
   5 C5             2.3951     1.4039    -0.0134 C.ar    
   6 C6             1.1727     2.0889     0.0021 C.ar    
   7 O7             1.1531     3.4462     0.0087 O.3     
   8 O8             1.2192    -2.0495    -0.0193 O.3     
   9 C9             3.6664     2.1549    -0.0210 C.2     
  10 C10            4.9014     1.4581    -0.0357 C.2     
  11 O11            3.6543     3.3728    -0.0148 O.2     
  12 C12            6.0659     2.1460    -0.0427 C.2     
  13 C13            7.3448     1.4245    -0.0579 C.ar    
  14 C14            8.5521     2.1347    -0.0651 C.ar    
  15 C15            9.7436     1.4566    -0.0788 C.ar    
  16 C16            9.7548     0.0648    -0.0859 C.ar    
  17 C17            8.5578    -0.6453    -0.0787 C.ar    
  18 C18            7.3613     0.0238    -0.0592 C.ar    
  19 O19           10.9350    -0.6010    -0.1003 O.3     
  20 O20           11.3921    -0.8586     1.0452 O.3     
  21 C21           12.5564    -1.5154     1.1010 C.2     
  22 C22           13.1648    -1.8583     2.4364 C.3     
  23 O23           13.1220    -1.8348     0.0771 O.2     
  24 N24           14.4279    -2.5709     2.2290 N.am    
  25 C25           13.4279    -0.5722     3.2223 C.3     
  26 C26           12.1088     0.1720     3.4389 C.3     
  27 C27           14.0457    -0.9204     4.5781 C.3     
  28 C28           14.8970    -3.4017     3.1809 C.2     
  29 C29           16.1963    -4.1348     2.9676 C.3     
  30 O30           14.2736    -3.5594     4.2092 O.2     
  31 C31           17.3495    -3.1223     2.8041 C.3     
  32 C32           18.5197    -3.8031     3.5620 C.3     
  33 C33           17.7734    -4.4934     4.7309 C.3     
  34 N34           16.5038    -4.9603     4.1447 N.am    
  35 C35           15.7497    -5.9754     4.6109 C.2     
  36 C36           16.1878    -6.7396     5.8336 C.3     
  37 O37           14.7186    -6.2738     4.0464 O.2     
  38 C38           15.8252    -5.9441     7.0893 C.3     
  39 C39           14.3033    -5.8364     7.2030 C.3     
  40 C40           16.3795    -6.6586     8.3234 C.3     
  41 N41           15.5091    -8.0421     5.8662 N.3     
  42 H42           -0.9599     1.9024     0.0169 H       
  43 H43           -0.9274    -0.5540     0.0080 H       
  44 H44            3.3433    -0.5277    -0.0316 H       
  45 H45            1.1386     3.8436    -0.8728 H       
  46 H46            1.2132    -2.4386    -0.9045 H       
  47 H47            4.9121     0.3782    -0.0412 H       
  48 H48            6.0552     3.2259    -0.0371 H       
  49 H49            8.5444     3.2146    -0.0604 H       
  50 H50           10.6750     2.0032    -0.0845 H       
  51 H51            8.5715    -1.7252    -0.0846 H       
  52 H52            6.4330    -0.5281    -0.0536 H       
  53 H53           12.4777    -2.4923     2.9967 H       
  54 H54           14.9265    -2.4449     1.4066 H       
  55 H55           14.1151     0.0618     2.6620 H       
  56 H56           11.4217    -0.4620     3.9992 H       
  57 H57           12.2963     1.0883     3.9988 H       
  58 H58           11.6687     0.4201     2.4730 H       
  59 H59           14.9854    -1.4506     4.4237 H       
  60 H60           14.2331    -0.0041     5.1379 H       
  61 H61           13.3585    -1.5544     5.1384 H       
  62 H62           16.1259    -4.7630     2.0796 H       
  63 H63           17.5982    -2.9878     1.7514 H       
  64 H64           17.0938    -2.1687     3.2659 H       
  65 H65           19.0200    -4.5370     2.9302 H       
  66 H66           19.2278    -3.0624     3.9338 H       
  67 H67           18.3522    -5.3382     5.1042 H       
  68 H68           17.5815    -3.7801     5.5324 H       
  69 H69           17.2664    -6.8927     5.7993 H       
  70 H70           16.2563    -4.9452     7.0236 H       
  71 H71           13.9084    -5.3273     6.3238 H       
  72 H72           13.8722    -6.8353     7.2687 H       
  73 H73           14.0450    -5.2696     8.0976 H       
  74 H74           17.4638    -6.7354     8.2424 H       
  75 H75           16.1213    -6.0919     9.2180 H       
  76 H76           15.9485    -7.6576     8.3891 H       
  77 H77           15.8341    -8.5998     6.6417 H       
  78 H78           14.5072    -7.9271     5.8983 H       
@<TRIPOS>BOND
   1    1    2 ar
   2    1    6 ar
   3    1   42 1
   4    2    3 ar
   5    2   43 1
   6    3    4 ar
   7    3    8 1
   8    4    5 ar
   9    4   44 1
  10    5    6 ar
  11    5    9 1
  12    6    7 1
  13    7   45 1
  14    8   46 1
  15    9   10 1
  16    9   11 2
  17   10   12 2
  18   10   47 1
  19   12   13 1
  20   12   48 1
  21   13   14 ar
  22   13   18 ar
  23   14   15 ar
  24   14   49 1
  25   15   16 ar
  26   15   50 1
  27   16   17 ar
  28   16   19 1
  29   17   18 ar
  30   17   51 1
  31   18   52 1
  32   19   20 1
  33   20   21 1
  34   21   22 1
  35   21   23 2
  36   22   24 1
  37   22   25 1
  38   22   53 1
  39   24   28 am
  40   24   54 1
  41   25   26 1
  42   25   27 1
  43   25   55 1
  44   26   56 1
  45   26   57 1
  46   26   58 1
  47   27   59 1
  48   27   60 1
  49   27   61 1
  50   28   29 1
  51   28   30 2
  52   29   31 1
  53   29   34 1
  54   29   62 1
  55   31   32 1
  56   31   63 1
  57   31   64 1
  58   32   33 1
  59   32   65 1
  60   32   66 1
  61   33   34 1
  62   33   67 1
  63   33   68 1
  64   34   35 am
  65   35   36 1
  66   35   37 2
  67   36   38 1
  68   36   41 1
  69   36   69 1
  70   38   39 1
  71   38   40 1
  72   38   70 1
  73   39   71 1
  74   39   72 1
  75   39   73 1
  76   40   74 1
  77   40   75 1
  78   40   76 1
  79   41   77 1
  80   41   78 1

#	End of record

