#	Name: ASD01810920
#	Creating user name:	WinNT
#	Creation time:	15. 06. 2019 19:25

#	Modifying user name:	WinNT
#	Modification time:	15. 06. 2019 19:25

#	Program:	/corina/corina34_cracker 3.40 0067  02.08.2006

@<TRIPOS>MOLECULE
ASD01810920
  18   18    0    0    0
SMALL
NO_CHARGES


@<TRIPOS>ATOM
   1 C1            -0.0179     1.4710     0.0101 C.2     
   2 C2             0.0021    -0.0041     0.0020 C.ar    
   3 C3             1.2214    -0.6907    -0.0133 C.ar    
   4 C4             1.2311    -2.0728    -0.0203 C.ar    
   5 C5             0.0391    -2.7754    -0.0127 C.ar    
   6 C6            -1.1708    -2.1004     0.0025 C.ar    
   7 C7            -1.1961    -0.7224     0.0154 C.ar    
   8 O8             1.0259     2.0927     0.0035 O.2     
   9 O9            -1.1938     2.1287     0.0193 O.3     
  10 F10            2.3854    -0.0048    -0.0217 F       
  11 Br11           0.0614    -4.6662    -0.0237 Br      
  12 C12           -1.1375     3.5796     0.0269 C.3     
  13 H13            2.1706    -2.6053    -0.0322 H       
  14 H14           -2.0970    -2.6559     0.0083 H       
  15 H15           -2.1406    -0.1988     0.0314 H       
  16 H16           -0.6057     3.9179     0.9162 H       
  17 H17           -0.6142     3.9276    -0.8637 H       
  18 H18           -2.1503     3.9825     0.0339 H       
@<TRIPOS>BOND
   1    1    2 1
   2    1    8 2
   3    1    9 1
   4    2    3 ar
   5    2    7 ar
   6    3    4 ar
   7    3   10 1
   8    4    5 ar
   9    4   13 1
  10    5    6 ar
  11    5   11 1
  12    6    7 ar
  13    6   14 1
  14    7   15 1
  15    9   12 1
  16   12   16 1
  17   12   17 1
  18   12   18 1

#	End of record

