#	Name: ASD02039299
#	Creating user name:	WinNT
#	Creation time:	15. 06. 2019 20:18

#	Modifying user name:	WinNT
#	Modification time:	15. 06. 2019 20:18

#	Program:	/corina/corina34_cracker 3.40 0067  02.08.2006

@<TRIPOS>MOLECULE
ASD02039299
  51   53    0    0    0
SMALL
NO_CHARGES


@<TRIPOS>ATOM
   1 C1            -0.1345     1.5598    -0.1873 C.ar    
   2 C2            -0.1559     0.1782    -0.0590 C.ar    
   3 C3            -1.3624    -0.4920    -0.1419 C.ar    
   4 N4            -2.4880     0.1632    -0.3408 N.ar    
   5 C5            -2.5107     1.4839    -0.4687 C.ar    
   6 C6            -1.3322     2.2232    -0.3899 C.ar    
   7 C7            -3.8013     2.1789    -0.6920 C.ar    
   8 C8             1.1630     2.3214    -0.1015 C.3     
   9 N9             1.8164     2.3221    -1.4128 N.am    
  10 C10            1.4077     3.2893    -2.4343 C.3     
  11 C11            2.7936     1.4329    -1.6792 C.2     
  12 C12            3.1433     0.4029    -0.6856 C.2     
  13 C13            4.1487    -0.5129    -0.7932 C.2     
  14 C14            2.5763     4.2262    -2.7463 C.3     
  15 N15            2.5275     0.1960     0.5064 N.2     
  16 C16            3.1088    -0.7979     1.1136 C.2     
  17 N17            4.1201    -1.2619     0.3342 N.pl3   
  18 O18            3.3867     1.4808    -2.7400 O.2     
  19 C19            5.0182    -2.3738     0.6556 C.3     
  20 C20            0.9973     2.5448    -3.7064 C.3     
  21 C21           -4.9853     1.4465    -0.7671 C.ar    
  22 C22           -3.8340     3.5667    -0.8216 C.ar    
  23 C23           -5.0356     4.2102    -1.0292 C.ar    
  24 C24           -6.2124     3.4775    -1.1093 C.ar    
  25 C25           -6.1838     2.0957    -0.9749 C.ar    
  26 C26           -8.5665     3.2995    -1.3855 C.3     
  27 O27           -7.3948     4.1143    -1.3135 O.3     
  28 F28           -8.7204     2.5967    -0.1856 F       
  29 F29           -9.6864     4.1108    -1.5976 F       
  30 F30           -8.4400     2.3932    -2.4438 F       
  31 H31            0.7613    -0.3684     0.1036 H       
  32 H32           -1.3824    -1.5673    -0.0425 H       
  33 H33           -1.3521     3.2980    -0.4942 H       
  34 H34            0.9622     3.3480     0.2049 H       
  35 H35            1.8163     1.8452     0.6296 H       
  36 H36            0.5633     3.8719    -2.0659 H       
  37 H37            4.8357    -0.6200    -1.6196 H       
  38 H38            3.4481     3.6373    -3.0312 H       
  39 H39            2.3016     4.8890    -3.5668 H       
  40 H40            2.8118     4.8199    -1.8630 H       
  41 H41            2.8336    -1.1887     2.0820 H       
  42 H42            4.5913    -3.3050     0.2830 H       
  43 H43            5.9875    -2.2052     0.1864 H       
  44 H44            5.1440    -2.4385     1.7363 H       
  45 H45            0.1125     1.9411    -3.5047 H       
  46 H46            0.7738     3.2654    -4.4931 H       
  47 H47            1.8133     1.8975    -4.0278 H       
  48 H48           -4.9636     0.3718    -0.6630 H       
  49 H49           -2.9191     4.1372    -0.7590 H       
  50 H50           -5.0616     5.2852    -1.1293 H       
  51 H51           -7.1006     1.5284    -1.0380 H       
@<TRIPOS>BOND
   1    1    2 ar
   2    1    8 1
   3    1    6 ar
   4    2    3 ar
   5    2   31 1
   6    3    4 ar
   7    3   32 1
   8    4    5 ar
   9    5    6 ar
  10    5    7 1
  11    6   33 1
  12    7   21 ar
  13    7   22 ar
  14    8    9 1
  15    8   34 1
  16    8   35 1
  17    9   10 1
  18    9   11 am
  19   10   20 1
  20   10   14 1
  21   10   36 1
  22   11   12 1
  23   11   18 2
  24   12   13 2
  25   12   15 1
  26   13   17 1
  27   13   37 1
  28   14   38 1
  29   14   39 1
  30   14   40 1
  31   15   16 2
  32   16   17 1
  33   16   41 1
  34   17   19 1
  35   19   42 1
  36   19   43 1
  37   19   44 1
  38   20   45 1
  39   20   46 1
  40   20   47 1
  41   21   25 ar
  42   21   48 1
  43   22   23 ar
  44   22   49 1
  45   23   24 ar
  46   23   50 1
  47   24   25 ar
  48   24   27 1
  49   25   51 1
  50   26   27 1
  51   26   28 1
  52   26   29 1
  53   26   30 1

#	End of record

