#	Name: ASD01180050
#	Creating user name:	WinNT
#	Creation time:	15. 06. 2019 19:06

#	Modifying user name:	WinNT
#	Modification time:	15. 06. 2019 19:06

#	Program:	/corina/corina34_cracker 3.40 0067  02.08.2006

@<TRIPOS>MOLECULE
ASD01180050
 128  136    0    0    0
SMALL
NO_CHARGES


@<TRIPOS>ATOM
   1 C1            -0.4290     1.1774     0.6396 C.3     
   2 C2            -0.4630    -0.3432     0.4124 C.3     
   3 C3             1.0315    -0.3515     0.7748 C.3     
   4 C4             1.0718     1.1139     0.3102 C.3     
   5 C5            -1.2356     1.9564    -0.3673 C.2     
   6 O6            -1.4088     1.5113    -1.4771 O.2     
   7 O7            -1.7615     3.1447    -0.0311 O.3     
   8 C8             1.2942    -0.5250     2.2486 C.2     
   9 O9             1.4579     0.4442     2.9512 O.2     
  10 O10            1.3464    -1.7562     2.7806 O.3     
  11 C11            1.3751     1.2737    -1.1573 C.ar    
  12 C12            2.0081     2.4165    -1.6102 C.ar    
  13 C13            2.2877     2.5651    -2.9590 C.ar    
  14 C14            1.9299     1.5619    -3.8554 C.ar    
  15 C15            1.2958     0.4194    -3.3947 C.ar    
  16 C16            1.0249     0.2751    -2.0465 C.ar    
  17 O17            2.2017     1.7032    -5.1803 O.3     
  18 C18            3.4288     1.3289    -5.5970 C.2     
  19 O19            4.2011     0.8022    -4.8186 O.2     
  20 C20            3.8312     1.5567    -6.9859 C.2     
  21 C21            5.0426     1.2232    -7.5259 C.2     
  22 C22            5.1531     1.5504    -8.8560 C.2     
  23 C23            4.0718     2.1316    -9.3897 C.2     
  24 S24            2.8318     2.2960    -8.2294 S.3     
  25 O25            2.9097     3.6885    -3.4062 O.3     
  26 C26            3.2469     4.6758    -2.4296 C.3     
  27 C27           -1.3280    -1.0820     1.4007 C.ar    
  28 C28           -2.4796    -0.4907     1.8866 C.ar    
  29 C29           -3.2760    -1.1686     2.7952 C.ar    
  30 C30           -2.9139    -2.4449     3.2170 C.ar    
  31 C31           -1.7586    -3.0315     2.7261 C.ar    
  32 C32           -0.9714    -2.3516     1.8151 C.ar    
  33 O33           -3.6919    -3.1142     4.1090 O.3     
  34 C34           -4.7840    -3.7383     3.6218 C.2     
  35 O35           -4.9841    -3.7662     2.4222 O.2     
  36 C36           -5.7284    -4.3819     4.5365 C.2     
  37 C37           -6.8668    -5.0430     4.1658 C.2     
  38 C38           -7.5699    -5.5530     5.2306 C.2     
  39 C39           -7.0292    -5.3195     6.4327 C.2     
  40 S40           -5.5772    -4.4354     6.2875 S.3     
  41 O41           -4.4086    -0.5884     3.2743 O.3     
  42 C42           -4.7173     0.7230     2.7977 C.3     
  43 N43            1.8321    -1.2532    -0.0572 N.am    
  44 C44            3.1565    -1.3737     0.1614 C.2     
  45 C45            3.9439    -2.3604    -0.6034 C.ar    
  46 C46            5.3173    -2.4867    -0.3781 C.ar    
  47 C47            6.0487    -3.4083    -1.0928 C.ar    
  48 C48            5.4220    -4.2137    -2.0385 C.ar    
  49 C49            4.0549    -4.0903    -2.2657 C.ar    
  50 C50            3.3166    -3.1746    -1.5503 C.ar    
  51 O51            3.7028    -0.6695     0.9885 O.2     
  52 N52            6.1658    -5.1462    -2.7607 N.am    
  53 C53            7.4313    -4.8612    -3.1266 C.2     
  54 O54            7.9527    -3.8313    -2.7547 O.2     
  55 C55            8.1983    -5.8223    -3.9978 C.3     
  56 N56           -0.7102     1.5705     2.0225 N.am    
  57 C57           -0.5676     2.8565     2.3998 C.2     
  58 C58           -0.7608     3.2369     3.8128 C.ar    
  59 C59           -0.6133     4.5699     4.2056 C.ar    
  60 C60           -0.7947     4.9213     5.5243 C.ar    
  61 C61           -1.1246     3.9511     6.4654 C.ar    
  62 C62           -1.2718     2.6230     6.0777 C.ar    
  63 C63           -1.0974     2.2657     4.7596 C.ar    
  64 O64           -0.2797     3.7033     1.5762 O.2     
  65 N65           -1.3077     4.3105     7.8002 N.am    
  66 C66           -0.5739     5.3055     8.3369 C.2     
  67 O67            0.1810     5.9473     7.6376 O.2     
  68 C68           -0.6915     5.6205     9.8059 C.3     
  69 C69            0.2413     6.7886    10.1708 C.3     
  70 C70           -0.6590     7.9203    10.7079 C.3     
  71 C71           -1.9337     7.1907    11.1996 C.3     
  72 C72           -2.1261     6.0832    10.1339 C.3     
  73 C73            9.6091    -5.2731    -4.2732 C.3     
  74 C74           10.6030    -6.3033    -3.6981 C.3     
  75 C75            9.8041    -7.6300    -3.6751 C.3     
  76 C76            8.3841    -7.1669    -3.2649 C.3     
  77 H77           -0.6632    -0.6259    -0.6211 H       
  78 H78            1.6851     1.7557     0.9426 H       
  79 H79           -2.2710     3.6072    -0.7105 H       
  80 H80            1.5176    -1.8172     3.7304 H       
  81 H81            2.2842     3.1934    -0.9127 H       
  82 H82            1.0172    -0.3604    -4.0880 H       
  83 H83            0.5349    -0.6180    -1.6880 H       
  84 H84            5.8337     0.7502    -6.9630 H       
  85 H85            6.0472     1.3533    -9.4288 H       
  86 H86            3.9935     2.4505   -10.4185 H       
  87 H87            2.3397     5.0210    -1.9338 H       
  88 H88            3.9215     4.2415    -1.6918 H       
  89 H89            3.7367     5.5179    -2.9185 H       
  90 H90           -2.7581     0.4997     1.5580 H       
  91 H91           -1.4753    -4.0215     3.0516 H       
  92 H92           -0.0737    -2.8118     1.4296 H       
  93 H93           -7.1818    -5.1530     3.1387 H       
  94 H94           -8.4918    -6.1018     5.1067 H       
  95 H95           -7.4535    -5.6499     7.3692 H       
  96 H96           -3.9069     1.4041     3.0574 H       
  97 H97           -4.8371     0.6971     1.7146 H       
  98 H98           -5.6433     1.0680     3.2576 H       
  99 H99            1.4090    -1.7635    -0.7653 H       
 100 H100           5.8045    -1.8616     0.3557 H       
 101 H101           7.1102    -3.5062    -0.9194 H       
 102 H102           3.5716    -4.7166    -3.0008 H       
 103 H103           2.2547    -3.0824    -1.7240 H       
 104 H104           5.7725    -6.0000    -2.9997 H       
 105 H105           7.6685    -5.9784    -4.9375 H       
 106 H106          -0.9991     0.9053     2.6667 H       
 107 H107          -0.3569     5.3234     3.4757 H       
 108 H108          -0.6805     5.9512     5.8286 H       
 109 H109          -1.5276     1.8723     6.8107 H       
 110 H110          -1.2162     1.2354     4.4585 H       
 111 H111          -1.9631     3.8444     8.3425 H       
 112 H112          -0.4376     4.7410    10.3976 H       
 113 H113           0.9474     6.4762    10.9402 H       
 114 H114           0.7791     7.1276     9.2854 H       
 115 H115          -0.1713     8.4356    11.5354 H       
 116 H116          -0.9047     8.6228     9.9115 H       
 117 H117          -1.7732     6.7544    12.1854 H       
 118 H118          -2.7871     7.8688    11.2103 H       
 119 H119          -2.6088     6.4890     9.2448 H       
 120 H120          -2.7091     5.2578    10.5425 H       
 121 H121           9.7642    -5.1636    -5.3465 H       
 122 H122           9.7390    -4.3115    -3.7767 H       
 123 H123          11.4753    -6.3943    -4.3453 H       
 124 H124          10.9034    -6.0213    -2.6889 H       
 125 H125           9.7901    -8.0897    -4.6634 H       
 126 H126          10.2156    -8.3160    -2.9347 H       
 127 H127           8.3262    -7.0245    -2.1858 H       
 128 H128           7.6371    -7.8883    -3.5961 H       
@<TRIPOS>BOND
   1    1    2 1
   2    1    4 1
   3    1    5 1
   4    1   56 1
   5    2    3 1
   6    2   27 1
   7    2   77 1
   8    3    4 1
   9    3    8 1
  10    3   43 1
  11    4   11 1
  12    4   78 1
  13    5    6 2
  14    5    7 1
  15    7   79 1
  16    8    9 2
  17    8   10 1
  18   10   80 1
  19   11   12 ar
  20   11   16 ar
  21   12   13 ar
  22   12   81 1
  23   13   14 ar
  24   13   25 1
  25   14   15 ar
  26   14   17 1
  27   15   16 ar
  28   15   82 1
  29   16   83 1
  30   17   18 1
  31   18   19 2
  32   18   20 1
  33   20   21 2
  34   20   24 1
  35   21   22 1
  36   21   84 1
  37   22   23 2
  38   22   85 1
  39   23   24 1
  40   23   86 1
  41   25   26 1
  42   26   87 1
  43   26   88 1
  44   26   89 1
  45   27   28 ar
  46   27   32 ar
  47   28   29 ar
  48   28   90 1
  49   29   30 ar
  50   29   41 1
  51   30   31 ar
  52   30   33 1
  53   31   32 ar
  54   31   91 1
  55   32   92 1
  56   33   34 1
  57   34   35 2
  58   34   36 1
  59   36   37 2
  60   36   40 1
  61   37   38 1
  62   37   93 1
  63   38   39 2
  64   38   94 1
  65   39   40 1
  66   39   95 1
  67   41   42 1
  68   42   96 1
  69   42   97 1
  70   42   98 1
  71   43   44 am
  72   43   99 1
  73   44   45 1
  74   44   51 2
  75   45   46 ar
  76   45   50 ar
  77   46   47 ar
  78   46  100 1
  79   47   48 ar
  80   47  101 1
  81   48   49 ar
  82   48   52 1
  83   49   50 ar
  84   49  102 1
  85   50  103 1
  86   52   53 am
  87   52  104 1
  88   53   54 2
  89   53   55 1
  90   55   73 1
  91   55   76 1
  92   55  105 1
  93   56   57 am
  94   56  106 1
  95   57   58 1
  96   57   64 2
  97   58   59 ar
  98   58   63 ar
  99   59   60 ar
 100   59  107 1
 101   60   61 ar
 102   60  108 1
 103   61   62 ar
 104   61   65 1
 105   62   63 ar
 106   62  109 1
 107   63  110 1
 108   65   66 am
 109   65  111 1
 110   66   67 2
 111   66   68 1
 112   68   69 1
 113   68   72 1
 114   68  112 1
 115   69   70 1
 116   69  113 1
 117   69  114 1
 118   70   71 1
 119   70  115 1
 120   70  116 1
 121   71   72 1
 122   71  117 1
 123   71  118 1
 124   72  119 1
 125   72  120 1
 126   73   74 1
 127   73  121 1
 128   73  122 1
 129   74   75 1
 130   74  123 1
 131   74  124 1
 132   75   76 1
 133   75  125 1
 134   75  126 1
 135   76  127 1
 136   76  128 1

#	End of record

