#	Name: ASD07990005
#	Creating user name:	WinNT
#	Creation time:	15. 06. 2019 21:14

#	Modifying user name:	WinNT
#	Modification time:	15. 06. 2019 21:14

#	Program:	/corina/corina34_cracker 3.40 0067  02.08.2006

@<TRIPOS>MOLECULE
ASD07990005
  45   47    0    0    0
SMALL
NO_CHARGES


@<TRIPOS>ATOM
   1 C1            -0.0168     1.3854     0.0097 C.ar    
   2 N2             0.0021    -0.0041     0.0020 N.pl3   
   3 C3             0.8465    -0.7570     0.8131 C.ar    
   4 C4             2.1953    -0.6537     0.5929 C.ar    
   5 C5             2.7178     0.2765    -0.4592 C.3     
   6 C6             2.5437     1.7269    -0.0819 C.3     
   7 C7             1.1061     2.1795     0.0032 C.ar    
   8 C8             0.9439     3.5663     0.0721 C.ar    
   9 C9            -0.3051     4.1416     0.1167 C.ar    
  10 C10           -1.4329     3.3416     0.0890 C.ar    
  11 C11           -1.2878     1.9735     0.0367 C.ar    
  12 C12            0.3443    -1.5865     1.8058 C.ar    
  13 C13            1.2248    -2.3292     2.5725 C.ar    
  14 C14            2.5853    -2.2392     2.3427 C.ar    
  15 C15            3.0765    -1.4043     1.3549 C.ar    
  16 C16           -0.9099    -0.7096    -0.9017 C.3     
  17 C17           -0.2197    -0.9359    -2.2483 C.3     
  18 C18           -1.1722    -1.6728    -3.1921 C.3     
  19 N19           -0.5095    -1.8901    -4.4850 N.3     
  20 C20            0.6266    -2.8109    -4.3461 C.3     
  21 C21           -1.4632    -2.3786    -5.4899 C.3     
  22 H22            3.7783     0.0764    -0.6123 H       
  23 H23            2.1867     0.0882    -1.3923 H       
  24 H24            3.0160     1.8916     0.8865 H       
  25 H25            3.0567     2.3410    -0.8221 H       
  26 H26            1.8182     4.2000     0.0912 H       
  27 H27           -0.4046     5.2155     0.1736 H       
  28 H28           -2.4173     3.7855     0.1079 H       
  29 H29           -2.1661     1.3453     0.0162 H       
  30 H30           -0.7199    -1.6518     1.9776 H       
  31 H31            0.8497    -2.9782     3.3499 H       
  32 H32            3.2696    -2.8248     2.9388 H       
  33 H33            4.1399    -1.3378     1.1787 H       
  34 H34           -1.1810    -1.6714    -0.4662 H       
  35 H35           -1.8091    -0.1117    -1.0502 H       
  36 H36            0.0514     0.0258    -2.6838 H       
  37 H37            0.6794    -1.5339    -2.0998 H       
  38 H38           -1.4433    -2.6346    -2.7566 H       
  39 H39           -2.0713    -1.0748    -3.3406 H       
  40 H40            0.2726    -3.7704    -3.9692 H       
  41 H41            1.0991    -2.9541    -5.3179 H       
  42 H42            1.3511    -2.3913    -3.6482 H       
  43 H43           -2.2580    -1.6447    -5.6234 H       
  44 H44           -0.9465    -2.5310    -6.4374 H       
  45 H45           -1.8929    -3.3225    -5.1544 H       
@<TRIPOS>BOND
   1    1    2 1
   2    1    7 ar
   3    1   11 ar
   4    2    3 1
   5    2   16 1
   6    3    4 ar
   7    3   12 ar
   8    4    5 1
   9    4   15 ar
  10    5    6 1
  11    5   22 1
  12    5   23 1
  13    6    7 1
  14    6   24 1
  15    6   25 1
  16    7    8 ar
  17    8    9 ar
  18    8   26 1
  19    9   10 ar
  20    9   27 1
  21   10   11 ar
  22   10   28 1
  23   11   29 1
  24   12   13 ar
  25   12   30 1
  26   13   14 ar
  27   13   31 1
  28   14   15 ar
  29   14   32 1
  30   15   33 1
  31   16   17 1
  32   16   34 1
  33   16   35 1
  34   17   18 1
  35   17   36 1
  36   17   37 1
  37   18   19 1
  38   18   38 1
  39   18   39 1
  40   19   20 1
  41   19   21 1
  42   20   40 1
  43   20   41 1
  44   20   42 1
  45   21   43 1
  46   21   44 1
  47   21   45 1

#	End of record

