#	Name: ASD03330511
#	Creating user name:	WinNT
#	Creation time:	15. 06. 2019 20:37

#	Modifying user name:	WinNT
#	Modification time:	15. 06. 2019 20:37

#	Program:	/corina/corina34_cracker 3.40 0067  02.08.2006

@<TRIPOS>MOLECULE
ASD03330511
  63   66    0    0    0
SMALL
NO_CHARGES


@<TRIPOS>ATOM
   1 C1            -0.2633     2.0914    -0.6957 C.3     
   2 N2            -0.1021     0.6542    -0.4345 N.3     
   3 C3             0.3544    -0.0582    -1.6416 C.3     
   4 C4             1.5425     0.6830    -2.1985 C.2     
   5 N5             1.8762     1.9504    -1.8399 N.pl3   
   6 C6             1.1134     2.7448    -0.8728 C.3     
   7 C7             2.4595     0.2673    -3.1075 C.2     
   8 N8             3.3407     1.2769    -3.2924 N.2     
   9 C9             2.9950     2.2914    -2.5317 C.2     
  10 C10            3.7045     3.5867    -2.4435 C.ar    
  11 C11            2.4903    -1.0469    -3.7734 C.2     
  12 O12            1.6370    -1.8762    -3.5218 O.2     
  13 C13            3.4947    -2.6364    -5.3232 C.3     
  14 N14            3.4641    -1.3299    -4.6612 N.am    
  15 C15            4.2193    -3.6444    -4.4289 C.3     
  16 C16            4.6435     3.9385    -3.4135 C.ar    
  17 C17           -1.2801     0.1015     0.0545 C.ar    
  18 C18            3.4124    -3.8615    -3.1472 C.3     
  19 C19            4.3638    -4.9740    -5.1721 C.3     
  20 C20            5.6065    -3.1057    -4.0732 C.3     
  21 C21            4.2224    -2.5167    -6.6374 C.2     
  22 N22            4.2120    -3.5443    -7.5095 N.am    
  23 O23            4.8174    -1.4957    -6.9103 O.2     
  24 C24            4.9853    -3.4594    -8.7508 C.3     
  25 C25            5.3018     5.1479    -3.3256 C.ar    
  26 C26            5.0325     6.0109    -2.2783 C.ar    
  27 C27            4.1028     5.6676    -1.3130 C.ar    
  28 C28            3.4332     4.4639    -1.3931 C.ar    
  29 N29           -1.2722    -0.5410     1.2126 N.ar    
  30 C30           -2.3690    -1.0799     1.7125 C.ar    
  31 C31           -3.5725    -0.9912     1.0381 C.ar    
  32 C32           -3.6221    -0.3259    -0.1788 C.ar    
  33 C33           -2.4573     0.2333    -0.6741 C.ar    
  34 Cl34          -2.2988    -1.9105     3.2352 Cl      
  35 H35           -0.8502     2.2312    -1.6035 H       
  36 H36           -0.7799     2.5566     0.1439 H       
  37 H37            0.6442    -1.0762    -1.3811 H       
  38 H38           -0.4459    -0.0801    -2.3812 H       
  39 H39            0.9925     3.7617    -1.2461 H       
  40 H40            1.6374     2.7631     0.0828 H       
  41 H41            2.4748    -2.9770    -5.5023 H       
  42 H42            4.1446    -0.6684    -4.8618 H       
  43 H43            4.8549     3.2655    -4.2313 H       
  44 H44            2.4242    -4.2453    -3.4007 H       
  45 H45            3.9287    -4.5797    -2.5102 H       
  46 H46            3.3096    -2.9143    -2.6178 H       
  47 H47            4.8404    -4.8010    -6.1369 H       
  48 H48            4.9758    -5.6557    -4.5815 H       
  49 H49            3.3780    -5.4124    -5.3272 H       
  50 H50            5.5036    -2.1585    -3.5437 H       
  51 H51            6.1227    -3.8238    -3.4361 H       
  52 H52            6.1813    -2.9510    -4.9863 H       
  53 H53            3.6924    -4.3400    -7.3152 H       
  54 H54            4.8548    -4.3774    -9.3238 H       
  55 H55            4.6359    -2.6110    -9.3393 H       
  56 H56            6.0407    -3.3265    -8.5130 H       
  57 H57            6.0292     5.4212    -4.0756 H       
  58 H58            5.5504     6.9564    -2.2139 H       
  59 H59            3.8974     6.3453    -0.4976 H       
  60 H60            2.7076     4.1970    -0.6389 H       
  61 H61           -4.4648    -1.4355     1.4538 H       
  62 H62           -4.5500    -0.2432    -0.7253 H       
  63 H63           -2.4607     0.7583    -1.6179 H       
@<TRIPOS>BOND
   1    1    2 1
   2    1    6 1
   3    1   35 1
   4    1   36 1
   5    2    3 1
   6    2   17 1
   7    3    4 1
   8    3   37 1
   9    3   38 1
  10    4    5 1
  11    4    7 2
  12    5    6 1
  13    5    9 1
  14    6   39 1
  15    6   40 1
  16    7    8 1
  17    7   11 1
  18    8    9 2
  19    9   10 1
  20   10   16 ar
  21   10   28 ar
  22   11   12 2
  23   11   14 am
  24   13   14 1
  25   13   15 1
  26   13   21 1
  27   13   41 1
  28   14   42 1
  29   15   18 1
  30   15   19 1
  31   15   20 1
  32   16   25 ar
  33   16   43 1
  34   17   29 ar
  35   17   33 ar
  36   18   44 1
  37   18   45 1
  38   18   46 1
  39   19   47 1
  40   19   48 1
  41   19   49 1
  42   20   50 1
  43   20   51 1
  44   20   52 1
  45   21   22 am
  46   21   23 2
  47   22   24 1
  48   22   53 1
  49   24   54 1
  50   24   55 1
  51   24   56 1
  52   25   26 ar
  53   25   57 1
  54   26   27 ar
  55   26   58 1
  56   27   28 ar
  57   27   59 1
  58   28   60 1
  59   29   30 ar
  60   30   31 ar
  61   30   34 1
  62   31   32 ar
  63   31   61 1
  64   32   33 ar
  65   32   62 1
  66   33   63 1

#	End of record

