#	Name: ASD08178252
#	Creating user name:	WinNT
#	Creation time:	15. 06. 2019 21:18

#	Modifying user name:	WinNT
#	Modification time:	15. 06. 2019 21:18

#	Program:	/corina/corina34_cracker 3.40 0067  02.08.2006

@<TRIPOS>MOLECULE
ASD08178252
  68   71    0    0    0
SMALL
NO_CHARGES


@<TRIPOS>ATOM
   1 N1            -0.7683     2.0856    -3.2231 N.am    
   2 C2            -0.7384     0.7061    -3.0222 C.ar    
   3 C3             0.4786     0.0276    -3.0041 C.ar    
   4 N4            -1.8664     0.0353    -2.8422 N.ar    
   5 N5            -1.8820    -1.2342    -2.6537 N.ar    
   6 C6            -0.7785    -1.9554    -2.6266 C.ar    
   7 C7             0.4545    -1.3437    -2.8002 C.ar    
   8 C8            -0.8562    -3.4434    -2.4009 C.3     
   9 C9            -1.6227    -3.7236    -1.1067 C.3     
  10 C10           -1.7017    -5.2343    -0.8776 C.3     
  11 C11           -2.4681    -5.5145     0.4166 C.3     
  12 C12           -2.5459    -7.0024     0.6423 C.2     
  13 N13           -1.6894    -7.7219     1.2954 N.2     
  14 N14           -1.9333    -8.9581     1.3737 N.2     
  15 C15           -3.0117    -9.3976     0.7983 C.2     
  16 S16           -3.8236    -8.0760     0.0710 S.3     
  17 N17           -3.4392   -10.7209     0.7805 N.am    
  18 C18           -2.7115   -11.6726     1.3979 C.2     
  19 C19           -3.1748   -13.1064     1.3786 C.3     
  20 O20           -1.6838   -11.3750     1.9690 O.2     
  21 C21           -2.1912   -13.9624     2.1342 C.ar    
  22 C22           -2.3558   -14.1694     3.4913 C.ar    
  23 C23           -1.4556   -14.9546     4.1883 C.ar    
  24 C24           -0.3887   -15.5341     3.5304 C.ar    
  25 C25           -0.2205   -15.3281     2.1672 C.ar    
  26 C26           -1.1293   -14.5439     1.4692 C.ar    
  27 N27            0.8595   -15.9139     1.4976 N.am    
  28 C28           -1.9491     2.7220    -3.3548 C.2     
  29 O29           -2.9806     2.0851    -3.3897 O.2     
  30 C30           -1.9876     4.2249    -3.4585 C.3     
  31 C31           -3.4168     4.6825    -3.5968 C.ar    
  32 C32           -4.1619     4.9722    -2.4691 C.ar    
  33 C33           -5.4729     5.3919    -2.5960 C.ar    
  34 C34           -6.0386     5.5222    -3.8506 C.ar    
  35 C35           -5.2931     5.2333    -4.9783 C.ar    
  36 C36           -3.9808     4.8178    -4.8516 C.ar    
  37 C37            1.3255   -17.1154     1.8922 C.2     
  38 C38            2.5592   -17.6936     1.2482 C.3     
  39 O39            0.7520   -17.7313     2.7656 O.2     
  40 H40            0.0605     2.5878    -3.2642 H       
  41 H41            1.4115     0.5534    -3.1448 H       
  42 H42            1.3682    -1.9191    -2.7812 H       
  43 H43           -1.3738    -3.9114    -3.2383 H       
  44 H44            0.1512    -3.8521    -2.3223 H       
  45 H45           -1.1051    -3.2557    -0.2693 H       
  46 H46           -2.6301    -3.3149    -1.1853 H       
  47 H47           -2.2193    -5.7022    -1.7150 H       
  48 H48           -0.6942    -5.6430    -0.7989 H       
  49 H49           -1.9505    -5.0465     1.2540 H       
  50 H50           -3.4756    -5.1058     0.3380 H       
  51 H51           -4.2612   -10.9589     0.3237 H       
  52 H52           -4.1553   -13.1779     1.8494 H       
  53 H53           -3.2408   -13.4531     0.3473 H       
  54 H54           -3.1890   -13.7166     4.0082 H       
  55 H55           -1.5870   -15.1144     5.2483 H       
  56 H56            0.3143   -16.1466     4.0754 H       
  57 H57           -1.0014   -14.3821     0.4091 H       
  58 H58            1.2727   -15.4553     0.7494 H       
  59 H59           -1.5513     4.6624    -2.5605 H       
  60 H60           -1.4179     4.5436    -4.3315 H       
  61 H61           -3.7200     4.8704    -1.4890 H       
  62 H62           -6.0553     5.6176    -1.7150 H       
  63 H63           -7.0630     5.8494    -3.9497 H       
  64 H64           -5.7352     5.3348    -5.9584 H       
  65 H65           -3.3984     4.5921    -5.7326 H       
  66 H66            2.9321   -17.0028     0.4920 H       
  67 H67            3.3259   -17.8499     2.0071 H       
  68 H68            2.3121   -18.6463     0.7798 H       
@<TRIPOS>BOND
   1    1    2 1
   2    1   28 am
   3    1   40 1
   4    2    3 ar
   5    2    4 ar
   6    3    7 ar
   7    3   41 1
   8    4    5 ar
   9    5    6 ar
  10    6    7 ar
  11    6    8 1
  12    7   42 1
  13    8    9 1
  14    8   43 1
  15    8   44 1
  16    9   10 1
  17    9   45 1
  18    9   46 1
  19   10   11 1
  20   10   47 1
  21   10   48 1
  22   11   12 1
  23   11   49 1
  24   11   50 1
  25   12   13 2
  26   12   16 1
  27   13   14 1
  28   14   15 2
  29   15   16 1
  30   15   17 1
  31   17   18 am
  32   17   51 1
  33   18   19 1
  34   18   20 2
  35   19   21 1
  36   19   52 1
  37   19   53 1
  38   21   22 ar
  39   21   26 ar
  40   22   23 ar
  41   22   54 1
  42   23   24 ar
  43   23   55 1
  44   24   25 ar
  45   24   56 1
  46   25   26 ar
  47   25   27 1
  48   26   57 1
  49   27   37 am
  50   27   58 1
  51   28   29 2
  52   28   30 1
  53   30   31 1
  54   30   59 1
  55   30   60 1
  56   31   32 ar
  57   31   36 ar
  58   32   33 ar
  59   32   61 1
  60   33   34 ar
  61   33   62 1
  62   34   35 ar
  63   34   63 1
  64   35   36 ar
  65   35   64 1
  66   36   65 1
  67   37   38 1
  68   37   39 2
  69   38   66 1
  70   38   67 1
  71   38   68 1

#	End of record

