#	Name: ASD01917038
#	Creating user name:	WinNT
#	Creation time:	15. 06. 2019 20:08

#	Modifying user name:	WinNT
#	Modification time:	15. 06. 2019 20:08

#	Program:	/corina/corina34_cracker 3.40 0067  02.08.2006

@<TRIPOS>MOLECULE
ASD01917038
  37   39    0    0    0
SMALL
NO_CHARGES


@<TRIPOS>ATOM
   1 C1             1.1667    -0.6419    -0.0730 C.ar    
   2 C2            -0.0173     0.0406    -0.2841 C.ar    
   3 C3            -0.0125     1.4188    -0.4289 C.ar    
   4 C4             1.1776     2.1181    -0.3633 C.ar    
   5 C5             2.3740     1.4333    -0.1505 C.ar    
   6 C6             2.3612     0.0462    -0.0052 C.ar    
   7 C7             3.6523     2.1757    -0.0795 C.2     
   8 N8             4.8532     1.6666    -0.2547 N.2     
   9 C9             5.7743     2.6268    -0.1193 C.2     
  10 N10            5.1695     3.7649     0.1452 N.2     
  11 N11            3.7910     3.4985     0.1710 N.pl3   
  12 C12            2.7162     4.4604     0.4271 C.3     
  13 C13            2.2976     5.1030    -0.8702 C.2     
  14 O14            1.3207     6.0235    -0.8787 O.3     
  15 O15            2.8414     4.7896    -1.9027 O.2     
  16 C16            0.9696     6.6004    -2.1641 C.3     
  17 C17            7.2411     2.4387    -0.2458 C.ar    
  18 C18            7.7621     1.1782    -0.5293 C.ar    
  19 C19            8.1010     3.5233    -0.0872 C.ar    
  20 C20            9.4662     3.3422    -0.2061 C.ar    
  21 C21            9.9782     2.0847    -0.4825 C.ar    
  22 C22            9.1271     1.0074    -0.6462 C.ar    
  23 F23           -1.1727     2.0795    -0.6350 F       
  24 F24           10.3021     4.3925    -0.0531 F       
  25 H25            1.1562    -1.7155     0.0436 H       
  26 H26           -0.9493    -0.5026    -0.3367 H       
  27 H27            1.1814     3.1921    -0.4769 H       
  28 H28            3.2847    -0.4888     0.1602 H       
  29 H29            1.8638     3.9438     0.8683 H       
  30 H30            3.0715     5.2279     1.1147 H       
  31 H31            1.8421     7.0953    -2.5907 H       
  32 H32            0.6343     5.8112    -2.8371 H       
  33 H33            0.1690     7.3276    -2.0295 H       
  34 H34            7.0990     0.3354    -0.6571 H       
  35 H35            7.7018     4.5035     0.1279 H       
  36 H36           11.0453     1.9465    -0.5752 H       
  37 H37            9.5312     0.0292    -0.8611 H       
@<TRIPOS>BOND
   1    1    2 ar
   2    1    6 ar
   3    1   25 1
   4    2    3 ar
   5    2   26 1
   6    3    4 ar
   7    3   23 1
   8    4    5 ar
   9    4   27 1
  10    5    6 ar
  11    5    7 1
  12    6   28 1
  13    7    8 2
  14    7   11 1
  15    8    9 1
  16    9   10 2
  17    9   17 1
  18   10   11 1
  19   11   12 1
  20   12   13 1
  21   12   29 1
  22   12   30 1
  23   13   14 1
  24   13   15 2
  25   14   16 1
  26   16   31 1
  27   16   32 1
  28   16   33 1
  29   17   18 ar
  30   17   19 ar
  31   18   22 ar
  32   18   34 1
  33   19   20 ar
  34   19   35 1
  35   20   21 ar
  36   20   24 1
  37   21   22 ar
  38   21   36 1
  39   22   37 1

#	End of record

