#	Name: ASD09116104
#	Creating user name:	WinNT
#	Creation time:	15. 06. 2019 21:20

#	Modifying user name:	WinNT
#	Modification time:	15. 06. 2019 21:20

#	Program:	/corina/corina34_cracker 3.40 0067  02.08.2006

@<TRIPOS>MOLECULE
ASD09116104
  78   83    0    0    0
SMALL
NO_CHARGES


@<TRIPOS>ATOM
   1 C1             5.5312    -1.1460    -2.0699 C.ar    
   2 N2             4.5157    -2.0590    -1.7929 N.pl3   
   3 N3             3.4946    -1.9191    -0.8391 N.2     
   4 C4             2.7566    -3.0008    -0.9060 C.2     
   5 N5             3.2532    -3.8136    -1.8460 N.2     
   6 C6             4.3125    -3.2605    -2.3965 C.2     
   7 N7             5.0857    -3.8068    -3.4026 N.pl3   
   8 N8             1.6334    -3.2628    -0.1222 N.pl3   
   9 C9             5.6069     0.0643    -1.3606 C.ar    
  10 N10            6.4264    -1.4171    -3.0096 N.ar    
  11 C11            7.3933    -0.5638    -3.2765 C.ar    
  12 N12            7.4963     0.5710    -2.6220 N.ar    
  13 C13            6.6384     0.9216    -1.6742 C.ar    
  14 C14            0.9935    -4.5059    -0.2086 C.ar    
  15 C15            1.7221    -5.6551    -0.5109 C.ar    
  16 C16            1.0492    -6.8611    -0.5855 C.ar    
  17 C17           -0.3224    -6.8873    -0.3581 C.ar    
  18 N18           -0.9825    -5.7760    -0.0734 N.ar    
  19 C19           -0.3720    -4.6093     0.0111 C.ar    
  20 N20           -1.0095    -8.0967    -0.4314 N.3     
  21 C21           -0.7972    -8.7447    -1.7319 C.3     
  22 C22            6.8397     2.2314    -0.9748 C.3     
  23 C23            5.9273     3.3248    -1.5082 C.3     
  24 C24            4.5483     2.8173    -1.9142 C.3     
  25 C25            3.9294     2.7282    -0.5267 C.3     
  26 C26            4.4093     1.6340     0.4191 C.3     
  27 C27            4.5530     0.3114    -0.3236 C.3     
  28 C28           -2.4401    -7.9065    -0.1602 C.3     
  29 C29           -3.1358    -9.2684    -0.1053 C.3     
  30 C30           -2.9421    -9.9893    -1.4422 C.3     
  31 C31           -1.4438   -10.1317    -1.7239 C.3     
  32 N32           -3.5578   -11.3214    -1.3754 N.3     
  33 C33           -3.1294   -12.0149    -0.2399 C.3     
  34 C34           -3.5822   -13.4911    -0.2656 C.3     
  35 C35           -5.0405   -13.5645     0.1091 C.3     
  36 C36           -5.9706   -13.5340    -1.1200 C.3     
  37 C37           -5.5015   -12.5141    -2.1716 C.3     
  38 C38           -5.0234   -11.2352    -1.5308 C.3     
  39 H39            4.8631    -4.6779    -3.7666 H       
  40 H40            5.8511    -3.3192    -3.7451 H       
  41 H41            1.2953    -2.5843     0.4830 H       
  42 H42            8.1108    -0.8011    -4.0469 H       
  43 H43            2.7871    -5.6049    -0.6831 H       
  44 H44            1.5823    -7.7712    -0.8178 H       
  45 H45           -0.9436    -3.7234     0.2456 H       
  46 H46           -1.2479    -8.1384    -2.5177 H       
  47 H47            0.2722    -8.8436    -1.9181 H       
  48 H48            6.7281     2.1171     0.0947 H       
  49 H49            7.8807     2.5490    -1.1543 H       
  50 H50            5.8110     4.0929    -0.7421 H       
  51 H51            6.4013     3.7822    -2.3798 H       
  52 H52            4.0268     3.5475    -2.5439 H       
  53 H53            4.5937     1.8515    -2.4167 H       
  54 H54            4.0715     3.6929    -0.0285 H       
  55 H55            2.8459     2.6071    -0.6536 H       
  56 H56            5.3315     1.9131     0.9138 H       
  57 H57            3.6490     1.5032     1.2096 H       
  58 H58            3.5848     0.1155    -0.8019 H       
  59 H59            4.6664    -0.4694     0.4390 H       
  60 H60           -2.5640    -7.3966     0.7952 H       
  61 H61           -2.8831    -7.3041    -0.9533 H       
  62 H62           -2.7027    -9.8663     0.6966 H       
  63 H63           -4.2004    -9.1261     0.0805 H       
  64 H64           -3.4092    -9.4107    -2.2391 H       
  65 H65           -1.2995   -10.6061    -2.6946 H       
  66 H66           -0.9840   -10.7431    -0.9475 H       
  67 H67           -2.0411   -11.9779    -0.1907 H       
  68 H68           -3.5403   -11.5327     0.6470 H       
  69 H69           -3.4421   -13.8981    -1.2671 H       
  70 H70           -2.9927   -14.0659     0.4487 H       
  71 H71           -5.2164   -14.4878     0.6611 H       
  72 H72           -5.2814   -12.7195     0.7541 H       
  73 H73           -5.9925   -14.5253    -1.5727 H       
  74 H74           -6.9778   -13.2716    -0.7961 H       
  75 H75           -4.6861   -12.9487    -2.7498 H       
  76 H76           -6.3304   -12.2877    -2.8423 H       
  77 H77           -5.4910   -11.1159    -0.5534 H       
  78 H78           -5.2771   -10.3873    -2.1671 H       
@<TRIPOS>BOND
   1    1    2 1
   2    1    9 ar
   3    1   10 ar
   4    2    3 1
   5    2    6 1
   6    3    4 2
   7    4    5 1
   8    4    8 1
   9    5    6 2
  10    6    7 1
  11    7   39 1
  12    7   40 1
  13    8   14 1
  14    8   41 1
  15    9   13 ar
  16    9   27 1
  17   10   11 ar
  18   11   12 ar
  19   11   42 1
  20   12   13 ar
  21   13   22 1
  22   14   15 ar
  23   14   19 ar
  24   15   16 ar
  25   15   43 1
  26   16   17 ar
  27   16   44 1
  28   17   18 ar
  29   17   20 1
  30   18   19 ar
  31   19   45 1
  32   20   28 1
  33   20   21 1
  34   21   31 1
  35   21   46 1
  36   21   47 1
  37   22   23 1
  38   22   48 1
  39   22   49 1
  40   23   24 1
  41   23   50 1
  42   23   51 1
  43   24   25 1
  44   24   52 1
  45   24   53 1
  46   25   26 1
  47   25   54 1
  48   25   55 1
  49   26   27 1
  50   26   56 1
  51   26   57 1
  52   27   58 1
  53   27   59 1
  54   28   29 1
  55   28   60 1
  56   28   61 1
  57   29   30 1
  58   29   62 1
  59   29   63 1
  60   30   31 1
  61   30   32 1
  62   30   64 1
  63   31   65 1
  64   31   66 1
  65   32   33 1
  66   32   38 1
  67   33   34 1
  68   33   67 1
  69   33   68 1
  70   34   35 1
  71   34   69 1
  72   34   70 1
  73   35   36 1
  74   35   71 1
  75   35   72 1
  76   36   37 1
  77   36   73 1
  78   36   74 1
  79   37   38 1
  80   37   75 1
  81   37   76 1
  82   38   77 1
  83   38   78 1

#	End of record

