#	Name: ASD01418019
#	Creating user name:	WinNT
#	Creation time:	15. 06. 2019 19:20

#	Modifying user name:	WinNT
#	Modification time:	15. 06. 2019 19:20

#	Program:	/corina/corina34_cracker 3.40 0067  02.08.2006

@<TRIPOS>MOLECULE
ASD01418019
  45   47    0    0    0
SMALL
NO_CHARGES


@<TRIPOS>ATOM
   1 C1            -0.5415     1.1191     0.2805 C.2     
   2 C2            -0.3701    -0.2344     0.2200 C.2     
   3 C3             0.9370    -0.6438     0.1088 C.2     
   4 C4             1.8536     0.3824     0.0771 C.2     
   5 S5             1.0182     1.9249     0.1933 S.3     
   6 C6            -1.8386     1.8012     0.3950 C.2     
   7 C7            -2.0132     3.1589     0.4558 C.2     
   8 C8            -3.3113     3.5642     0.5600 C.2     
   9 C9            -4.2302     2.5449     0.5869 C.2     
  10 S10           -3.4014     0.9987     0.4671 S.3     
  11 C11            3.2536     0.2207    -0.0323 C.2     
  12 O12            3.7334    -0.8956    -0.1072 O.2     
  13 O13            4.0587     1.3042    -0.0538 O.3     
  14 N14            1.3035    -1.9851     0.0348 N.am    
  15 S15            0.3377    -3.0644    -0.7681 S.o2    
  16 O16            1.0407    -4.2992    -0.7817 O.2     
  17 O17           -0.9665    -2.9184    -0.2231 O.2     
  18 C18            0.2391    -2.5295    -2.4441 C.ar    
  19 C19            1.3700    -2.5363    -3.2395 C.ar    
  20 C20            1.2927    -2.1167    -4.5542 C.ar    
  21 C21            0.0844    -1.6907    -5.0740 C.ar    
  22 C22           -1.0462    -1.6849    -4.2791 C.ar    
  23 C23           -0.9698    -2.1086    -2.9653 C.ar    
  24 C24            0.0004    -1.2323    -6.5071 C.3     
  25 C25            2.6869    -3.0006    -2.6729 C.3     
  26 C26           -5.6279     2.7125     0.6895 C.2     
  27 O27           -6.1020     3.8285     0.7623 O.2     
  28 C28           -6.5320     1.5070     0.7087 C.3     
  29 H29           -1.1967    -0.9285     0.2572 H       
  30 H30           -1.1872     3.8540     0.4240 H       
  31 H31           -3.5939     4.6050     0.6172 H       
  32 H32            4.9994     1.0938    -0.1309 H       
  33 H33            2.1246    -2.2873     0.4536 H       
  34 H34            2.1762    -2.1213    -5.1753 H       
  35 H35           -1.9900    -1.3518    -4.6850 H       
  36 H36           -1.8541    -2.1076    -2.3452 H       
  37 H37           -0.2319    -2.0831    -7.1476 H       
  38 H38           -0.7833    -0.4808    -6.6028 H       
  39 H39            0.9555    -0.8015    -6.8074 H       
  40 H40            2.8102    -4.0662    -2.8662 H       
  41 H41            3.5002    -2.4493    -3.1450 H       
  42 H42            2.7031    -2.8221    -1.5978 H       
  43 H43           -5.9308     0.6008     0.6347 H       
  44 H44           -7.0982     1.4923     1.6400 H       
  45 H45           -7.2208     1.5559    -0.1346 H       
@<TRIPOS>BOND
   1    1    2 2
   2    1    5 1
   3    1    6 1
   4    2    3 1
   5    2   29 1
   6    3    4 2
   7    3   14 1
   8    4    5 1
   9    4   11 1
  10    6    7 2
  11    6   10 1
  12    7    8 1
  13    7   30 1
  14    8    9 2
  15    8   31 1
  16    9   10 1
  17    9   26 1
  18   11   12 2
  19   11   13 1
  20   13   32 1
  21   14   15 am
  22   14   33 1
  23   15   16 2
  24   15   17 2
  25   15   18 1
  26   18   19 ar
  27   18   23 ar
  28   19   20 ar
  29   19   25 1
  30   20   21 ar
  31   20   34 1
  32   21   22 ar
  33   21   24 1
  34   22   23 ar
  35   22   35 1
  36   23   36 1
  37   24   37 1
  38   24   38 1
  39   24   39 1
  40   25   40 1
  41   25   41 1
  42   25   42 1
  43   26   27 2
  44   26   28 1
  45   28   43 1
  46   28   44 1
  47   28   45 1

#	End of record

