#	Name: ASD01001285
#	Creating user name:	WinNT
#	Creation time:	15. 06. 2019 18:55

#	Modifying user name:	WinNT
#	Modification time:	15. 06. 2019 18:55

#	Program:	/corina/corina34_cracker 3.40 0067  02.08.2006

@<TRIPOS>MOLECULE
ASD01001285
  33   36    0    0    0
SMALL
NO_CHARGES


@<TRIPOS>ATOM
   1 C1            -0.0168     1.3894     0.0097 C.ar    
   2 C2             0.0021    -0.0041     0.0020 C.ar    
   3 C3            -1.1837    -0.7193     0.0091 C.ar    
   4 C4            -2.4013    -0.0481     0.0244 C.ar    
   5 C5            -2.4142     1.3550     0.0332 C.ar    
   6 C6            -1.2154     2.0656     0.0305 C.ar    
   7 N7            -3.7104    -0.4963     0.0332 N.pl3   
   8 C8            -4.5844     0.5765     0.0504 C.ar    
   9 C9            -3.8318     1.7602     0.0513 C.ar    
  10 C10            1.2807     2.1559     0.0014 C.3     
  11 C11            2.3350     1.3835     0.7949 C.3     
  12 C12            2.3585    -0.0543     0.3513 C.2     
  13 N13            1.2256    -0.6823    -0.0119 N.am    
  14 C14           -5.9737     0.6527     0.0664 C.ar    
  15 C15           -6.5973     1.8818     0.0826 C.ar    
  16 C16           -5.8518     3.0508     0.0832 C.ar    
  17 C17           -4.4747     2.9959     0.0681 C.ar    
  18 O18            3.4120    -0.6544     0.3205 O.2     
  19 C19           -8.1024     1.9556     0.0992 C.3     
  20 F20           -8.5540     1.9683     1.4233 F       
  21 F21           -8.5191     3.1245    -0.5468 F       
  22 F22           -8.6312     0.8427    -0.5633 F       
  23 H23           -1.1627    -1.7991     0.0023 H       
  24 H24           -1.2269     3.1456     0.0367 H       
  25 H25           -3.9772    -1.4289     0.0277 H       
  26 H26            1.6207     2.2833    -1.0263 H       
  27 H27            1.1276     3.1341     0.4572 H       
  28 H28            3.3147     1.8305     0.6260 H       
  29 H29            2.0953     1.4308     1.8571 H       
  30 H30            1.2573    -1.6124    -0.2851 H       
  31 H31           -6.5638    -0.2518     0.0657 H       
  32 H32           -6.3520     4.0079     0.0958 H       
  33 H33           -3.8960     3.9078     0.0684 H       
@<TRIPOS>BOND
   1    1    2 ar
   2    1   10 1
   3    1    6 ar
   4    2    3 ar
   5    2   13 1
   6    3    4 ar
   7    3   23 1
   8    4    5 ar
   9    4    7 1
  10    5    6 ar
  11    5    9 1
  12    6   24 1
  13    7    8 1
  14    7   25 1
  15    8    9 ar
  16    8   14 ar
  17    9   17 ar
  18   10   11 1
  19   10   26 1
  20   10   27 1
  21   11   12 1
  22   11   28 1
  23   11   29 1
  24   12   13 am
  25   12   18 2
  26   13   30 1
  27   14   15 ar
  28   14   31 1
  29   15   16 ar
  30   15   19 1
  31   16   17 ar
  32   16   32 1
  33   17   33 1
  34   19   20 1
  35   19   21 1
  36   19   22 1

#	End of record

