#	Name: ASD01811465
#	Creating user name:	WinNT
#	Creation time:	15. 06. 2019 19:26

#	Modifying user name:	WinNT
#	Modification time:	15. 06. 2019 19:26

#	Program:	/corina/corina34_cracker 3.40 0067  02.08.2006

@<TRIPOS>MOLECULE
ASD01811465
  72   77    0    0    0
SMALL
NO_CHARGES


@<TRIPOS>ATOM
   1 C1             0.0716     1.5036     0.1821 C.3     
   2 C2             0.0789    -0.0045     0.1465 C.2     
   3 C3             1.1822    -0.7534    -0.0813 C.2     
   4 C4             2.5596    -0.1867    -0.3233 C.3     
   5 C5             2.4258     1.2902    -0.7139 C.3     
   6 N6             1.4776     1.9472     0.1981 N.am    
   7 C7            -0.4650    -2.1245     0.1953 C.2     
   8 N8            -0.9645    -0.8591     0.3256 N.pl3   
   9 N9             0.8257    -2.0385    -0.0493 N.2     
  10 C10            1.8830     2.9301     1.0265 C.2     
  11 O11            3.0456     3.2834     1.0267 O.2     
  12 O12            0.9998     3.5204     1.8536 O.3     
  13 C13           -1.2423    -3.3778     0.3102 C.ar    
  14 C14           -0.6073    -4.6119     0.1549 C.ar    
  15 C15           -1.3313    -5.7826     0.2618 C.ar    
  16 C16           -2.6866    -5.7422     0.5232 C.ar    
  17 C17           -3.3339    -4.5149     0.6808 C.ar    
  18 C18           -2.6079    -3.3298     0.5793 C.ar    
  19 C19           -3.4688    -7.0252     0.6383 C.3     
  20 C20            0.8714    -4.6658    -0.1307 C.3     
  21 C21            1.7590    -5.4001     0.8762 C.3     
  22 C22            1.4724    -6.0261    -0.4902 C.3     
  23 C23           -4.7854    -4.4732     0.9597 C.2     
  24 O24           -5.2402    -5.0850     1.9064 O.2     
  25 N25           -5.6042    -3.7568     0.1642 N.am    
  26 C26           -7.0585    -3.7794     0.3723 C.3     
  27 C27           -7.7395    -4.1564    -0.9471 C.3     
  28 C28           -7.2769    -3.1985    -2.0473 C.3     
  29 C29           -5.7629    -3.3243    -2.2321 C.3     
  30 C30           -5.0590    -2.9335    -0.9237 C.3     
  31 C31           -7.9708    -3.5452    -3.3393 C.ar    
  32 C32           -8.7717    -2.6059    -3.9644 C.ar    
  33 C33           -9.4099    -2.9166    -5.1472 C.ar    
  34 C34           -9.2458    -4.1822    -5.7138 C.ar    
  35 C35           -8.4358    -5.1251    -5.0779 C.ar    
  36 C36           -7.7996    -4.7994    -3.8979 C.ar    
  37 C37           -9.9056    -4.5117    -6.9413 C.1     
  38 N38          -10.4290    -4.7732    -7.9150 N.1     
  39 C39            1.5068     4.5713     2.7179 C.3     
  40 H40           -0.4304     1.8933    -0.7035 H       
  41 H41           -0.4374     1.8510     1.0813 H       
  42 H42            3.1544    -0.2715     0.5862 H       
  43 H43            3.0437    -0.7357    -1.1310 H       
  44 H44            3.3987     1.7761    -0.6397 H       
  45 H45            2.0579     1.3643    -1.7373 H       
  46 H46           -1.8854    -0.6168     0.5104 H       
  47 H47           -0.8354    -6.7343     0.1401 H       
  48 H48           -3.1028    -2.3781     0.7047 H       
  49 H49           -3.3909    -7.4082     1.6558 H       
  50 H50           -4.5155    -6.8351     0.4008 H       
  51 H51           -3.0658    -7.7601    -0.0585 H       
  52 H52            1.2879    -3.7858    -0.6208 H       
  53 H53            2.7596    -5.0035     1.0482 H       
  54 H54            1.2734    -5.8443     1.7451 H       
  55 H55            0.7982    -6.8821    -0.5202 H       
  56 H56            2.2844    -6.0413    -1.2171 H       
  57 H57           -7.3069    -4.5168     1.1356 H       
  58 H58           -7.3975    -2.7933     0.6898 H       
  59 H59           -7.4701    -5.1776    -1.2168 H       
  60 H60           -8.8210    -4.0833    -0.8321 H       
  61 H61           -7.5245    -2.1751    -1.7656 H       
  62 H62           -5.5120    -4.3533    -2.4897 H       
  63 H63           -5.4374    -2.6589    -3.0317 H       
  64 H64           -5.2383    -1.8798    -0.7098 H       
  65 H65           -3.9877    -3.1125    -1.0159 H       
  66 H66           -8.8978    -1.6274    -3.5250 H       
  67 H67          -10.0353    -2.1827    -5.6338 H       
  68 H68           -8.3046    -6.1058    -5.5107 H       
  69 H69           -7.1695    -5.5264    -3.4071 H       
  70 H70            0.6942     4.9610     3.3311 H       
  71 H71            2.2868     4.1667     3.3628 H       
  72 H72            1.9198     5.3751     2.1085 H       
@<TRIPOS>BOND
   1    1    2 1
   2    1    6 1
   3    1   40 1
   4    1   41 1
   5    2    3 2
   6    2    8 1
   7    3    4 1
   8    3    9 1
   9    4    5 1
  10    4   42 1
  11    4   43 1
  12    5    6 1
  13    5   44 1
  14    5   45 1
  15    6   10 am
  16    7    8 1
  17    7    9 2
  18    7   13 1
  19    8   46 1
  20   10   11 2
  21   10   12 1
  22   12   39 1
  23   13   14 ar
  24   13   18 ar
  25   14   15 ar
  26   14   20 1
  27   15   16 ar
  28   15   47 1
  29   16   17 ar
  30   16   19 1
  31   17   18 ar
  32   17   23 1
  33   18   48 1
  34   19   49 1
  35   19   50 1
  36   19   51 1
  37   20   21 1
  38   20   22 1
  39   20   52 1
  40   21   22 1
  41   21   53 1
  42   21   54 1
  43   22   55 1
  44   22   56 1
  45   23   24 2
  46   23   25 am
  47   25   26 1
  48   25   30 1
  49   26   27 1
  50   26   57 1
  51   26   58 1
  52   27   28 1
  53   27   59 1
  54   27   60 1
  55   28   29 1
  56   28   31 1
  57   28   61 1
  58   29   30 1
  59   29   62 1
  60   29   63 1
  61   30   64 1
  62   30   65 1
  63   31   32 ar
  64   31   36 ar
  65   32   33 ar
  66   32   66 1
  67   33   34 ar
  68   33   67 1
  69   34   35 ar
  70   34   37 1
  71   35   36 ar
  72   35   68 1
  73   36   69 1
  74   37   38 3
  75   39   70 1
  76   39   71 1
  77   39   72 1

#	End of record

