#	Name: ASD01730095
#	Creating user name:	WinNT
#	Creation time:	15. 06. 2019 19:23

#	Modifying user name:	WinNT
#	Modification time:	15. 06. 2019 19:23

#	Program:	/corina/corina34_cracker 3.40 0067  02.08.2006

@<TRIPOS>MOLECULE
ASD01730095
  23   23    0    0    0
SMALL
NO_CHARGES


@<TRIPOS>ATOM
   1 C1             0.0021    -0.0041     0.0020 C.1     
   2 C2            -0.0179     1.4678     0.0101 C.3     
   3 N3             0.0175    -1.1399    -0.0042 N.1     
   4 S4             1.6839     2.0957    -0.0028 S.3     
   5 C5             1.4616     3.8435     0.0087 C.ar    
   6 C6             2.5712     4.6895     0.0027 C.ar    
   7 C7             2.3926     6.0635     0.0113 C.ar    
   8 C8             1.1159     6.5961     0.0263 C.ar    
   9 C9             0.0116     5.7576     0.0328 C.ar    
  10 C10            0.1834     4.3815     0.0180 C.ar    
  11 O11           -1.2417     6.2854     0.0485 O.3     
  12 C12           -1.3453     7.7106     0.0576 C.3     
  13 F13           -0.7330     8.2300    -1.0881 F       
  14 F14           -2.6946     8.0799     0.0733 F       
  15 F15           -0.7099     8.2172     1.1963 F       
  16 N16            3.8658     4.1498    -0.0116 N.pl3   
  17 H17           -0.5451     1.8289    -0.8729 H       
  18 H18           -0.5281     1.8193     0.9069 H       
  19 H19            3.2507     6.7192     0.0066 H       
  20 H20            0.9791     7.6674     0.0334 H       
  21 H21           -0.6774     3.7293     0.0186 H       
  22 H22            3.9901     3.1878    -0.0173 H       
  23 H23            4.6367     4.7385    -0.0158 H       
@<TRIPOS>BOND
   1    1    2 1
   2    1    3 3
   3    2    4 1
   4    2   17 1
   5    2   18 1
   6    4    5 1
   7    5    6 ar
   8    5   10 ar
   9    6    7 ar
  10    6   16 1
  11    7    8 ar
  12    7   19 1
  13    8    9 ar
  14    8   20 1
  15    9   10 ar
  16    9   11 1
  17   10   21 1
  18   11   12 1
  19   12   13 1
  20   12   14 1
  21   12   15 1
  22   16   22 1
  23   16   23 1

#	End of record

