#	Name: ASD02030441
#	Creating user name:	WinNT
#	Creation time:	15. 06. 2019 20:15

#	Modifying user name:	WinNT
#	Modification time:	15. 06. 2019 20:15

#	Program:	/corina/corina34_cracker 3.40 0067  02.08.2006

@<TRIPOS>MOLECULE
ASD02030441
  48   49    0    0    0
SMALL
NO_CHARGES


@<TRIPOS>ATOM
   1 C1            -0.0461     1.1414    -0.0173 C.2     
   2 O2             0.0906    -0.0664     0.0013 O.2     
   3 N3             1.0371     1.9414    -0.0715 N.am    
   4 C4             2.3939     1.3831     0.0314 C.3     
   5 C5             3.2281     1.9119    -1.1403 C.3     
   6 N6             3.1602     3.3791    -1.1626 N.3     
   7 C7             1.7870     3.8456    -1.3963 C.3     
   8 C8             0.8940     3.3954    -0.2413 C.3     
   9 C9             3.0300     1.8185     1.3530 C.3     
  10 C10            2.3274    -0.1441    -0.0330 C.3     
  11 N11           -3.5092     1.9135    -0.0112 N.pl3   
  12 N12           -2.5353     1.0721    -0.0742 N.2     
  13 C13           -1.4008     1.7325     0.0135 C.2     
  14 N14           -1.6908     3.0408     0.1362 N.2     
  15 C15           -2.9946     3.1533     0.1210 C.2     
  16 C16           -4.8724     1.5949    -0.0752 C.ar    
  17 C17           -5.2717     0.2728    -0.2185 C.ar    
  18 C18           -6.6170    -0.0381    -0.2814 C.ar    
  19 C19           -7.5650     0.9674    -0.2020 C.ar    
  20 C20           -7.1694     2.2842    -0.0594 C.ar    
  21 C21           -5.8263     2.6001     0.0102 C.ar    
  22 Cl22          -7.1180    -1.6906    -0.4605 Cl      
  23 H23            4.2648     1.5975    -1.0198 H       
  24 H24            2.8336     1.5152    -2.0758 H       
  25 H25            3.5356     3.7715    -0.3121 H       
  26 H26            1.7786     4.9336    -1.4616 H       
  27 H27            1.4127     3.4220    -2.3283 H       
  28 H28           -0.1445     3.6372    -0.4674 H       
  29 H29            1.2002     3.9028     0.6735 H       
  30 H30            2.4253     1.4558     2.1842 H       
  31 H31            4.0352     1.4034     1.4266 H       
  32 H32            3.0827     2.9066     1.3898 H       
  33 H33            1.7966    -0.4470    -0.9355 H       
  34 H34            3.3383    -0.5513    -0.0521 H       
  35 H35            1.8000    -0.5221     0.8428 H       
  36 H36           -3.5566     4.0721     0.2003 H       
  37 H37           -4.5321    -0.5117    -0.2811 H       
  38 H38           -8.6157     0.7227    -0.2521 H       
  39 H39           -7.9113     3.0666     0.0022 H       
  40 H40           -5.5184     3.6287     0.1265 H       
  41 C41           10.4362    11.9219     8.3310 C.2     
  42 C42           10.4566    10.4150     8.3227 C.3     
  43 O43           11.4742    12.5402     8.3244 O.2     
  44 O44            9.2648    12.5771     8.3401 O.3     
  45 F45           11.7818     9.9667     8.3077 F       
  46 F46            9.8145     9.9336     9.4686 F       
  47 F47            9.7926     9.9459     7.1842 F       
  48 H48            9.3023    13.5434     8.3452 H       
@<TRIPOS>BOND
   1    1    2 2
   2    1    3 am
   3    1   13 1
   4    3    4 1
   5    3    8 1
   6    4    5 1
   7    4    9 1
   8    4   10 1
   9    5    6 1
  10    5   23 1
  11    5   24 1
  12    6    7 1
  13    6   25 1
  14    7    8 1
  15    7   26 1
  16    7   27 1
  17    8   28 1
  18    8   29 1
  19    9   30 1
  20    9   31 1
  21    9   32 1
  22   10   33 1
  23   10   34 1
  24   10   35 1
  25   11   12 1
  26   11   15 1
  27   11   16 1
  28   12   13 2
  29   13   14 1
  30   14   15 2
  31   15   36 1
  32   16   17 ar
  33   16   21 ar
  34   17   18 ar
  35   17   37 1
  36   18   19 ar
  37   18   22 1
  38   19   20 ar
  39   19   38 1
  40   20   21 ar
  41   20   39 1
  42   21   40 1
  43   41   42 1
  44   41   43 2
  45   41   44 1
  46   42   45 1
  47   42   46 1
  48   42   47 1
  49   44   48 1

#	End of record

