#	Name: ASD01916047
#	Creating user name:	WinNT
#	Creation time:	15. 06. 2019 20:06

#	Modifying user name:	WinNT
#	Modification time:	15. 06. 2019 20:06

#	Program:	/corina/corina34_cracker 3.40 0067  02.08.2006

@<TRIPOS>MOLECULE
ASD01916047
  46   48    0    0    0
SMALL
NO_CHARGES


@<TRIPOS>ATOM
   1 C1            -0.0137     1.3951     0.0353 C.ar    
   2 C2            -0.0607     0.0882     0.5469 C.ar    
   3 N3            -1.2038    -0.5673     0.5190 N.ar    
   4 C4            -2.2977    -0.0095     0.0176 C.ar    
   5 C5            -3.5605    -0.7858     0.0082 C.2     
   6 N6            -4.7427    -0.1512     0.1351 N.am    
   7 O7            -3.5298    -1.9944    -0.1139 O.2     
   8 C8             1.2061     2.1452     0.0448 C.1     
   9 C9             2.2061     2.7602     0.0526 C.1     
  10 C10            3.4258     3.5103     0.0621 C.ar    
  11 C11            3.4551     4.8098    -0.4510 C.ar    
  12 C12            5.7666     3.6775     0.5964 C.ar    
  13 C13            4.6354     5.5271    -0.4384 C.ar    
  14 N14           -2.2963     1.2219    -0.4754 N.ar    
  15 C15           -1.1940     1.9442    -0.4912 C.ar    
  16 C16            4.5938     2.9476     0.5908 C.ar    
  17 C17            5.7889     4.9612     0.0814 C.ar    
  18 C18           -6.0055    -0.8979     0.0555 C.3     
  19 C19           -4.7929     1.2996     0.3618 C.3     
  20 C20           -5.6415     1.5750     1.6071 C.3     
  21 C21           -7.0131     0.9170     1.4406 C.3     
  22 C22           -6.8380    -0.5933     1.3049 C.3     
  23 C23           -6.7781    -0.4675    -1.1930 C.3     
  24 C24           -5.7111    -2.3976    -0.0152 C.3     
  25 O25           -7.8188     1.1991     2.5866 O.3     
  26 F26            4.5737     1.6942     1.0946 F       
  27 F27            4.6657     6.7833    -0.9345 F       
  28 H28            0.8260    -0.3727     0.9564 H       
  29 H29            2.5572     5.2520    -0.8567 H       
  30 H30            6.6694     3.2432     0.9998 H       
  31 H31           -1.2005     2.9462    -0.8942 H       
  32 H32            6.7088     5.5270     0.0885 H       
  33 H33           -3.7833     1.6805     0.5160 H       
  34 H34           -5.2423     1.7891    -0.5022 H       
  35 H35           -5.1441     1.1623     2.4848 H       
  36 H36           -5.7666     2.6507     1.7315 H       
  37 H37           -7.4996     1.3122     0.5488 H       
  38 H38           -7.8157    -1.0658     1.2096 H       
  39 H39           -6.3303    -0.9815     2.1879 H       
  40 H40           -6.1789    -0.6734    -2.0800 H       
  41 H41           -7.7144    -1.0225    -1.2502 H       
  42 H42           -6.9912     0.6001    -1.1384 H       
  43 H43           -5.0980    -2.6881     0.8379 H       
  44 H44           -6.6486    -2.9533     0.0051 H       
  45 H45           -5.1769    -2.6198    -0.9390 H       
  46 H46           -7.9710     2.1420     2.7380 H       
@<TRIPOS>BOND
   1    1    2 ar
   2    1    8 1
   3    1   15 ar
   4    2    3 ar
   5    2   28 1
   6    3    4 ar
   7    4   14 ar
   8    4    5 1
   9    5    6 am
  10    5    7 2
  11    6   19 1
  12    6   18 1
  13    8    9 3
  14    9   10 1
  15   10   11 ar
  16   10   16 ar
  17   11   13 ar
  18   11   29 1
  19   12   17 ar
  20   12   16 ar
  21   12   30 1
  22   13   27 1
  23   13   17 ar
  24   14   15 ar
  25   15   31 1
  26   16   26 1
  27   17   32 1
  28   18   23 1
  29   18   24 1
  30   18   22 1
  31   19   20 1
  32   19   33 1
  33   19   34 1
  34   20   21 1
  35   20   35 1
  36   20   36 1
  37   21   22 1
  38   21   25 1
  39   21   37 1
  40   22   38 1
  41   22   39 1
  42   23   40 1
  43   23   41 1
  44   23   42 1
  45   24   43 1
  46   24   44 1
  47   24   45 1
  48   25   46 1

#	End of record

