#	Name: ASD01813777
#	Creating user name:	WinNT
#	Creation time:	15. 06. 2019 19:31

#	Modifying user name:	WinNT
#	Modification time:	15. 06. 2019 19:31

#	Program:	/corina/corina34_cracker 3.40 0067  02.08.2006

@<TRIPOS>MOLECULE
ASD01813777
  43   46    0    0    0
SMALL
NO_CHARGES


@<TRIPOS>ATOM
   1 C1             0.0960     1.4749     0.3442 C.ar    
   2 C2             0.0783     0.0876     0.3365 C.ar    
   3 C3             1.2490    -0.6310     0.2098 C.ar    
   4 C4             2.4664     0.0381     0.0878 C.ar    
   5 C5             2.4796     1.4428     0.0960 C.ar    
   6 C6             1.2875     2.1556     0.2250 C.ar    
   7 N7             3.6440    -0.6677    -0.0385 N.pl3   
   8 C8             4.8374    -0.0726    -0.1571 C.2     
   9 C9             4.9772     1.3008    -0.1617 C.2     
  10 C10            3.7738     2.1384    -0.0338 C.2     
  11 O11            3.8438     3.3549    -0.0326 O.2     
  12 C12            6.3054     1.9163    -0.2930 C.2     
  13 O13            6.4289     3.2587    -0.2961 O.3     
  14 O14            7.2926     1.2148    -0.3987 O.2     
  15 C15            3.5871    -2.1316    -0.0427 C.3     
  16 C16            3.4445    -2.6248    -1.4595 C.ar    
  17 C17            4.5577    -2.7728    -2.2735 C.ar    
  18 N18            4.3980    -3.2076    -3.5116 N.ar    
  19 C19            3.1913    -3.5008    -3.9766 C.ar    
  20 N20            2.1071    -3.3699    -3.2246 N.ar    
  21 C21            2.1980    -2.9459    -1.9759 C.ar    
  22 F22            1.2162    -1.9816     0.2043 F       
  23 C23            3.0510    -3.9861    -5.3711 C.ar    
  24 C24            4.1784    -4.1301    -6.1778 C.ar    
  25 C25            4.0452    -4.5824    -7.4754 C.ar    
  26 C26            2.7959    -4.8932    -7.9782 C.ar    
  27 C27            1.6677    -4.7522    -7.1815 C.ar    
  28 C28            1.7926    -4.3049    -5.8766 C.ar    
  29 O29            0.4411    -5.0581    -7.6804 O.3     
  30 H30           -0.8292     2.0237     0.4396 H       
  31 H31           -0.8620    -0.4352     0.4310 H       
  32 H32            1.2987     3.2355     0.2309 H       
  33 H33            5.7202    -0.6875    -0.2520 H       
  34 H34            7.3226     3.6171    -0.3848 H       
  35 H35            4.5034    -2.5321     0.3910 H       
  36 H36            2.7315    -2.4636     0.5454 H       
  37 H37            5.5430    -2.5353    -1.9005 H       
  38 H38            1.3114    -2.8416    -1.3682 H       
  39 H39            5.1560    -3.8874    -5.7881 H       
  40 H40            4.9197    -4.6935    -8.0994 H       
  41 H41            2.6969    -5.2463    -8.9940 H       
  42 H42            0.9158    -4.1951    -5.2556 H       
  43 H43            0.1798    -5.9792    -7.5447 H       
@<TRIPOS>BOND
   1    1    2 ar
   2    1    6 ar
   3    1   30 1
   4    2    3 ar
   5    2   31 1
   6    3   22 1
   7    3    4 ar
   8    4    5 ar
   9    4    7 1
  10    5    6 ar
  11    5   10 1
  12    6   32 1
  13    7    8 1
  14    7   15 1
  15    8    9 2
  16    8   33 1
  17    9   10 1
  18    9   12 1
  19   10   11 2
  20   12   13 1
  21   12   14 2
  22   13   34 1
  23   15   16 1
  24   15   35 1
  25   15   36 1
  26   16   17 ar
  27   16   21 ar
  28   17   18 ar
  29   17   37 1
  30   18   19 ar
  31   19   20 ar
  32   19   23 1
  33   20   21 ar
  34   21   38 1
  35   23   24 ar
  36   23   28 ar
  37   24   25 ar
  38   24   39 1
  39   25   26 ar
  40   25   40 1
  41   26   27 ar
  42   26   41 1
  43   27   28 ar
  44   27   29 1
  45   28   42 1
  46   29   43 1

#	End of record

