#	Name: ASD03731373
#	Creating user name:	WinNT
#	Creation time:	15. 06. 2019 20:45

#	Modifying user name:	WinNT
#	Modification time:	15. 06. 2019 20:45

#	Program:	/corina/corina34_cracker 3.40 0067  02.08.2006

@<TRIPOS>MOLECULE
ASD03731373
  52   56    0    0    0
SMALL
NO_CHARGES


@<TRIPOS>ATOM
   1 O1            -0.0174     1.4356     0.0099 O.3     
   2 C2             0.0021    -0.0041     0.0020 C.3     
   3 O3             1.2461    -0.3262    -0.6470 O.3     
   4 C4             2.0710     0.7345    -0.4034 C.ar    
   5 C5             1.2935     1.8178    -0.0005 C.ar    
   6 C6             3.4452     0.8649    -0.4936 C.ar    
   7 C7             4.0602     2.0747    -0.1856 C.ar    
   8 C8             3.2723     3.1522     0.2076 C.ar    
   9 C9             1.9024     3.0234     0.3045 C.ar    
  10 O10            5.3831     2.4065    -0.1922 O.3     
  11 C11            4.2098     4.3069     0.4393 C.3     
  12 C12            5.5129     3.8410    -0.2242 C.3     
  13 N13            3.6127     6.4762     0.8417 N.am    
  14 C14            3.6993     5.5834    -0.1645 C.2     
  15 C15            4.3992     4.6044     1.8972 C.ar    
  16 C16            4.8378     3.8614     2.9705 C.ar    
  17 C17            4.9039     4.4334     4.2285 C.ar    
  18 C18            4.5284     5.7527     4.4051 C.ar    
  19 C19            4.0877     6.5009     3.3334 C.ar    
  20 C20            4.0181     5.9334     2.0634 C.ar    
  21 O21            3.4201     5.7739    -1.3293 O.2     
  22 C22            3.1483     7.8554     0.6736 C.3     
  23 C23            1.6327     7.9114     0.8755 C.3     
  24 C24            1.1476     9.3518     0.6999 C.3     
  25 N25           -0.3075     9.4055     0.8938 N.3     
  26 C26           -0.8099    10.7765     0.7323 C.3     
  27 C27           -1.0631    11.0555    -0.7506 C.3     
  28 C28           -2.1168    10.9359     1.5117 C.3     
  29 H29           -0.0105    -0.3928     1.0203 H       
  30 H30           -0.8401    -0.3953    -0.5687 H       
  31 H31            4.0448     0.0222    -0.8046 H       
  32 H32            1.3032     3.8652     0.6186 H       
  33 H33            6.3787     4.1643     0.3536 H       
  34 H34            5.5749     4.2013    -1.2510 H       
  35 H35            5.1300     2.8312     2.8302 H       
  36 H36            5.2475     3.8510     5.0706 H       
  37 H37            4.5803     6.1993     5.3870 H       
  38 H38            3.7954     7.5303     3.4796 H       
  39 H39            3.6366     8.4954     1.4085 H       
  40 H40            3.3941     8.2017    -0.3303 H       
  41 H41            1.1443     7.2714     0.1406 H       
  42 H42            1.3868     7.5650     1.8794 H       
  43 H43            1.6360     9.9917     1.4348 H       
  44 H44            1.3935     9.6981    -0.3040 H       
  45 H45           -0.7795     8.7713     0.2668 H       
  46 H46           -0.0711    11.4814     1.1136 H       
  47 H47           -1.4359    12.0727    -0.8704 H       
  48 H48           -0.1321    10.9419    -1.3059 H       
  49 H49           -1.8019    10.3506    -1.1319 H       
  50 H50           -1.9363    10.7371     2.5681 H       
  51 H51           -2.4895    11.9532     1.3919 H       
  52 H52           -2.8555    10.2310     1.1304 H       
@<TRIPOS>BOND
   1    1    2 1
   2    1    5 1
   3    2    3 1
   4    2   29 1
   5    2   30 1
   6    3    4 1
   7    4    5 ar
   8    4    6 ar
   9    5    9 ar
  10    6    7 ar
  11    6   31 1
  12    7    8 ar
  13    7   10 1
  14    8    9 ar
  15    8   11 1
  16    9   32 1
  17   10   12 1
  18   11   12 1
  19   11   14 1
  20   11   15 1
  21   12   33 1
  22   12   34 1
  23   13   14 am
  24   13   20 1
  25   13   22 1
  26   14   21 2
  27   15   16 ar
  28   15   20 ar
  29   16   17 ar
  30   16   35 1
  31   17   18 ar
  32   17   36 1
  33   18   19 ar
  34   18   37 1
  35   19   20 ar
  36   19   38 1
  37   22   23 1
  38   22   39 1
  39   22   40 1
  40   23   24 1
  41   23   41 1
  42   23   42 1
  43   24   25 1
  44   24   43 1
  45   24   44 1
  46   25   26 1
  47   25   45 1
  48   26   27 1
  49   26   28 1
  50   26   46 1
  51   27   47 1
  52   27   48 1
  53   27   49 1
  54   28   50 1
  55   28   51 1
  56   28   52 1

#	End of record

