#	Name: ASD01871021
#	Creating user name:	WinNT
#	Creation time:	15. 06. 2019 19:39

#	Modifying user name:	WinNT
#	Modification time:	15. 06. 2019 19:39

#	Program:	/corina/corina34_cracker 3.40 0067  02.08.2006

@<TRIPOS>MOLECULE
ASD01871021
  28   30    0    0    0
SMALL
NO_CHARGES


@<TRIPOS>ATOM
   1 C1            -0.0162     1.3405     0.0094 C.2     
   2 C2             0.0021    -0.0041     0.0020 C.2     
   3 S3            -1.6654    -0.5717     0.0149 S.3     
   4 C4            -2.2296     1.0416     0.0289 C.2     
   5 N5            -1.2338     1.8676     0.0295 N.2     
   6 O6            -3.5354     1.4043     0.0427 O.3     
   7 C7            -4.4701     0.4201     0.0461 C.ar    
   8 C8            -5.8208     0.7525     0.0601 C.ar    
   9 N9            -4.0885    -0.8460     0.0307 N.ar    
  10 C10           -4.9636    -1.8334     0.0333 C.ar    
  11 C11           -6.3205    -1.5779     0.0520 C.ar    
  12 C12           -6.7640    -0.2628     0.0634 C.ar    
  13 C13            1.2200     2.1645     0.0020 C.2     
  14 C14            1.2819     3.5712     0.0090 C.2     
  15 N15            2.5407     3.9229    -0.0011 N.2     
  16 N16            3.3261     2.7638    -0.0149 N.pl3   
  17 C17            2.5005     1.6957    -0.0068 C.2     
  18 C18            0.1019     4.5083     0.0249 C.3     
  19 F19           -6.2076     2.0469     0.0707 F       
  20 H20            0.8844    -0.6268    -0.0101 H       
  21 H21           -4.6141    -2.8552     0.0203 H       
  22 H22           -7.0292    -2.3928     0.0533 H       
  23 H23           -7.8198    -0.0359     0.0781 H       
  24 H24            4.2956     2.7334    -0.0243 H       
  25 H25            2.7999     0.6581    -0.0131 H       
  26 H26           -0.1732     4.7288     1.0563 H       
  27 H27            0.3661     5.4340    -0.4865 H       
  28 H28           -0.7408     4.0401    -0.4838 H       
@<TRIPOS>BOND
   1    1    2 2
   2    1   13 1
   3    1    5 1
   4    2    3 1
   5    2   20 1
   6    3    4 1
   7    4    5 2
   8    4    6 1
   9    6    7 1
  10    7    8 ar
  11    7    9 ar
  12    8   19 1
  13    8   12 ar
  14    9   10 ar
  15   10   11 ar
  16   10   21 1
  17   11   12 ar
  18   11   22 1
  19   12   23 1
  20   13   14 1
  21   13   17 2
  22   14   15 2
  23   14   18 1
  24   15   16 1
  25   16   17 1
  26   16   24 1
  27   17   25 1
  28   18   26 1
  29   18   27 1
  30   18   28 1

#	End of record

