#	Name: ASD01890047
#	Creating user name:	WinNT
#	Creation time:	15. 06. 2019 19:50

#	Modifying user name:	WinNT
#	Modification time:	15. 06. 2019 19:50

#	Program:	/corina/corina34_cracker 3.40 0067  02.08.2006

@<TRIPOS>MOLECULE
ASD01890047
  20   20    0    0    0
SMALL
NO_CHARGES


@<TRIPOS>ATOM
   1 C1            -0.0184     1.5028     0.0103 C.2     
   2 N2             1.3897    -0.4735    -0.0138 N.pl3   
   3 C3             0.0021    -0.0041     0.0020 C.3     
   4 O4             1.0197     2.1211     0.0037 O.2     
   5 O5            -1.1898     2.1580     0.0194 O.3     
   6 C6             1.6637    -1.8438    -0.0237 C.ar    
   7 C7             2.9788    -2.2903    -0.0387 C.ar    
   8 C8             3.2466    -3.6452    -0.0486 C.ar    
   9 C9             2.2062    -4.5575    -0.0436 C.ar    
  10 C10            0.8950    -4.1155    -0.0291 C.ar    
  11 C11            0.6214    -2.7618    -0.0130 C.ar    
  12 Cl12           2.5465    -6.2598    -0.0560 Cl      
  13 H13            2.1184     0.1668    -0.0173 H       
  14 H14           -0.4983    -0.3791     0.8948 H       
  15 H15           -0.5153    -0.3696    -0.8850 H       
  16 H16           -1.1523     3.1243     0.0245 H       
  17 H17            3.7912    -1.5787    -0.0429 H       
  18 H18            4.2691    -3.9929    -0.0606 H       
  19 H19            0.0849    -4.8297    -0.0260 H       
  20 H20           -0.4021    -2.4174     0.0035 H       
@<TRIPOS>BOND
   1    1    3 1
   2    1    4 2
   3    1    5 1
   4    2    3 1
   5    2    6 1
   6    2   13 1
   7    3   14 1
   8    3   15 1
   9    5   16 1
  10    6    7 ar
  11    6   11 ar
  12    7    8 ar
  13    7   17 1
  14    8    9 ar
  15    8   18 1
  16    9   10 ar
  17    9   12 1
  18   10   11 ar
  19   10   19 1
  20   11   20 1

#	End of record

