#	Name: ASD03180089
#	Creating user name:	WinNT
#	Creation time:	15. 06. 2019 20:33

#	Modifying user name:	WinNT
#	Modification time:	15. 06. 2019 20:33

#	Program:	/corina/corina34_cracker 3.40 0067  02.08.2006

@<TRIPOS>MOLECULE
ASD03180089
  37   39    0    0    0
SMALL
NO_CHARGES


@<TRIPOS>ATOM
   1 C1            -0.0146     1.3827    -0.0387 C.ar    
   2 C2            -1.2360    -0.5840    -0.6643 C.ar    
   3 C3            -2.3856    -0.0414    -0.1193 C.ar    
   4 C4            -2.3553     1.2158     0.4556 C.ar    
   5 C5            -1.1722     1.9270     0.5026 C.ar    
   6 C6            -0.0512     0.1240    -0.6259 C.ar    
   7 C7            -1.1373     3.2916     1.1409 C.3     
   8 N8             1.1830     2.1019     0.0021 N.pl3   
   9 C9             2.3923     1.4302     0.0915 C.2     
  10 N10            3.5635     1.9818     0.0070 N.2     
  11 S11            2.5762    -0.3025     0.3451 S.3     
  12 C12            4.3288    -0.1259     0.3055 C.2     
  13 C13            4.6183     1.1748     0.1165 C.2     
  14 C14            6.0085     1.6735     0.0385 C.2     
  15 S15            7.4674     0.6934     0.1694 S.3     
  16 C16            8.4537     2.1374    -0.0414 C.2     
  17 N17            7.6775     3.1700    -0.1836 N.2     
  18 C18            6.3787     2.9535    -0.1505 C.2     
  19 C19            5.3742     4.0656    -0.3093 C.3     
  20 N20            9.8390     2.1678    -0.0529 N.pl3   
  21 C21           -1.3135     4.3634     0.0633 C.3     
  22 H22           -1.2630    -1.5663    -1.1122 H       
  23 H23           -3.3112    -0.5972    -0.1510 H       
  24 H24           -3.2547     1.6365     0.8803 H       
  25 H25            0.8460    -0.3001    -1.0520 H       
  26 H26           -1.9439     3.3728     1.8695 H       
  27 H27           -0.1797     3.4341     1.6418 H       
  28 H28            1.1680     3.0712    -0.0323 H       
  29 H29            5.0476    -0.9241     0.4174 H       
  30 H30            5.1362     4.4827     0.6692 H       
  31 H31            5.7933     4.8458    -0.9447 H       
  32 H32            4.4665     3.6726    -0.7673 H       
  33 H33           10.3431     1.3469     0.0614 H       
  34 H34           10.3046     3.0098    -0.1752 H       
  35 H35           -0.5069     4.2822    -0.6652 H       
  36 H36           -2.2711     4.2209    -0.4375 H       
  37 H37           -1.2883     5.3504     0.5250 H       
@<TRIPOS>BOND
   1    1    6 ar
   2    1    8 1
   3    1    5 ar
   4    2    3 ar
   5    2    6 ar
   6    2   22 1
   7    3    4 ar
   8    3   23 1
   9    4    5 ar
  10    4   24 1
  11    5    7 1
  12    6   25 1
  13    7   21 1
  14    7   26 1
  15    7   27 1
  16    8    9 1
  17    8   28 1
  18    9   11 1
  19    9   10 2
  20   10   13 1
  21   11   12 1
  22   12   13 2
  23   12   29 1
  24   13   14 1
  25   14   15 1
  26   14   18 2
  27   15   16 1
  28   16   17 2
  29   16   20 1
  30   17   18 1
  31   18   19 1
  32   19   30 1
  33   19   31 1
  34   19   32 1
  35   20   33 1
  36   20   34 1
  37   21   35 1
  38   21   36 1
  39   21   37 1

#	End of record

