#	Name: ASD09740076
#	Creating user name:	WinNT
#	Creation time:	15. 06. 2019 21:22

#	Modifying user name:	WinNT
#	Modification time:	15. 06. 2019 21:22

#	Program:	/corina/corina34_cracker 3.40 0067  02.08.2006

@<TRIPOS>MOLECULE
ASD09740076
  32   34    0    0    0
SMALL
NO_CHARGES


@<TRIPOS>ATOM
   1 O1            -0.0144     1.2085     0.0087 O.3     
   2 N2             0.0021    -0.0041     0.0020 N.2     
   3 C3             1.2411     1.6827    -0.0008 C.2     
   4 N4             2.0453     0.6365    -0.0141 N.2     
   5 C5             1.2345    -0.4420    -0.0121 C.2     
   6 C6             1.6625    -1.8640    -0.0234 C.ar    
   7 C7             1.6456     3.1046     0.0026 C.ar    
   8 C8             0.7215    -2.8965    -0.0200 C.ar    
   9 C9             3.0169    -2.2055    -0.0436 C.ar    
  10 C10            3.3712    -3.5396    -0.0540 C.ar    
  11 N11            2.4511    -4.4844    -0.0451 N.ar    
  12 C12            1.1623    -4.2046    -0.0313 C.ar    
  13 C13            0.6765     4.1090     0.0173 C.ar    
  14 C14            1.0608     5.4340     0.0208 C.ar    
  15 C15            2.4033     5.7681     0.0093 C.ar    
  16 C16            3.3690     4.7774    -0.0052 C.ar    
  17 C17            2.9982     3.4485    -0.0031 C.ar    
  18 C18            4.8290     5.1506    -0.0177 C.3     
  19 F19            5.2937     5.2593     1.2974 F       
  20 F20            5.5571     4.1629    -0.6894 F       
  21 F21            4.9914     6.3762    -0.6725 F       
  22 C22            0.0158     6.5198     0.0367 C.3     
  23 F23           -1.2578     5.9411     0.0457 F       
  24 F24            0.1786     7.3069     1.1817 F       
  25 F25            0.1568     7.3193    -1.1027 F       
  26 H26           -0.3354    -2.6745    -0.0083 H       
  27 H27            3.7756    -1.4369    -0.0513 H       
  28 H28            4.4158    -3.8134    -0.0700 H       
  29 H29            0.4423    -5.0096    -0.0241 H       
  30 H30           -0.3718     3.8494     0.0255 H       
  31 H31            2.6988     6.8069     0.0114 H       
  32 H32            3.7530     2.6761    -0.0141 H       
@<TRIPOS>BOND
   1    1    2 1
   2    1    3 1
   3    2    5 2
   4    3    4 2
   5    3    7 1
   6    4    5 1
   7    5    6 1
   8    6    8 ar
   9    6    9 ar
  10    7   13 ar
  11    7   17 ar
  12    8   12 ar
  13    8   26 1
  14    9   10 ar
  15    9   27 1
  16   10   11 ar
  17   10   28 1
  18   11   12 ar
  19   12   29 1
  20   13   14 ar
  21   13   30 1
  22   14   15 ar
  23   14   22 1
  24   15   16 ar
  25   15   31 1
  26   16   17 ar
  27   16   18 1
  28   17   32 1
  29   18   19 1
  30   18   20 1
  31   18   21 1
  32   22   23 1
  33   22   24 1
  34   22   25 1

#	End of record

