#	Name: ASD03731451
#	Creating user name:	WinNT
#	Creation time:	15. 06. 2019 20:45

#	Modifying user name:	WinNT
#	Modification time:	15. 06. 2019 20:45

#	Program:	/corina/corina34_cracker 3.40 0067  02.08.2006

@<TRIPOS>MOLECULE
ASD03731451
  58   63    0    0    0
SMALL
NO_CHARGES


@<TRIPOS>ATOM
   1 C1            -0.0184     1.5028     0.0103 C.2     
   2 C2             0.0021    -0.0041     0.0020 C.3     
   3 O3             1.0236     2.1234     0.0037 O.2     
   4 N4            -1.1946     2.1607     0.0195 N.am    
   5 C5             1.4295    -0.4870    -0.0142 C.ar    
   6 C6             2.0956    -0.7149     1.1754 C.ar    
   7 C7             3.4050    -1.1579     1.1606 C.ar    
   8 C8             4.0481    -1.3733    -0.0440 C.ar    
   9 C9             3.3817    -1.1463    -1.2336 C.ar    
  10 C10            2.0709    -0.7075    -1.2187 C.ar    
  11 C11           -1.2145     3.6256     0.0275 C.3     
  12 C12           -2.6637     4.1159     0.0371 C.3     
  13 C13           -2.6845     5.6457     0.0455 C.3     
  14 O14           -8.8979     2.7393     2.1988 O.3     
  15 C15          -10.3150     2.7928     2.4481 C.3     
  16 O16          -10.5201     4.1171     2.9744 O.3     
  17 C17           -9.5165     4.8794     2.4484 C.ar    
  18 C18           -8.5189     4.0315     1.9726 C.ar    
  19 C19           -9.3717     6.2503     2.3343 C.ar    
  20 C20           -8.2322     6.7925     1.7475 C.ar    
  21 C21           -7.2388     5.9357     1.2835 C.ar    
  22 C22           -7.3830     4.5682     1.3902 C.ar    
  23 O23           -7.9033     8.0972     1.5243 O.3     
  24 C24           -6.1403     6.8084     0.7378 C.3     
  25 C25           -6.4846     8.1968     1.2939 C.3     
  26 N26           -4.0722     6.1152     0.0546 N.am    
  27 C27           -4.7795     6.3508     1.1777 C.2     
  28 C28           -6.0970     6.8011    -0.7615 C.ar    
  29 C29           -7.0126     7.1140    -1.7413 C.ar    
  30 C30           -6.6642     7.0046    -3.0758 C.ar    
  31 C31           -5.3947     6.5797    -3.4231 C.ar    
  32 C32           -4.4744     6.2642    -2.4454 C.ar    
  33 C33           -4.8162     6.3718    -1.0995 C.ar    
  34 O34           -4.3925     6.2192     2.3196 O.2     
  35 H35           -0.4983    -0.3791     0.8948 H       
  36 H36           -0.5153    -0.3696    -0.8850 H       
  37 H37           -2.0280     1.6644     0.0207 H       
  38 H38            1.5932    -0.5466     2.1165 H       
  39 H39            3.9256    -1.3353     2.0900 H       
  40 H40            5.0713    -1.7187    -0.0556 H       
  41 H41            3.8843    -1.3143    -2.1747 H       
  42 H42            1.5491    -0.5336    -2.1482 H       
  43 H43           -0.7014     3.9910     0.9171 H       
  44 H44           -0.7098     4.0007    -0.8628 H       
  45 H45           -3.1768     3.7505    -0.8525 H       
  46 H46           -3.1683     3.7408     0.9274 H       
  47 H47           -2.1714     6.0112     0.9350 H       
  48 H48           -2.1798     6.0209    -0.8449 H       
  49 H49          -10.8722     2.6586     1.5209 H       
  50 H50          -10.6034     2.0402     3.1818 H       
  51 H51          -10.1480     6.9043     2.7032 H       
  52 H52           -6.6078     3.9142     1.0188 H       
  53 H53           -6.2650     8.9729     0.5607 H       
  54 H54           -5.9530     8.3828     2.2271 H       
  55 H55           -8.0034     7.4455    -1.4678 H       
  56 H56           -7.3818     7.2508    -3.8445 H       
  57 H57           -5.1228     6.4942    -4.4648 H       
  58 H58           -3.4852     5.9325    -2.7244 H       
@<TRIPOS>BOND
   1    1    2 1
   2    1    3 2
   3    1    4 am
   4    2    5 1
   5    2   35 1
   6    2   36 1
   7    4   11 1
   8    4   37 1
   9    5    6 ar
  10    5   10 ar
  11    6    7 ar
  12    6   38 1
  13    7    8 ar
  14    7   39 1
  15    8    9 ar
  16    8   40 1
  17    9   10 ar
  18    9   41 1
  19   10   42 1
  20   11   12 1
  21   11   43 1
  22   11   44 1
  23   12   13 1
  24   12   45 1
  25   12   46 1
  26   13   26 1
  27   13   47 1
  28   13   48 1
  29   14   15 1
  30   14   18 1
  31   15   16 1
  32   15   49 1
  33   15   50 1
  34   16   17 1
  35   17   18 ar
  36   17   19 ar
  37   18   22 ar
  38   19   20 ar
  39   19   51 1
  40   20   21 ar
  41   20   23 1
  42   21   22 ar
  43   21   24 1
  44   22   52 1
  45   23   25 1
  46   24   25 1
  47   24   27 1
  48   24   28 1
  49   25   53 1
  50   25   54 1
  51   26   27 am
  52   26   33 1
  53   27   34 2
  54   28   29 ar
  55   28   33 ar
  56   29   30 ar
  57   29   55 1
  58   30   31 ar
  59   30   56 1
  60   31   32 ar
  61   31   57 1
  62   32   33 ar
  63   32   58 1

#	End of record

