#	Name: ASD01901336
#	Creating user name:	WinNT
#	Creation time:	15. 06. 2019 19:53

#	Modifying user name:	WinNT
#	Modification time:	15. 06. 2019 19:53

#	Program:	/corina/corina34_cracker 3.40 0067  02.08.2006

@<TRIPOS>MOLECULE
ASD01901336
  37   40    0    0    0
SMALL
NO_CHARGES


@<TRIPOS>ATOM
   1 C1            -0.0168     1.3879     0.0097 C.ar    
   2 N2             1.1081     2.0748     0.0026 N.ar    
   3 C3             2.2869     1.4799    -0.0118 C.ar    
   4 C4             2.3880     0.0972    -0.0206 C.ar    
   5 C5             1.2341    -0.6650    -0.0137 C.ar    
   6 C6             0.0021    -0.0041     0.0020 C.ar    
   7 C7            -1.2664    -0.7749     0.0104 C.2     
   8 N8            -2.7238    -2.2665     1.1173 N.2     
   9 C9            -1.6029    -1.5875     1.1148 C.2     
  10 C10           -2.1277    -0.7035    -1.0484 C.2     
  11 N11           -3.2843    -1.4245    -1.0085 N.pl3   
  12 C12           -3.5725    -2.2067     0.0801 C.2     
  13 C13           -4.3232    -1.5591    -1.8897 C.2     
  14 C14           -5.2109    -2.4079    -1.3295 C.2     
  15 N15           -4.7415    -2.7920    -0.1388 N.2     
  16 C16           -6.5135    -2.8500    -1.9452 C.3     
  17 O17           -6.6707    -2.2306    -3.2233 O.3     
  18 C18           -7.8016    -2.5254    -3.9169 C.ar    
  19 C19           -8.7433    -3.3887    -3.3759 C.ar    
  20 C20           -8.0189    -1.9593    -5.1647 C.ar    
  21 C21           -9.1692    -2.2607    -5.8677 C.ar    
  22 C22          -10.1038    -3.1254    -5.3286 C.ar    
  23 C23           -9.8920    -3.6869    -4.0830 C.ar    
  24 F24            3.4108     2.2296    -0.0185 F       
  25 H25           -0.9621     1.9099     0.0260 H       
  26 H26            3.3571    -0.3793    -0.0331 H       
  27 H27            1.2833    -1.7438    -0.0206 H       
  28 H28           -0.9340    -1.6500     1.9604 H       
  29 H29           -1.8959    -0.0855    -1.9032 H       
  30 H30           -4.4154    -1.0768    -2.8516 H       
  31 H31           -6.5097    -3.9334    -2.0645 H       
  32 H32           -7.3394    -2.5587    -1.2962 H       
  33 H33           -8.5783    -3.8275    -2.4030 H       
  34 H34           -7.2896    -1.2832    -5.5858 H       
  35 H35           -9.3389    -1.8202    -6.8391 H       
  36 H36          -11.0028    -3.3592    -5.8795 H       
  37 H37          -10.6254    -4.3588    -3.6623 H       
@<TRIPOS>BOND
   1    1    6 ar
   2    1    2 ar
   3    1   25 1
   4    2    3 ar
   5    3    4 ar
   6    3   24 1
   7    4    5 ar
   8    4   26 1
   9    5    6 ar
  10    5   27 1
  11    6    7 1
  12    7   10 2
  13    7    9 1
  14    8    9 2
  15    8   12 1
  16    9   28 1
  17   10   11 1
  18   10   29 1
  19   11   13 1
  20   11   12 1
  21   12   15 2
  22   13   14 2
  23   13   30 1
  24   14   15 1
  25   14   16 1
  26   16   17 1
  27   16   31 1
  28   16   32 1
  29   17   18 1
  30   18   20 ar
  31   18   19 ar
  32   19   23 ar
  33   19   33 1
  34   20   21 ar
  35   20   34 1
  36   21   22 ar
  37   21   35 1
  38   22   23 ar
  39   22   36 1
  40   23   37 1

#	End of record

