#	Name: ASD08170339
#	Creating user name:	WinNT
#	Creation time:	15. 06. 2019 21:17

#	Modifying user name:	WinNT
#	Modification time:	15. 06. 2019 21:17

#	Program:	/corina/corina34_cracker 3.40 0067  02.08.2006

@<TRIPOS>MOLECULE
ASD08170339
  76   79    0    0    0
SMALL
NO_CHARGES


@<TRIPOS>ATOM
   1 C1            -0.0167     1.3782     0.0096 C.ar    
   2 C2             0.0021    -0.0041     0.0020 C.ar    
   3 C3             1.2069    -0.6820    -0.0131 C.ar    
   4 C4             2.3981     0.0193    -0.0203 C.ar    
   5 C5             2.3864     1.4049    -0.0127 C.ar    
   6 C6             1.1738     2.0873     0.0021 C.ar    
   7 C7             1.2215    -2.1889    -0.0214 C.3     
   8 C8             1.2128    -2.6836    -1.4448 C.2     
   9 N9             1.2234    -4.0073    -1.6983 N.am    
  10 C10            1.2153    -4.4638    -3.0120 C.2     
  11 S11            1.2268    -6.1064    -3.4984 S.3     
  12 C12            1.2057    -5.5867    -5.1839 C.2     
  13 N13            1.1929    -4.2916    -5.1968 N.2     
  14 N14            1.1923    -3.7155    -4.0734 N.2     
  15 O15            1.1964    -1.8906    -2.3623 O.2     
  16 O16            3.5575     2.0963    -0.0193 O.3     
  17 C17            4.7634     1.3298    -0.0340 C.3     
  18 C18            1.2035    -6.4877    -6.3919 C.3     
  19 C19            2.6451    -6.7780    -6.8142 C.3     
  20 S20            2.6424    -7.8626    -8.2683 S.3     
  21 C21            4.4092    -8.0887    -8.6120 C.3     
  22 C22            4.5794    -8.9958    -9.8322 C.3     
  23 C23            6.0471    -9.1837   -10.1177 C.2     
  24 N24            6.7969   -10.1204    -9.6328 N.2     
  25 S25            6.9995    -8.1977   -11.1436 S.3     
  26 C26            8.3656    -9.1723   -10.8038 C.2     
  27 N27            8.0091   -10.1140    -9.9907 N.2     
  28 C28            9.7506    -8.9706   -11.3625 C.3     
  29 C29            9.8895    -9.7400   -12.6509 C.2     
  30 O30            8.9597   -10.3855   -13.0719 O.2     
  31 C31           11.1886    -9.7038   -13.4138 C.3     
  32 C32           11.0657   -10.5490   -14.6554 C.ar    
  33 C33           10.6233    -9.9806   -15.8359 C.ar    
  34 C34           11.4007   -11.8892   -14.6132 C.ar    
  35 C35           11.2906   -12.6688   -15.7500 C.ar    
  36 C36           10.8431   -12.1069   -16.9345 C.ar    
  37 C37           10.5102   -10.7560   -16.9782 C.ar    
  38 O38           10.0700   -10.1999   -18.1385 O.3     
  39 C39            9.7468    -8.8082   -18.1093 C.3     
  40 O40            1.1571     3.4471     0.0091 O.3     
  41 C41           -0.1240     4.0801     0.0242 C.3     
  42 O42           10.7346   -12.8721   -18.0534 O.3     
  43 C43           11.0993   -14.2487   -17.9359 C.3     
  44 H44           -0.9592     1.9054     0.0170 H       
  45 H45           -0.9265    -0.5556     0.0083 H       
  46 H46            3.3379    -0.5127    -0.0314 H       
  47 H47            2.1198    -2.5463     0.4820 H       
  48 H48            0.3400    -2.5637     0.4989 H       
  49 H49            1.2365    -4.6415    -0.9645 H       
  50 H50            4.8022     0.6965     0.8523 H       
  51 H51            4.7865     0.7060    -0.9276 H       
  52 H52            5.6213     2.0022    -0.0379 H       
  53 H53            0.7014    -7.4234    -6.1463 H       
  54 H54            0.6770    -5.9968    -7.2104 H       
  55 H55            3.1472    -5.8422    -7.0598 H       
  56 H56            3.1716    -7.2689    -5.9958 H       
  57 H57            4.8672    -7.1201    -8.8126 H       
  58 H58            4.8916    -8.5468    -7.7485 H       
  59 H59            4.1214    -9.9644    -9.6316 H       
  60 H60            4.0970    -8.5377   -10.6956 H       
  61 H61            9.9145    -7.9100   -11.5532 H       
  62 H62           10.4879    -9.3288   -10.6441 H       
  63 H63           11.4161    -8.6756   -13.6953 H       
  64 H64           11.9895   -10.0944   -12.7862 H       
  65 H65           10.3657    -8.9322   -15.8672 H       
  66 H66           11.7497   -12.3285   -13.6903 H       
  67 H67           11.5537   -13.7156   -15.7145 H       
  68 H68           10.6304    -8.2358   -17.8269 H       
  69 H69            9.4098    -8.4926   -19.0966 H       
  70 H70            8.9538    -8.6346   -17.3820 H       
  71 H71           -0.6856     3.7849    -0.8620 H       
  72 H72           -0.6690     3.7759     0.9178 H       
  73 H73            0.0056     5.1624     0.0285 H       
  74 H74           12.1429   -14.3233   -17.6301 H       
  75 H75           10.4668   -14.7297   -17.1897 H       
  76 H76           10.9663   -14.7433   -18.8981 H       
@<TRIPOS>BOND
   1    1    2 ar
   2    1    6 ar
   3    1   44 1
   4    2    3 ar
   5    2   45 1
   6    3    4 ar
   7    3    7 1
   8    4    5 ar
   9    4   46 1
  10    5    6 ar
  11    5   16 1
  12    6   40 1
  13    7    8 1
  14    7   47 1
  15    7   48 1
  16    8    9 am
  17    8   15 2
  18    9   10 1
  19    9   49 1
  20   10   11 1
  21   10   14 2
  22   11   12 1
  23   12   13 2
  24   12   18 1
  25   13   14 1
  26   16   17 1
  27   17   50 1
  28   17   51 1
  29   17   52 1
  30   18   19 1
  31   18   53 1
  32   18   54 1
  33   19   20 1
  34   19   55 1
  35   19   56 1
  36   20   21 1
  37   21   22 1
  38   21   57 1
  39   21   58 1
  40   22   23 1
  41   22   59 1
  42   22   60 1
  43   23   24 2
  44   23   25 1
  45   24   27 1
  46   25   26 1
  47   26   27 2
  48   26   28 1
  49   28   29 1
  50   28   61 1
  51   28   62 1
  52   29   30 2
  53   29   31 1
  54   31   32 1
  55   31   63 1
  56   31   64 1
  57   32   33 ar
  58   32   34 ar
  59   33   37 ar
  60   33   65 1
  61   34   35 ar
  62   34   66 1
  63   35   36 ar
  64   35   67 1
  65   36   37 ar
  66   36   42 1
  67   37   38 1
  68   38   39 1
  69   39   68 1
  70   39   69 1
  71   39   70 1
  72   40   41 1
  73   41   71 1
  74   41   72 1
  75   41   73 1
  76   42   43 1
  77   43   74 1
  78   43   75 1
  79   43   76 1

#	End of record

