#	Name: ASD01180180
#	Creating user name:	WinNT
#	Creation time:	15. 06. 2019 19:06

#	Modifying user name:	WinNT
#	Modification time:	15. 06. 2019 19:06

#	Program:	/corina/corina34_cracker 3.40 0067  02.08.2006

@<TRIPOS>MOLECULE
ASD01180180
  59   62    0    0    0
SMALL
NO_CHARGES


@<TRIPOS>ATOM
   1 C1             0.5876     1.3668     0.4960 C.ar    
   2 C2             0.4749    -0.0053     0.3980 C.ar    
   3 C3             1.6220    -0.7916     0.3130 C.ar    
   4 C4             2.8774    -0.1873     0.3275 C.ar    
   5 C5             2.9785     1.1856     0.4258 C.ar    
   6 C6             1.8364     1.9615     0.5099 C.ar    
   7 C7             1.9531     3.4601     0.6171 C.3     
   8 F8             1.9579     4.0203    -0.6649 F       
   9 F9             0.8664     3.9619     1.3412 F       
  10 F10            3.1434     3.7894     1.2743 F       
  11 C11            1.5071    -2.2674     0.2080 C.ar    
  12 C12            2.6542    -3.0538     0.1230 C.ar    
  13 C13            2.5415    -4.4259     0.0254 C.ar    
  14 C14            1.2927    -5.0205     0.0115 C.ar    
  15 C15            0.1507    -4.2447     0.0956 C.ar    
  16 C16            0.2519    -2.8722     0.1997 C.ar    
  17 C17            1.1760    -6.5191    -0.0962 C.3     
  18 C18            0.9208    -7.1118     1.2910 C.3     
  19 N19            0.0624    -6.8596    -0.9852 N.pl3   
  20 C20            0.2662    -6.9348    -2.3526 C.ar    
  21 N21           -0.7168    -7.3531    -3.1381 N.ar    
  22 C22           -0.5683    -7.4405    -4.4435 C.ar    
  23 C23            0.6423    -7.0918    -5.0440 C.ar    
  24 C24            1.7000    -6.6457    -4.2364 C.ar    
  25 C25            1.5001    -6.5643    -2.8850 C.ar    
  26 C26            0.8081    -7.1911    -6.5067 C.2     
  27 N27           -0.2138    -7.6211    -7.2730 N.am    
  28 O28            1.8666    -6.8850    -7.0208 O.2     
  29 C29           -0.0493    -7.7197    -8.7254 C.3     
  30 C30           -1.3485    -8.2294    -9.3525 C.3     
  31 C31           -1.1792    -8.3308   -10.8465 C.2     
  32 O32           -2.1969    -8.7590   -11.6097 O.3     
  33 O33           -0.1273    -8.0266   -11.3573 O.2     
  34 C34            0.8060    -8.6337     1.3988 C.3     
  35 C35            2.0501    -7.9206     1.9324 C.3     
  36 H36           -0.3009     1.9776     0.5574 H       
  37 H37           -0.5006    -0.4686     0.3876 H       
  38 H38            3.7698    -0.7922     0.2622 H       
  39 H39            3.9510     1.6551     0.4371 H       
  40 H40            3.6297    -2.5904     0.1331 H       
  41 H41            3.4300    -5.0363    -0.0405 H       
  42 H42           -0.8219    -4.7142     0.0842 H       
  43 H43           -0.6405    -2.2673     0.2653 H       
  44 H44            2.1020    -6.9275    -0.5011 H       
  45 H45            0.2936    -6.5118     1.9504 H       
  46 H46           -0.8177    -7.0323    -0.6158 H       
  47 H47           -1.3895    -7.7852    -5.0543 H       
  48 H48            2.6486    -6.3687    -4.6721 H       
  49 H49            2.2939    -6.2248    -2.2361 H       
  50 H50           -1.0583    -7.8653    -6.8629 H       
  51 H51            0.1890    -6.7367    -9.1316 H       
  52 H52            0.7605    -8.4129    -8.9531 H       
  53 H53           -1.5868    -9.2124    -8.9462 H       
  54 H54           -2.1582    -7.5361    -9.1248 H       
  55 H55           -2.0409    -8.8073   -12.5628 H       
  56 H56            0.1037    -9.0349     2.1295 H       
  57 H57            0.9124    -9.2127     0.4815 H       
  58 H58            2.9749    -8.0304     1.3661 H       
  59 H59            2.1662    -7.8527     3.0141 H       
@<TRIPOS>BOND
   1    1    2 ar
   2    1    6 ar
   3    1   36 1
   4    2    3 ar
   5    2   37 1
   6    3    4 ar
   7    3   11 1
   8    4    5 ar
   9    4   38 1
  10    5    6 ar
  11    5   39 1
  12    6    7 1
  13    7    8 1
  14    7    9 1
  15    7   10 1
  16   11   12 ar
  17   11   16 ar
  18   12   13 ar
  19   12   40 1
  20   13   14 ar
  21   13   41 1
  22   14   15 ar
  23   14   17 1
  24   15   16 ar
  25   15   42 1
  26   16   43 1
  27   17   18 1
  28   17   19 1
  29   17   44 1
  30   18   34 1
  31   18   35 1
  32   18   45 1
  33   19   20 1
  34   19   46 1
  35   20   21 ar
  36   20   25 ar
  37   21   22 ar
  38   22   23 ar
  39   22   47 1
  40   23   24 ar
  41   23   26 1
  42   24   25 ar
  43   24   48 1
  44   25   49 1
  45   26   27 am
  46   26   28 2
  47   27   29 1
  48   27   50 1
  49   29   30 1
  50   29   51 1
  51   29   52 1
  52   30   31 1
  53   30   53 1
  54   30   54 1
  55   31   32 1
  56   31   33 2
  57   32   55 1
  58   34   35 1
  59   34   56 1
  60   34   57 1
  61   35   58 1
  62   35   59 1

#	End of record

