#	Name: ASD00170736
#	Creating user name:	WinNT
#	Creation time:	15. 06. 2019 18:32

#	Modifying user name:	WinNT
#	Modification time:	15. 06. 2019 18:32

#	Program:	/corina/corina34_cracker 3.40 0067  02.08.2006

@<TRIPOS>MOLECULE
ASD00170736
  94  100    0    0    0
SMALL
NO_CHARGES


@<TRIPOS>ATOM
   1 C1             1.5508     0.3549    -9.4023 C.3     
   2 C2             1.8537     1.3493    -8.2597 C.3     
   3 C3             0.4754     1.6067    -7.6107 C.3     
   4 C4            -0.4973     0.7373    -8.4380 C.3     
   5 O5             0.3286    -0.3035    -9.0042 O.3     
   6 O6             0.4800     1.1903    -6.2437 O.3     
   7 O7             2.7517     0.7661    -7.3133 O.3     
   8 C8             2.6848    -0.6634    -9.5369 C.3     
   9 O9             2.4423    -1.4995   -10.6701 O.3     
  10 N10           -1.5260     0.1572    -7.5712 N.pl3   
  11 C11           -2.8584     0.5163    -7.7248 C.ar    
  12 C12           -3.7572     0.2300    -6.7060 C.ar    
  13 C13           -3.2930    -0.4511    -5.4521 C.3     
  14 N14           -1.9726    -1.0412    -5.6301 N.2     
  15 C15           -1.1852    -0.7517    -6.6017 C.2     
  16 N16           -3.2900     1.1260    -8.8232 N.ar    
  17 C17           -4.5610     1.4555    -8.9499 C.ar    
  18 N18           -5.4462     1.1988    -8.0084 N.ar    
  19 C19           -5.0889     0.5909    -6.8770 C.ar    
  20 N20           -6.0266     0.3240    -5.8907 N.pl3   
  21 C21           -7.3822     0.5850    -6.1244 C.ar    
  22 C22           -7.9100     0.4294    -7.3994 C.ar    
  23 C23           -9.2471     0.6871    -7.6291 C.ar    
  24 C24          -10.0630     1.1014    -6.5866 C.ar    
  25 C25           -9.5366     1.2572    -5.3127 C.ar    
  26 C26           -8.2010     0.9943    -5.0801 C.ar    
  27 O27          -11.3795     1.3555    -6.8137 O.3     
  28 C28          -12.1610     1.7785    -5.6946 C.3     
  29 C29          -13.6053     2.0143    -6.1412 C.3     
  30 C30          -14.4420     2.4672    -4.9430 C.3     
  31 C31          -15.8863     2.7031    -5.3896 C.3     
  32 C32          -16.7231     3.1560    -4.1914 C.3     
  33 N33          -18.9707     3.8267    -3.4876 N.3     
  34 C34          -20.2983     4.2893    -3.9169 C.3     
  35 C35          -21.2275     4.3625    -2.7010 C.3     
  36 C36          -20.5130     5.1360    -1.6036 C.2     
  37 C37          -19.1933     5.3585    -1.6203 C.2     
  38 C38          -18.2725     4.8693    -2.7211 C.3     
  39 C39          -21.1584     5.7101    -0.4385 C.2     
  40 C40          -20.2846     6.3588     0.3981 C.2     
  41 S41          -18.6967     6.2789    -0.2120 S.3     
  42 N42          -20.6436     6.9895     1.5720 N.pl3   
  43 C43          -22.5948     5.6089    -0.1815 C.2     
  44 C44          -23.1410     4.4186     0.5053 C.ar    
  45 O45          -23.3409     6.5048    -0.5331 O.2     
  46 C46          -24.5205     4.2669     0.6536 C.ar    
  47 C47          -25.0243     3.1536     1.2957 C.ar    
  48 C48          -24.1627     2.1882     1.7923 C.ar    
  49 C49          -22.7930     2.3346     1.6480 C.ar    
  50 C50          -22.2788     3.4395     1.0029 C.ar    
  51 Cl51         -26.7397     2.9627     1.4819 Cl      
  52 Cl52         -24.8027     0.7905     2.5988 Cl      
  53 C53          -18.1673     3.3918    -4.6380 C.3     
  54 H54            1.4076     0.8886   -10.3418 H       
  55 H55            2.2668     2.2756    -8.6590 H       
  56 H56            0.2081     2.6606    -7.6870 H       
  57 H57           -0.9565     1.3298    -9.2292 H       
  58 H58            1.1173     1.6628    -5.6908 H       
  59 H59            3.6131     0.5286    -7.6831 H       
  60 H60            3.6309    -0.1383    -9.6686 H       
  61 H61            2.7317    -1.2761    -8.6366 H       
  62 H62            3.1230    -2.1704   -10.8167 H       
  63 H63           -3.2520     0.2787    -4.6434 H       
  64 H64           -4.0023    -1.2356    -5.1882 H       
  65 H65           -0.2197    -1.2329    -6.6518 H       
  66 H66           -4.8859     1.9511    -9.8528 H       
  67 H67           -5.7433    -0.0436    -5.0389 H       
  68 H68           -7.2748     0.1072    -8.2113 H       
  69 H69           -9.6576     0.5665    -8.6207 H       
  70 H70          -10.1725     1.5801    -4.5016 H       
  71 H71           -7.7913     1.1156    -4.0882 H       
  72 H72          -12.1401     1.0073    -4.9246 H       
  73 H73          -11.7491     2.7043    -5.2930 H       
  74 H74          -13.6261     2.7855    -6.9112 H       
  75 H75          -14.0171     1.0885    -6.5428 H       
  76 H76          -14.4211     1.6961    -4.1730 H       
  77 H77          -14.0301     3.3930    -4.5413 H       
  78 H78          -15.9072     3.4742    -6.1596 H       
  79 H79          -16.2982     1.7773    -5.7912 H       
  80 H80          -16.7022     2.3848    -3.4214 H       
  81 H81          -16.3112     4.0818    -3.7897 H       
  82 H82          -20.2107     5.2778    -4.3678 H       
  83 H83          -20.7084     3.5911    -4.6466 H       
  84 H84          -22.1493     4.8767    -2.9730 H       
  85 H85          -21.4565     3.3556    -2.3520 H       
  86 H86          -17.3650     4.4549    -2.2820 H       
  87 H87          -18.0172     5.6990    -3.3804 H       
  88 H88          -21.5567     6.9312     1.8943 H       
  89 H89          -19.9829     7.4910     2.0749 H       
  90 H90          -25.1923     5.0190     0.2671 H       
  91 H91          -22.1264     1.5793     2.0373 H       
  92 H92          -21.2105     3.5522     0.8912 H       
  93 H93          -18.1882     4.1630    -5.4080 H       
  94 H94          -18.5792     2.4660    -5.0396 H       
@<TRIPOS>BOND
   1    1    2 1
   2    1    8 1
   3    1    5 1
   4    1   54 1
   5    2    3 1
   6    2    7 1
   7    2   55 1
   8    3    6 1
   9    3    4 1
  10    3   56 1
  11    4    5 1
  12    4   10 1
  13    4   57 1
  14    6   58 1
  15    7   59 1
  16    8    9 1
  17    8   60 1
  18    8   61 1
  19    9   62 1
  20   10   11 1
  21   10   15 1
  22   11   12 ar
  23   11   16 ar
  24   12   13 1
  25   12   19 ar
  26   13   14 1
  27   13   63 1
  28   13   64 1
  29   14   15 2
  30   15   65 1
  31   16   17 ar
  32   17   18 ar
  33   17   66 1
  34   18   19 ar
  35   19   20 1
  36   20   21 1
  37   20   67 1
  38   21   22 ar
  39   21   26 ar
  40   22   23 ar
  41   22   68 1
  42   23   24 ar
  43   23   69 1
  44   24   25 ar
  45   24   27 1
  46   25   26 ar
  47   25   70 1
  48   26   71 1
  49   27   28 1
  50   28   29 1
  51   28   72 1
  52   28   73 1
  53   29   30 1
  54   29   74 1
  55   29   75 1
  56   30   31 1
  57   30   76 1
  58   30   77 1
  59   31   32 1
  60   31   78 1
  61   31   79 1
  62   32   53 1
  63   32   80 1
  64   32   81 1
  65   33   34 1
  66   33   38 1
  67   33   53 1
  68   34   35 1
  69   34   82 1
  70   34   83 1
  71   35   36 1
  72   35   84 1
  73   35   85 1
  74   36   37 2
  75   36   39 1
  76   37   38 1
  77   37   41 1
  78   38   86 1
  79   38   87 1
  80   39   40 2
  81   39   43 1
  82   40   41 1
  83   40   42 1
  84   42   88 1
  85   42   89 1
  86   43   44 1
  87   43   45 2
  88   44   46 ar
  89   44   50 ar
  90   46   47 ar
  91   46   90 1
  92   47   48 ar
  93   47   51 1
  94   48   49 ar
  95   48   52 1
  96   49   50 ar
  97   49   91 1
  98   50   92 1
  99   53   93 1
 100   53   94 1

#	End of record

