#	Name: ASD00069293
#	Creating user name:	WinNT
#	Creation time:	15. 06. 2019 18:29

#	Modifying user name:	WinNT
#	Modification time:	15. 06. 2019 18:29

#	Program:	/corina/corina34_cracker 3.40 0067  02.08.2006

@<TRIPOS>MOLECULE
ASD00069293
  52   53    0    0    0
SMALL
NO_CHARGES


@<TRIPOS>ATOM
   1 C1            -0.0158     1.3103     0.0092 C.2     
   2 N2             0.0021    -0.0041     0.0020 N.2     
   3 C3             1.2728    -0.4242    -0.0124 C.2     
   4 C4             2.0854     0.6886    -0.0142 C.2     
   5 N5             1.2729     1.7679    -0.0006 N.pl3   
   6 C6            -1.2250     2.1518     0.0198 C.2     
   7 O7            -1.1225     3.3627     0.0254 O.2     
   8 O8            -2.4451     1.5786     0.0232 O.3     
   9 C9             1.6948     3.1709     0.0025 C.3     
  10 O10            3.1222     3.2390    -0.0106 O.3     
  11 C11            3.6405     4.5707    -0.0088 C.3     
  12 C12            5.1697     4.5228    -0.0235 C.3     
  13 Si13           5.8454     6.2589    -0.0211 Si      
  14 C14            5.2667     7.1485     1.5100 C.3     
  15 C15            7.7074     6.2005    -0.0390 C.3     
  16 C16            5.2380     7.1638    -1.5321 C.3     
  17 C17            1.2673    -4.1856    -0.0313 C.ar    
  18 C18            0.8030    -2.8865    -0.0201 C.ar    
  19 C19            1.7257    -1.8366    -0.0235 C.ar    
  20 C20            3.0873    -2.1540    -0.0383 C.ar    
  21 C21            3.4651    -3.4804    -0.0488 C.ar    
  22 N22            2.5614    -4.4421    -0.0450 N.ar    
  23 C23            0.2833    -5.3269    -0.0214 C.3     
  24 C24           -3.5918     2.4693     0.0337 C.3     
  25 C25           -4.8794     1.6428     0.0361 C.3     
  26 H26            3.1653     0.6964    -0.0239 H       
  27 H27            1.2991     3.6712    -0.8813 H       
  28 H28            1.3158     3.6623     0.8985 H       
  29 H29            3.2851     5.1001    -0.8929 H       
  30 H30            3.3019     5.0912     0.8870 H       
  31 H31            5.5251     3.9934     0.8605 H       
  32 H32            5.5083     4.0023    -0.9193 H       
  33 H33            5.6221     6.6191     2.3940 H       
  34 H34            5.6620     8.1642     1.5114 H       
  35 H35            4.1772     7.1826     1.5205 H       
  36 H36            8.0461     5.6801    -0.9348 H       
  37 H37            8.1028     7.2163    -0.0376 H       
  38 H38            8.0628     5.6711     0.8450 H       
  39 H39            4.1486     7.1979    -1.5216 H       
  40 H40            5.6334     8.1795    -1.5307 H       
  41 H41            5.5766     6.6433    -2.4279 H       
  42 H42           -0.2577    -2.6838    -0.0092 H       
  43 H43            3.8323    -1.3720    -0.0418 H       
  44 H44            4.5145    -3.7354    -0.0602 H       
  45 H45            0.0315    -5.5984    -1.0465 H       
  46 H46            0.7272    -6.1850     0.4832 H       
  47 H47           -0.6206    -5.0227     0.5064 H       
  48 H48           -3.5589     3.0934     0.9267 H       
  49 H49           -3.5682     3.1024    -0.8533 H       
  50 H50           -4.9122     1.0187    -0.8569 H       
  51 H51           -4.9030     1.0096     0.9230 H       
  52 H52           -5.7402     2.3114     0.0440 H       
@<TRIPOS>BOND
   1    1    2 2
   2    1    5 1
   3    1    6 1
   4    2    3 1
   5    3    4 2
   6    3   19 1
   7    4    5 1
   8    4   26 1
   9    5    9 1
  10    6    7 2
  11    6    8 1
  12    8   24 1
  13    9   10 1
  14    9   27 1
  15    9   28 1
  16   10   11 1
  17   11   12 1
  18   11   29 1
  19   11   30 1
  20   12   13 1
  21   12   31 1
  22   12   32 1
  23   13   14 1
  24   13   15 1
  25   13   16 1
  26   14   33 1
  27   14   34 1
  28   14   35 1
  29   15   36 1
  30   15   37 1
  31   15   38 1
  32   16   39 1
  33   16   40 1
  34   16   41 1
  35   17   18 ar
  36   17   22 ar
  37   17   23 1
  38   18   19 ar
  39   18   42 1
  40   19   20 ar
  41   20   21 ar
  42   20   43 1
  43   21   22 ar
  44   21   44 1
  45   23   45 1
  46   23   46 1
  47   23   47 1
  48   24   25 1
  49   24   48 1
  50   24   49 1
  51   25   50 1
  52   25   51 1
  53   25   52 1

#	End of record

