#	Name: ASD02039012
#	Creating user name:	WinNT
#	Creation time:	15. 06. 2019 20:17

#	Modifying user name:	WinNT
#	Modification time:	15. 06. 2019 20:17

#	Program:	/corina/corina34_cracker 3.40 0067  02.08.2006

@<TRIPOS>MOLECULE
ASD02039012
  39   42    0    0    0
SMALL
NO_CHARGES


@<TRIPOS>ATOM
   1 N1            -0.0167     1.2910     0.1657 N.2     
   2 N2            -0.0038     0.0048     0.1918 N.2     
   3 C3             1.2122     1.7350     0.0614 C.2     
   4 O4             2.0226     0.6610     0.0215 O.3     
   5 C5             1.2228    -0.4199     0.1061 C.2     
   6 N6             1.6034     3.0605     0.0028 N.pl3   
   7 C7             0.6398     4.0710    -0.0882 C.ar    
   8 C8             1.6683    -1.8595     0.1031 C.3     
   9 O9             1.7063    -2.3436    -1.2409 O.3     
  10 C10            2.0912    -3.6351    -1.4212 C.ar    
  11 C11            2.1486    -4.1632    -2.6955 C.ar    
  12 C12            2.4310    -4.4169    -0.3200 C.ar    
  13 C13            2.8232    -5.7273    -0.4837 C.ar    
  14 C14            2.8825    -6.2808    -1.7580 C.ar    
  15 C15            2.5452    -5.4923    -2.8745 C.ar    
  16 C16            1.0175     5.4057     0.0134 C.ar    
  17 C17           -0.6950     3.7439    -0.2857 C.ar    
  18 C18           -1.6441     4.7437    -0.3756 C.ar    
  19 C19           -1.2669     6.0698    -0.2696 C.ar    
  20 C20            0.0619     6.4011    -0.0775 C.ar    
  21 N21            3.2725    -7.5918    -1.9429 N.am    
  22 C22            3.3302    -8.1292    -3.1739 C.2     
  23 C23            2.9975    -7.3827    -4.3244 C.2     
  24 O24            3.6791    -9.2904    -3.2994 O.2     
  25 C25            2.6116    -6.0879    -4.2104 C.2     
  26 F26            2.3157     5.7291     0.2010 F       
  27 H27            2.5457     3.2896     0.0247 H       
  28 H28            2.6625    -1.9332     0.5440 H       
  29 H29            0.9675    -2.4580     0.6851 H       
  30 H30            1.8886    -3.5540    -3.5486 H       
  31 H31            2.3870    -3.9918     0.6718 H       
  32 H32            3.0849    -6.3245     0.3774 H       
  33 H33           -0.9911     2.7087    -0.3694 H       
  34 H34           -2.6823     4.4891    -0.5293 H       
  35 H35           -2.0115     6.8490    -0.3406 H       
  36 H36            0.3530     7.4378     0.0052 H       
  37 H37            3.5088    -8.1332    -1.1735 H       
  38 H38            3.0548    -7.8432    -5.2996 H       
  39 H39            2.3549    -5.5096    -5.0857 H       
@<TRIPOS>BOND
   1    1    2 1
   2    1    3 2
   3    2    5 2
   4    3    4 1
   5    3    6 1
   6    4    5 1
   7    5    8 1
   8    6    7 1
   9    6   27 1
  10    7   16 ar
  11    7   17 ar
  12    8    9 1
  13    8   28 1
  14    8   29 1
  15    9   10 1
  16   10   11 ar
  17   10   12 ar
  18   11   15 ar
  19   11   30 1
  20   12   13 ar
  21   12   31 1
  22   13   14 ar
  23   13   32 1
  24   14   15 ar
  25   14   21 1
  26   15   25 1
  27   16   26 1
  28   16   20 ar
  29   17   18 ar
  30   17   33 1
  31   18   19 ar
  32   18   34 1
  33   19   20 ar
  34   19   35 1
  35   20   36 1
  36   21   22 am
  37   21   37 1
  38   22   23 1
  39   22   24 2
  40   23   25 2
  41   23   38 1
  42   25   39 1

#	End of record

