#	Name: ASD05720140
#	Creating user name:	WinNT
#	Creation time:	15. 06. 2019 21:01

#	Modifying user name:	WinNT
#	Modification time:	15. 06. 2019 21:01

#	Program:	/corina/corina34_cracker 3.40 0067  02.08.2006

@<TRIPOS>MOLECULE
ASD05720140
  23   22    0    0    0
SMALL
NO_CHARGES


@<TRIPOS>ATOM
   1 C1            -0.0187     1.5258     0.0104 C.3     
   2 C2             0.0021    -0.0041     0.0020 C.3     
   3 C3            -1.4051    -0.5263     0.1365 C.ar    
   4 C4            -1.8643    -0.9656     1.3644 C.ar    
   5 C5            -3.1562    -1.4452     1.4887 C.ar    
   6 C6            -3.9893    -1.4846     0.3805 C.ar    
   7 C7            -3.5268    -1.0442    -0.8469 C.ar    
   8 C8            -2.2372    -0.5603    -0.9666 C.ar    
   9 F9            -5.2510    -1.9529     0.4994 F       
  10 F10           -3.6055    -1.8751     2.6881 F       
  11 N11            0.5820    -0.4790    -1.2614 N.3     
  12 O12            1.3220     2.0204     0.0003 O.3     
  13 H13           -0.5459     1.8868    -0.8726 H       
  14 H14           -0.5289     1.8773     0.9072 H       
  15 H15            0.6044    -0.3639     0.8362 H       
  16 H16           -1.2145    -0.9347     2.2264 H       
  17 H17           -4.1744    -1.0747    -1.7107 H       
  18 H18           -1.8782    -0.2126    -1.9240 H       
  19 H19            0.6662    -1.4844    -1.2652 H       
  20 H20            0.0411    -0.1584    -2.0506 H       
  21 H21            1.3852     2.9853     0.0049 H       
  22 Cl22           6.3852     7.9853     7.6881 Cl      
  23 H23            6.3852     9.3553     7.6881 H       
@<TRIPOS>BOND
   1    1    2 1
   2    1   12 1
   3    1   13 1
   4    1   14 1
   5    2    3 1
   6    2   11 1
   7    2   15 1
   8    3    4 ar
   9    3    8 ar
  10    4    5 ar
  11    4   16 1
  12    5    6 ar
  13    5   10 1
  14    6    7 ar
  15    6    9 1
  16    7    8 ar
  17    7   17 1
  18    8   18 1
  19   11   19 1
  20   11   20 1
  21   12   21 1
  22   22   23 1

#	End of record

