#	Name: ASD01814311
#	Creating user name:	WinNT
#	Creation time:	15. 06. 2019 19:32

#	Modifying user name:	WinNT
#	Modification time:	15. 06. 2019 19:32

#	Program:	/corina/corina34_cracker 3.40 0067  02.08.2006

@<TRIPOS>MOLECULE
ASD01814311
  42   46    0    0    0
SMALL
NO_CHARGES


@<TRIPOS>ATOM
   1 C1             0.0784     1.4518     0.4293 C.ar    
   2 C2             0.0720     0.0607     0.4255 C.ar    
   3 C3             1.2277    -0.6459     0.2735 C.ar    
   4 C4             2.4449     0.0349     0.1182 C.ar    
   5 C5             2.4476     1.4512     0.1226 C.ar    
   6 C6             1.2439     2.1454     0.2807 C.ar    
   7 C7             3.6567    -0.6693    -0.0415 C.ar    
   8 C8             4.8328    -0.0147    -0.1921 C.ar    
   9 C9             4.8907     1.3876    -0.1949 C.ar    
  10 C10            3.7189     2.1505    -0.0397 C.ar    
  11 C11            6.1600     2.1079    -0.3584 C.2     
  12 N12            6.1152     3.4605    -0.3489 N.am    
  13 C13            4.9341     4.1091    -0.1928 C.2     
  14 N14            3.7981     3.4917    -0.0469 N.2     
  15 C15            3.6424    -2.1763    -0.0442 C.3     
  16 C16            3.3865    -2.6737    -1.4435 C.ar    
  17 C17            4.4505    -2.7891    -2.3364 C.ar    
  18 C18            4.2537    -3.2350    -3.6071 C.ar    
  19 C19            2.9596    -3.5856    -4.0284 C.ar    
  20 C20            1.8778    -3.4687    -3.1204 C.ar    
  21 C21            2.1208    -3.0089    -1.8147 C.ar    
  22 O22            7.2125     1.5111    -0.4967 O.2     
  23 C23            2.7173    -4.0493    -5.3327 C.ar    
  24 C24            1.4507    -4.3792    -5.7056 C.ar    
  25 C25            0.3868    -4.2644    -4.8126 C.ar    
  26 C26            0.5837    -3.8194    -3.5416 C.ar    
  27 H27           -0.8509     1.9893     0.5469 H       
  28 H28           -0.8626    -0.4673     0.5450 H       
  29 H29            1.2067    -1.7257     0.2729 H       
  30 H30            1.2369     3.2254     0.2849 H       
  31 H31            5.7435    -0.5827    -0.3119 H       
  32 H32            6.9338     3.9699    -0.4542 H       
  33 H33            4.9368     5.1891    -0.1895 H       
  34 H34            4.6058    -2.5493     0.3035 H       
  35 H35            2.8539    -2.5333     0.6183 H       
  36 H36            5.4460    -2.5203    -2.0151 H       
  37 H37            5.0876    -3.3186    -4.2882 H       
  38 H38            1.3061    -2.9148    -1.1120 H       
  39 H39            3.5319    -4.1430    -6.0356 H       
  40 H40            1.2672    -4.7350    -6.7087 H       
  41 H41           -0.6088    -4.5325    -5.1340 H       
  42 H42           -0.2502    -3.7355    -2.8605 H       
@<TRIPOS>BOND
   1    1    2 ar
   2    1    6 ar
   3    1   27 1
   4    2    3 ar
   5    2   28 1
   6    3    4 ar
   7    3   29 1
   8    4    5 ar
   9    4    7 ar
  10    5    6 ar
  11    5   10 ar
  12    6   30 1
  13    7    8 ar
  14    7   15 1
  15    8    9 ar
  16    8   31 1
  17    9   10 ar
  18    9   11 1
  19   10   14 1
  20   11   12 am
  21   11   22 2
  22   12   13 1
  23   12   32 1
  24   13   14 2
  25   13   33 1
  26   15   16 1
  27   15   34 1
  28   15   35 1
  29   16   17 ar
  30   16   21 ar
  31   17   18 ar
  32   17   36 1
  33   18   19 ar
  34   18   37 1
  35   19   20 ar
  36   19   23 ar
  37   20   21 ar
  38   20   26 ar
  39   21   38 1
  40   23   24 ar
  41   23   39 1
  42   24   25 ar
  43   24   40 1
  44   25   26 ar
  45   25   41 1
  46   26   42 1

#	End of record

