#	Name: ASD04882264
#	Creating user name:	WinNT
#	Creation time:	15. 06. 2019 20:54

#	Modifying user name:	WinNT
#	Modification time:	15. 06. 2019 20:54

#	Program:	/corina/corina34_cracker 3.40 0067  02.08.2006

@<TRIPOS>MOLECULE
ASD04882264
  73   76    0    0    0
SMALL
NO_CHARGES


@<TRIPOS>ATOM
   1 N1            -0.1369     1.5564    -0.0347 N.am    
   2 C2            -0.0772     0.1564    -0.0449 C.ar    
   3 C3            -1.2537    -0.5943     0.0291 C.ar    
   4 C4            -1.1961    -1.9833     0.0186 C.ar    
   5 C5             0.0199    -2.6245    -0.0643 C.ar    
   6 C6             1.2003    -1.8798    -0.1385 C.ar    
   7 C7             1.1447    -0.4831    -0.1339 C.ar    
   8 N8            -2.4854     0.0499     0.1139 N.3     
   9 C9            -2.6126     0.7778     1.3841 C.3     
  10 C10           -3.5910    -0.9031    -0.0568 C.3     
  11 C11           -4.9210    -0.1462    -0.0367 C.3     
  12 N12           -5.0483     0.5818     1.2336 N.3     
  13 C13           -3.9427     1.5347     1.4042 C.3     
  14 C14            2.5029    -2.5669    -0.2267 C.2     
  15 O15            3.5293    -1.9181    -0.2913 O.2     
  16 C16           -6.2837     1.2279     1.3187 C.ar    
  17 C17           -6.6355     2.1845     0.3746 C.ar    
  18 C18            0.8442     2.2684     0.5543 C.2     
  19 C19            0.8474     3.7388     0.4574 C.2     
  20 O20            1.7270     1.6973     1.1658 O.2     
  21 C21           -0.0632     4.5249    -0.1861 C.2     
  22 C22            1.8291     4.6657     1.0394 C.2     
  23 C23            1.4250     5.8970     0.6918 C.2     
  24 O24            0.3009     5.8021    -0.0354 O.3     
  25 N25            2.5551    -3.9136    -0.2357 N.am    
  26 C26            3.8486    -4.5959    -0.3233 C.3     
  27 C27            3.6281    -6.1099    -0.3151 C.3     
  28 C28            2.1198     7.1819     1.0626 C.3     
  29 C29            4.9790    -6.8225    -0.4066 C.3     
  30 N30            4.7679    -8.2721    -0.3988 N.am    
  31 C31            5.8233    -9.1072    -0.4714 C.2     
  32 C32           -7.8578     2.8211     0.4614 C.ar    
  33 C33           -8.7312     2.5076     1.4869 C.ar    
  34 C34           -8.3843     1.5560     2.4281 C.ar    
  35 C35           -7.1656     0.9114     2.3439 C.ar    
  36 C36           -6.7884    -0.1260     3.3699 C.3     
  37 C37            5.6061   -10.5985    -0.4633 C.3     
  38 O38            6.9477    -8.6585    -0.5432 O.2     
  39 H39           -0.8823     2.0131    -0.4550 H       
  40 H40           -2.1069    -2.5608     0.0758 H       
  41 H41            0.0614    -3.7037    -0.0715 H       
  42 H42            2.0552     0.0949    -0.1915 H       
  43 H43           -2.5842     0.0705     2.2130 H       
  44 H44           -1.7897     1.4859     1.4815 H       
  45 H45           -3.4813    -1.4204    -1.0099 H       
  46 H46           -3.5736    -1.6295     0.7558 H       
  47 H47           -4.9495     0.5611    -0.8655 H       
  48 H48           -5.7440    -0.8543    -0.1340 H       
  49 H49           -4.0523     2.0521     2.3573 H       
  50 H50           -3.9600     2.2611     0.5917 H       
  51 H51           -5.9536     2.4303    -0.4260 H       
  52 H52           -0.9305     4.1746    -0.7261 H       
  53 H53            2.6979     4.4081     1.6271 H       
  54 H54            1.7363    -4.4311    -0.1842 H       
  55 H55            4.3501    -4.3067    -1.2469 H       
  56 H56            4.4665    -4.3141     0.5293 H       
  57 H57            3.1266    -6.3990     0.6084 H       
  58 H58            3.0102    -6.3917    -1.1677 H       
  59 H59            2.8507     7.4345     0.2945 H       
  60 H60            1.3847     7.9827     1.1420 H       
  61 H61            2.6266     7.0578     2.0196 H       
  62 H62            5.4805    -6.5333    -1.3301 H       
  63 H63            5.5969    -6.5407     0.4460 H       
  64 H64            3.8685    -8.6310    -0.3413 H       
  65 H65           -8.1319     3.5648    -0.2722 H       
  66 H66           -9.6863     3.0074     1.5528 H       
  67 H67           -9.0686     1.3136     3.2276 H       
  68 H68           -7.1245    -1.1073     3.0350 H       
  69 H69           -5.7057    -0.1361     3.4955 H       
  70 H70           -7.2623     0.1151     4.3215 H       
  71 H71            5.4866   -10.9538    -1.4868 H       
  72 H72            6.4661   -11.0884    -0.0068 H       
  73 H73            4.7086   -10.8319     0.1095 H       
@<TRIPOS>BOND
   1    1    2 1
   2    1   18 am
   3    1   39 1
   4    2    3 ar
   5    2    7 ar
   6    3    4 ar
   7    3    8 1
   8    4    5 ar
   9    4   40 1
  10    5    6 ar
  11    5   41 1
  12    6    7 ar
  13    6   14 1
  14    7   42 1
  15    8    9 1
  16    8   10 1
  17    9   13 1
  18    9   43 1
  19    9   44 1
  20   10   11 1
  21   10   45 1
  22   10   46 1
  23   11   12 1
  24   11   47 1
  25   11   48 1
  26   12   13 1
  27   12   16 1
  28   13   49 1
  29   13   50 1
  30   14   15 2
  31   14   25 am
  32   16   17 ar
  33   16   35 ar
  34   17   32 ar
  35   17   51 1
  36   18   20 2
  37   18   19 1
  38   19   21 2
  39   19   22 1
  40   21   24 1
  41   21   52 1
  42   22   23 2
  43   22   53 1
  44   23   24 1
  45   23   28 1
  46   25   26 1
  47   25   54 1
  48   26   27 1
  49   26   55 1
  50   26   56 1
  51   27   29 1
  52   27   57 1
  53   27   58 1
  54   28   59 1
  55   28   60 1
  56   28   61 1
  57   29   30 1
  58   29   62 1
  59   29   63 1
  60   30   31 am
  61   30   64 1
  62   31   37 1
  63   31   38 2
  64   32   33 ar
  65   32   65 1
  66   33   34 ar
  67   33   66 1
  68   34   35 ar
  69   34   67 1
  70   35   36 1
  71   36   68 1
  72   36   69 1
  73   36   70 1
  74   37   71 1
  75   37   72 1
  76   37   73 1

#	End of record

