#	Name: ASD03240278
#	Creating user name:	WinNT
#	Creation time:	15. 06. 2019 20:34

#	Modifying user name:	WinNT
#	Modification time:	15. 06. 2019 20:34

#	Program:	/corina/corina34_cracker 3.40 0067  02.08.2006

@<TRIPOS>MOLECULE
ASD03240278
 109  116    0    0    0
SMALL
NO_CHARGES


@<TRIPOS>ATOM
   1 C1             0.0780     1.5241     0.6309 C.2     
   2 N2             0.1827     0.2876     1.2228 N.pl3   
   3 C3            -2.6672     4.0269     0.1605 C.3     
   4 C4            -1.2355     3.5089     0.0098 C.3     
   5 N5            -1.1240     2.1913     0.6405 N.pl3   
   6 N6             1.1197     2.0661     0.0652 N.2     
   7 N7            -2.7788     5.3445    -0.4702 N.pl3   
   8 C8            -3.9929     6.0184    -0.4605 C.ar    
   9 C9            -4.0996     7.2804    -1.0646 C.ar    
  10 C10           -5.3153     7.9505    -1.0530 C.ar    
  11 C11           -6.4244     7.3649    -0.4403 C.ar    
  12 C12           -6.3086     6.1066     0.1593 C.ar    
  13 C13           -5.1040     5.4401     0.1429 C.ar    
  14 C14           -7.7184     8.0732    -0.4249 C.2     
  15 N15           -8.7892     7.5076     0.1667 N.am    
  16 O16           -7.8189     9.1674    -0.9460 O.2     
  17 C17           -9.9869     8.2251     0.2804 C.ar    
  18 C18          -11.2043     7.5637     0.1847 C.ar    
  19 C19           -9.9569     9.5968     0.4946 C.ar    
  20 C20          -11.1372    10.3040     0.6072 C.ar    
  21 C21          -12.3548     9.6435     0.5058 C.ar    
  22 C22          -12.3848     8.2707     0.2968 C.ar    
  23 N23          -13.5510    10.3599     0.6202 N.pl3   
  24 C24          -14.8352     9.6632     0.5133 C.3     
  25 C25          -13.5193    11.8069     0.8471 C.3     
  26 C26           -2.9173     7.8965    -1.7130 C.ar    
  27 C27           -3.0175     8.4036    -3.0084 C.ar    
  28 C28           -1.9191     8.9764    -3.6106 C.ar    
  29 C29           -0.7067     9.0489    -2.9252 C.ar    
  30 C30           -0.6063     8.5415    -1.6301 C.ar    
  31 C31           -1.7062     7.9742    -1.0255 C.ar    
  32 C32          -13.5109    12.5232    -0.4787 C.ar    
  33 C33          -15.2731     9.2042     1.8802 C.ar    
  34 C34          -14.7062    12.8760    -1.0789 C.ar    
  35 C35          -14.7044    13.5321    -2.2931 C.ar    
  36 C36          -13.4955    13.8391    -2.9144 C.ar    
  37 C37          -12.2945    13.4813    -2.3054 C.ar    
  38 C38          -12.3079    12.8304    -1.0884 C.ar    
  39 C39          -16.0504    10.0328     2.6691 C.ar    
  40 C40          -16.4542     9.6175     3.9219 C.ar    
  41 C41          -16.0775     8.3609     4.3914 C.ar    
  42 C42          -15.2944     7.5303     3.5925 C.ar    
  43 C43          -14.9009     7.9535     2.3391 C.ar    
  44 C44          -13.4873    14.5440    -4.2202 C.ar    
  45 C45          -16.5083     7.9091     5.7376 C.ar    
  46 C46          -12.2785    14.8509    -4.8415 C.ar    
  47 C47          -12.2767    15.5067    -6.0560 C.ar    
  48 C48          -13.4719    15.8595    -6.6561 C.ar    
  49 C49          -14.6748    15.5577    -6.0435 C.ar    
  50 C50          -14.6885    14.8962    -4.8322 C.ar    
  51 C51          -16.1315     6.6525     6.2072 C.ar    
  52 C52          -16.5350     6.2373     7.4601 C.ar    
  53 C53          -17.3124     7.0660     8.2490 C.ar    
  54 C54          -17.6896     8.3142     7.7877 C.ar    
  55 C55          -17.2862     8.7422     6.5391 C.ar    
  56 C56            0.4760     9.6653    -3.5739 C.ar    
  57 C57            1.6890     9.7392    -2.8913 C.ar    
  58 C58            2.7863    10.3138    -3.4998 C.ar    
  59 C59            2.6838    10.8164    -4.7845 C.ar    
  60 C60            1.4824    10.7463    -5.4666 C.ar    
  61 C61            0.3803    10.1678    -4.8704 C.ar    
  62 H62            1.0318    -0.1814     1.2195 H       
  63 H63           -0.5926    -0.1158     1.6437 H       
  64 H64           -3.3570     3.3339    -0.3213 H       
  65 H65           -2.9145     4.1086     1.2189 H       
  66 H66           -0.9882     3.4271    -1.0486 H       
  67 H67           -0.5458     4.2019     0.4916 H       
  68 H68           -1.8983     1.7897     1.0650 H       
  69 H69            1.0459     2.9385    -0.3524 H       
  70 H70           -2.0045     5.7461    -0.8946 H       
  71 H71           -5.4026     8.9222    -1.5163 H       
  72 H72           -7.1675     5.6549     0.6333 H       
  73 H73           -5.0198     4.4687     0.6074 H       
  74 H74           -8.7305     6.6037     0.5137 H       
  75 H75          -11.2275     6.4963     0.0222 H       
  76 H76           -9.0101    10.1104     0.5735 H       
  77 H77          -11.1138    11.3707     0.7745 H       
  78 H78          -13.3315     7.7570     0.2179 H       
  79 H79          -15.5829    10.3407     0.1007 H       
  80 H80          -14.7264     8.7994    -0.1425 H       
  81 H81          -14.4003    12.1049     1.4155 H       
  82 H82          -12.6208    12.0674     1.4065 H       
  83 H83           -3.9562     8.3468    -3.5395 H       
  84 H84           -1.9966     9.3691    -4.6137 H       
  85 H85            0.3327     8.5974    -1.0996 H       
  86 H86           -1.6285     7.5816    -0.0224 H       
  87 H87          -15.6426    12.6373    -0.5966 H       
  88 H88          -15.6382    13.8068    -2.7610 H       
  89 H89          -11.3547    13.7168    -2.7826 H       
  90 H90          -11.3776    12.5527    -0.6154 H       
  91 H91          -16.3415    11.0068     2.3043 H       
  92 H92          -17.0608    10.2655     4.5372 H       
  93 H93          -14.9996     6.5553     3.9515 H       
  94 H94          -14.2940     7.3105     1.7190 H       
  95 H95          -11.3446    14.5765    -4.3735 H       
  96 H96          -11.3403    15.7450    -6.5384 H       
  97 H97          -13.4659    16.3729    -7.6062 H       
  98 H98          -15.6052    15.8358    -6.5163 H       
  99 H99          -15.6282    14.6608    -4.3550 H       
 100 H100         -15.5252     6.0044     5.5918 H       
 101 H101         -16.2436     5.2635     7.8250 H       
 102 H102         -17.6262     6.7370     9.2286 H       
 103 H103         -18.2969     8.9571     8.4076 H       
 104 H104         -17.5810     9.7171     6.1800 H       
 105 H105           1.7700     9.3477    -1.8880 H       
 106 H106           3.7267    10.3716    -2.9719 H       
 107 H107           3.5450    11.2656    -5.2567 H       
 108 H108           1.4080    11.1406    -6.4692 H       
 109 H109          -0.5573    10.1135    -5.4038 H       
@<TRIPOS>BOND
   1    1    2 1
   2    1    6 2
   3    1    5 1
   4    2   62 1
   5    2   63 1
   6    3    4 1
   7    3    7 1
   8    3   64 1
   9    3   65 1
  10    4    5 1
  11    4   66 1
  12    4   67 1
  13    5   68 1
  14    6   69 1
  15    7    8 1
  16    7   70 1
  17    8    9 ar
  18    8   13 ar
  19    9   10 ar
  20    9   26 1
  21   10   11 ar
  22   10   71 1
  23   11   12 ar
  24   11   14 1
  25   12   13 ar
  26   12   72 1
  27   13   73 1
  28   14   15 am
  29   14   16 2
  30   15   17 1
  31   15   74 1
  32   17   18 ar
  33   17   19 ar
  34   18   22 ar
  35   18   75 1
  36   19   20 ar
  37   19   76 1
  38   20   21 ar
  39   20   77 1
  40   21   22 ar
  41   21   23 1
  42   22   78 1
  43   23   24 1
  44   23   25 1
  45   24   33 1
  46   24   79 1
  47   24   80 1
  48   25   32 1
  49   25   81 1
  50   25   82 1
  51   26   27 ar
  52   26   31 ar
  53   27   28 ar
  54   27   83 1
  55   28   29 ar
  56   28   84 1
  57   29   30 ar
  58   29   56 1
  59   30   31 ar
  60   30   85 1
  61   31   86 1
  62   32   34 ar
  63   32   38 ar
  64   33   39 ar
  65   33   43 ar
  66   34   35 ar
  67   34   87 1
  68   35   36 ar
  69   35   88 1
  70   36   37 ar
  71   36   44 1
  72   37   38 ar
  73   37   89 1
  74   38   90 1
  75   39   40 ar
  76   39   91 1
  77   40   41 ar
  78   40   92 1
  79   41   42 ar
  80   41   45 1
  81   42   43 ar
  82   42   93 1
  83   43   94 1
  84   44   46 ar
  85   44   50 ar
  86   45   51 ar
  87   45   55 ar
  88   46   47 ar
  89   46   95 1
  90   47   48 ar
  91   47   96 1
  92   48   49 ar
  93   48   97 1
  94   49   50 ar
  95   49   98 1
  96   50   99 1
  97   51   52 ar
  98   51  100 1
  99   52   53 ar
 100   52  101 1
 101   53   54 ar
 102   53  102 1
 103   54   55 ar
 104   54  103 1
 105   55  104 1
 106   56   57 ar
 107   56   61 ar
 108   57   58 ar
 109   57  105 1
 110   58   59 ar
 111   58  106 1
 112   59   60 ar
 113   59  107 1
 114   60   61 ar
 115   60  108 1
 116   61  109 1

#	End of record

