#	Name: ASD06190001
#	Creating user name:	WinNT
#	Creation time:	15. 06. 2019 21:05

#	Modifying user name:	WinNT
#	Modification time:	15. 06. 2019 21:05

#	Program:	/corina/corina34_cracker 3.40 0067  02.08.2006

@<TRIPOS>MOLECULE
ASD06190001
  38   40    0    0    0
SMALL
NO_CHARGES


@<TRIPOS>ATOM
   1 C1            -0.0160     1.3835    -0.0085 C.ar    
   2 C2            -1.0028     1.6903    -0.9366 C.ar    
   3 C3            -2.1862     0.9787    -0.9447 C.ar    
   4 C4            -2.3894    -0.0385    -0.0298 C.ar    
   5 C5            -1.4092    -0.3463     0.8954 C.ar    
   6 C6            -0.2211     0.3582     0.9053 C.ar    
   7 N7             1.1842     2.1022     0.0020 N.am    
   8 C8             1.1655     3.4465    -0.0923 C.2     
   9 N9             2.3146     4.1446     0.0016 N.am    
  10 N10            3.5284     3.4729     0.1973 N.am    
  11 C11            4.6774     4.1710     0.2913 C.2     
  12 S12           -0.3177     4.2673    -0.3314 S.2     
  13 C13            5.9495     3.4671     0.4964 C.2     
  14 O14            4.6605     5.3847     0.2061 O.2     
  15 C15            7.1419     4.0653     0.6025 C.2     
  16 C16            8.2359     3.2045     0.7964 C.ar    
  17 C17            7.8580     1.8571     0.8420 C.ar    
  18 S18            6.1142     1.7263     0.6435 S.3     
  19 C19            9.6056     3.5293     0.9435 C.ar    
  20 C20           10.5311     2.5504     1.1251 C.ar    
  21 C21           10.1509     1.2145     1.1697 C.ar    
  22 C22            8.8288     0.8675     1.0302 C.ar    
  23 Cl23           7.3252     5.7889     0.5066 Cl      
  24 C24           -3.2575     1.3111    -1.9510 C.3     
  25 F25           -3.0632     0.5490    -3.1080 F       
  26 F26           -4.5138     1.0218    -1.4075 F       
  27 F27           -3.1902     2.6712    -2.2718 F       
  28 H28           -0.8448     2.4847    -1.6511 H       
  29 H29           -3.3160    -0.5933    -0.0379 H       
  30 H30           -1.5710    -1.1411     1.6085 H       
  31 H31            0.5444     0.1171     1.6280 H       
  32 H32            2.0298     1.6329     0.0772 H       
  33 H33            2.3011     5.1122    -0.0663 H       
  34 H34            3.5418     2.5054     0.2652 H       
  35 H35            9.9179     4.5626     0.9109 H       
  36 H36           11.5727     2.8135     1.2355 H       
  37 H37           10.8968     0.4469     1.3146 H       
  38 H38            8.5383    -0.1721     1.0657 H       
@<TRIPOS>BOND
   1    1    2 ar
   2    1    7 1
   3    1    6 ar
   4    2    3 ar
   5    2   28 1
   6    3    4 ar
   7    3   24 1
   8    4    5 ar
   9    4   29 1
  10    5    6 ar
  11    5   30 1
  12    6   31 1
  13    7    8 am
  14    7   32 1
  15    8    9 am
  16    8   12 2
  17    9   10 1
  18    9   33 1
  19   10   11 am
  20   10   34 1
  21   11   13 1
  22   11   14 2
  23   13   15 2
  24   13   18 1
  25   15   16 1
  26   15   23 1
  27   16   17 ar
  28   16   19 ar
  29   17   18 1
  30   17   22 ar
  31   19   20 ar
  32   19   35 1
  33   20   21 ar
  34   20   36 1
  35   21   22 ar
  36   21   37 1
  37   22   38 1
  38   24   25 1
  39   24   26 1
  40   24   27 1

#	End of record

