#	Name: ASD03740178
#	Creating user name:	WinNT
#	Creation time:	15. 06. 2019 20:46

#	Modifying user name:	WinNT
#	Modification time:	15. 06. 2019 20:46

#	Program:	/corina/corina34_cracker 3.40 0067  02.08.2006

@<TRIPOS>MOLECULE
ASD03740178
  60   63    0    0    0
SMALL
NO_CHARGES


@<TRIPOS>ATOM
   1 C1            -0.0168     1.3849     0.0097 C.ar    
   2 C2             0.0021    -0.0041     0.0020 C.ar    
   3 C3             1.1850    -0.6877    -0.0125 C.ar    
   4 C4             2.3894     0.0113    -0.0203 C.ar    
   5 C5             2.3718     1.4195    -0.0131 C.ar    
   6 C6             1.1486     2.0963     0.0023 C.ar    
   7 N7             3.7063    -0.3680    -0.0346 N.pl3   
   8 N8             4.5133     0.7743    -0.0364 N.2     
   9 C9             3.7704     1.8474    -0.0241 C.2     
  10 O10            4.2163     3.1315    -0.0222 O.3     
  11 C11            4.1915    -1.7503    -0.0454 C.3     
  12 C12            4.3443    -2.2179    -1.4698 C.ar    
  13 C13            5.5441    -2.0357    -2.1320 C.ar    
  14 C14            5.6848    -2.4644    -3.4384 C.ar    
  15 C15            4.6247    -3.0760    -4.0834 C.ar    
  16 C16            3.4242    -3.2581    -3.4203 C.ar    
  17 C17            3.2865    -2.8340    -2.1120 C.ar    
  18 C18            5.6318     3.3268    -0.0344 C.3     
  19 C19            5.9400     4.8254    -0.0302 C.3     
  20 Cl20           4.8005    -3.6142    -5.7245 Cl      
  21 C21            7.4556     5.0345    -0.0433 C.3     
  22 N22            7.7515     6.4734    -0.0393 N.3     
  23 C23            9.1820     6.7158     0.1866 C.3     
  24 C24            9.4296     8.2193     0.3295 C.3     
  25 C25            8.9672     8.9311    -0.9448 C.3     
  26 C26            7.4865     8.6230    -1.1835 C.3     
  27 C27            7.2952     7.1079    -1.2825 C.3     
  28 C28            9.1559    10.4409    -0.7843 C.3     
  29 O29            8.8343    11.0946    -2.0136 O.3     
  30 C30            8.9782    12.5157    -1.9713 C.3     
  31 H31           -0.9621     1.9071     0.0170 H       
  32 H32           -0.9296    -0.5502     0.0080 H       
  33 H33            1.1859    -1.7677    -0.0176 H       
  34 H34            1.1256     3.1760     0.0077 H       
  35 H35            5.1565    -1.8005     0.4590 H       
  36 H36            3.4771    -2.3902     0.4724 H       
  37 H37            6.3715    -1.5579    -1.6284 H       
  38 H38            6.6221    -2.3216    -3.9557 H       
  39 H39            2.5963    -3.7355    -3.9233 H       
  40 H40            2.3494    -2.9761    -1.5942 H       
  41 H41            6.0702     2.8632     0.8494 H       
  42 H42            6.0537     2.8716    -0.9305 H       
  43 H43            5.5016     5.2889    -0.9140 H       
  44 H44            5.5182     5.2806     0.8659 H       
  45 H45            7.8940     4.5709     0.8405 H       
  46 H46            7.8774     4.5793    -0.9394 H       
  47 H47            9.4970     6.2076     1.0980 H       
  48 H48            9.7533     6.3324    -0.6588 H       
  49 H49            8.8695     8.6008     1.1832 H       
  50 H50           10.4937     8.4000     0.4816 H       
  51 H51            9.5540     8.5779    -1.7928 H       
  52 H52            6.8957     9.0109    -0.3536 H       
  53 H53            7.1622     9.0923    -2.1124 H       
  54 H54            7.8753     6.7227    -2.1211 H       
  55 H55            6.2398     6.8845    -1.4382 H       
  56 H56            8.4991    10.8073     0.0047 H       
  57 H57           10.1925    10.6516    -0.5211 H       
  58 H58            8.7155    12.9366    -2.9418 H       
  59 H59            8.3177    12.9251    -1.2070 H       
  60 H60           10.0110    12.7694    -1.7327 H       
@<TRIPOS>BOND
   1    1    2 ar
   2    1    6 ar
   3    1   31 1
   4    2    3 ar
   5    2   32 1
   6    3    4 ar
   7    3   33 1
   8    4    5 ar
   9    4    7 1
  10    5    6 ar
  11    5    9 1
  12    6   34 1
  13    7    8 1
  14    7   11 1
  15    8    9 2
  16    9   10 1
  17   10   18 1
  18   11   12 1
  19   11   35 1
  20   11   36 1
  21   12   13 ar
  22   12   17 ar
  23   13   14 ar
  24   13   37 1
  25   14   15 ar
  26   14   38 1
  27   15   16 ar
  28   15   20 1
  29   16   17 ar
  30   16   39 1
  31   17   40 1
  32   18   19 1
  33   18   41 1
  34   18   42 1
  35   19   21 1
  36   19   43 1
  37   19   44 1
  38   21   22 1
  39   21   45 1
  40   21   46 1
  41   22   23 1
  42   22   27 1
  43   23   24 1
  44   23   47 1
  45   23   48 1
  46   24   25 1
  47   24   49 1
  48   24   50 1
  49   25   26 1
  50   25   28 1
  51   25   51 1
  52   26   27 1
  53   26   52 1
  54   26   53 1
  55   27   54 1
  56   27   55 1
  57   28   29 1
  58   28   56 1
  59   28   57 1
  60   29   30 1
  61   30   58 1
  62   30   59 1
  63   30   60 1

#	End of record

