#	Name: ASD03731600
#	Creating user name:	WinNT
#	Creation time:	15. 06. 2019 20:46

#	Modifying user name:	WinNT
#	Modification time:	15. 06. 2019 20:46

#	Program:	/corina/corina34_cracker 3.40 0067  02.08.2006

@<TRIPOS>MOLECULE
ASD03731600
  41   42    0    0    0
SMALL
NO_CHARGES


@<TRIPOS>ATOM
   1 C1            -0.1361     1.4657     0.0341 C.2     
   2 C2            -0.0851    -0.0063     0.0196 C.ar    
   3 C3             1.1425    -0.6667    -0.1383 C.ar    
   4 C4             1.1828    -2.0501    -0.1510 C.ar    
   5 C5             0.0122    -2.7806    -0.0083 C.ar    
   6 C6            -1.2084    -2.1271     0.1482 C.ar    
   7 C7            -1.2598    -0.7510     0.1691 C.ar    
   8 O8             0.8872     2.1109    -0.0910 O.2     
   9 N9            -1.3176     2.0975     0.1804 N.am    
  10 S10           -1.3750     3.7525     0.1967 S.o2    
  11 O11           -2.7502     4.0535     0.3905 O.2     
  12 O12           -0.4001     4.1275     1.1601 O.2     
  13 C13           -0.8451     4.2402    -1.4682 C.3     
  14 O14            2.2870     0.0487    -0.2787 O.3     
  15 C15            3.4995    -0.6911    -0.4352 C.3     
  16 F16           -2.3443    -2.8456     0.2857 F       
  17 O17            0.0560    -4.1371    -0.0217 O.3     
  18 C18           -0.1564    -4.7710    -1.2059 C.ar    
  19 C19           -0.0529    -6.1572    -1.2833 C.ar    
  20 C20           -0.2700    -6.7987    -2.4917 C.ar    
  21 C21           -0.5892    -6.0616    -3.6185 C.ar    
  22 C22           -0.6915    -4.6843    -3.5412 C.ar    
  23 C23           -0.4819    -4.0391    -2.3364 C.ar    
  24 O24            0.2613    -6.8799    -0.1751 O.3     
  25 C25            0.3503    -8.2978    -0.3290 C.3     
  26 Cl26          -0.8611    -6.8669    -5.1322 Cl      
  27 H27            2.1263    -2.5613    -0.2724 H       
  28 H28           -2.2067    -0.2473     0.2954 H       
  29 H29           -2.1342     1.5830     0.2762 H       
  30 H30           -1.5273     3.8166    -2.2053 H       
  31 H31           -0.8531     5.3272    -1.5482 H       
  32 H32            0.1635     3.8698    -1.6516 H       
  33 H33            3.6547    -1.3234     0.4390 H       
  34 H34            3.4324    -1.3143    -1.3270 H       
  35 H35            4.3363    -0.0001    -0.5369 H       
  36 H36           -0.1900    -7.8739    -2.5544 H       
  37 H37           -0.9401    -4.1121    -4.4228 H       
  38 H38           -0.5671    -2.9641    -2.2776 H       
  39 H39            0.6067    -8.7518     0.6282 H       
  40 H40           -0.6089    -8.6872    -0.6704 H       
  41 H41            1.1209    -8.5361    -1.0621 H       
@<TRIPOS>BOND
   1    1    2 1
   2    1    8 2
   3    1    9 am
   4    2    3 ar
   5    2    7 ar
   6    3    4 ar
   7    3   14 1
   8    4    5 ar
   9    4   27 1
  10    5    6 ar
  11    5   17 1
  12    6    7 ar
  13    6   16 1
  14    7   28 1
  15    9   10 am
  16    9   29 1
  17   10   11 2
  18   10   12 2
  19   10   13 1
  20   13   30 1
  21   13   31 1
  22   13   32 1
  23   14   15 1
  24   15   33 1
  25   15   34 1
  26   15   35 1
  27   17   18 1
  28   18   19 ar
  29   18   23 ar
  30   19   20 ar
  31   19   24 1
  32   20   21 ar
  33   20   36 1
  34   21   22 ar
  35   21   26 1
  36   22   23 ar
  37   22   37 1
  38   23   38 1
  39   24   25 1
  40   25   39 1
  41   25   40 1
  42   25   41 1

#	End of record

