#	Name: ASD03080161
#	Creating user name:	WinNT
#	Creation time:	15. 06. 2019 20:26

#	Modifying user name:	WinNT
#	Modification time:	15. 06. 2019 20:26

#	Program:	/corina/corina34_cracker 3.40 0067  02.08.2006

@<TRIPOS>MOLECULE
ASD03080161
  43   46    0    0    0
SMALL
NO_CHARGES


@<TRIPOS>ATOM
   1 C1            -0.0189     1.5419     0.0105 C.3     
   2 C2             0.0021    -0.0041     0.0020 C.3     
   3 C3             0.0318    -0.4658    -1.4638 C.3     
   4 C4             2.4440     0.2083    -1.4825 C.3     
   5 C5             1.4670     1.9573    -0.0014 C.3     
   6 C6             2.2507     0.6247    -0.0155 C.3     
   7 N7             1.3171    -0.3549     0.6013 N.3     
   8 C8             1.2866    -0.2050     2.0624 C.3     
   9 C9             1.1037     0.3309    -2.2131 C.3     
  10 O10            1.2391    -0.1909    -3.5613 O.3     
  11 C11            1.6129     0.6760    -4.5155 C.2     
  12 O12            1.8201     1.8324    -4.2336 O.2     
  13 C13            1.7741     0.2068    -5.9385 C.3     
  14 C14            0.4423    -0.3499    -6.4460 C.3     
  15 C15            2.1969     1.3653    -6.8046 C.ar    
  16 O16            0.6230    -0.9006    -7.7522 O.3     
  17 C17            3.3944     1.3125    -7.4932 C.ar    
  18 C18            1.3846     2.4783    -6.9149 C.ar    
  19 C19            1.7724     3.5410    -7.7094 C.ar    
  20 C20            2.9728     3.4909    -8.3931 C.ar    
  21 C21            3.7822     2.3752    -8.2876 C.ar    
  22 O22            0.5822     2.2255    -1.0911 O.3     
  23 H23           -0.7641     2.0397     0.6309 H       
  24 H24           -0.8381    -0.4307     0.5499 H       
  25 H25            0.2699    -1.5286    -1.5070 H       
  26 H26           -0.9413    -0.2890    -1.9220 H       
  27 H27            3.1779     0.8620    -1.9539 H       
  28 H28            2.7906    -0.8242    -1.5263 H       
  29 H29            1.8549     2.7721     0.6098 H       
  30 H30            3.1980     0.6980     0.5187 H       
  31 H31            0.5254    -0.8644     2.4794 H       
  32 H32            2.2607    -0.4679     2.4750 H       
  33 H33            1.0512     0.8284     2.3167 H       
  34 H34            0.8103     1.3796    -2.2588 H       
  35 H35            2.5336    -0.5740    -5.9799 H       
  36 H36            0.0924    -1.1288    -5.7685 H       
  37 H37           -0.2943     0.4524    -6.4886 H       
  38 H38           -0.1824    -1.2727    -8.1369 H       
  39 H39            4.0270     0.4412    -7.4103 H       
  40 H40            0.4468     2.5176    -6.3807 H       
  41 H41            1.1375     4.4104    -7.7961 H       
  42 H42            3.2756     4.3210    -9.0141 H       
  43 H43            4.7200     2.3360    -8.8219 H       
@<TRIPOS>BOND
   1    1    2 1
   2    1    5 1
   3    1   22 1
   4    1   23 1
   5    2    3 1
   6    2    7 1
   7    2   24 1
   8    3    9 1
   9    3   25 1
  10    3   26 1
  11    4    6 1
  12    4    9 1
  13    4   27 1
  14    4   28 1
  15    5    6 1
  16    5   22 1
  17    5   29 1
  18    6    7 1
  19    6   30 1
  20    7    8 1
  21    8   31 1
  22    8   32 1
  23    8   33 1
  24    9   10 1
  25    9   34 1
  26   10   11 1
  27   11   12 2
  28   11   13 1
  29   13   14 1
  30   13   15 1
  31   13   35 1
  32   14   16 1
  33   14   36 1
  34   14   37 1
  35   15   17 ar
  36   15   18 ar
  37   16   38 1
  38   17   21 ar
  39   17   39 1
  40   18   19 ar
  41   18   40 1
  42   19   20 ar
  43   19   41 1
  44   20   21 ar
  45   20   42 1
  46   21   43 1

#	End of record

