#	Name: ASD03091348
#	Creating user name:	WinNT
#	Creation time:	15. 06. 2019 20:30

#	Modifying user name:	WinNT
#	Modification time:	15. 06. 2019 20:30

#	Program:	/corina/corina34_cracker 3.40 0067  02.08.2006

@<TRIPOS>MOLECULE
ASD03091348
  54   58    0    0    0
SMALL
NO_CHARGES


@<TRIPOS>ATOM
   1 C1            -0.0168     1.3912     0.0097 C.ar    
   2 C2            -1.2516     2.0643     0.0309 C.ar    
   3 C3            -2.4514     1.3092     0.0453 C.ar    
   4 C4            -2.3942    -0.0985     0.0358 C.ar    
   5 C5            -1.1955    -0.7355     0.0153 C.ar    
   6 C6             0.0021    -0.0041     0.0020 C.ar    
   7 O7             1.1580     2.0616     0.0021 O.3     
   8 C8             2.2594     1.4602     0.6832 C.3     
   9 N9             2.4079     0.0581     0.2906 N.am    
  10 C10            1.3149    -0.6792    -0.0138 C.2     
  11 C11           -3.6697    -0.9009     0.0491 C.3     
  12 C12           -4.1809    -1.0549    -1.3602 C.ar    
  13 C13           -5.0443    -0.1193    -1.8974 C.ar    
  14 C14           -3.7864    -2.1343    -2.1362 C.ar    
  15 C15           -4.2820    -2.2352    -3.4269 C.ar    
  16 C16           -5.1468    -1.2634    -3.8942 C.ar    
  17 N17           -5.4960    -0.2473    -3.1298 N.ar    
  18 O18            1.4107    -1.8595    -0.2911 O.2     
  19 C19            3.7405    -0.5473     0.2268 C.3     
  20 O20            5.0930    -2.3545     1.0897 O.3     
  21 C21            3.8120    -1.7302     1.1959 C.3     
  22 C22            4.0084    -1.0463    -1.1965 C.3     
  23 C23            5.3706    -1.7458    -1.2325 C.3     
  24 C24            5.3792    -2.8825    -0.2070 C.3     
  25 O25            4.0162     0.0623    -2.0981 O.3     
  26 C26           -5.6914    -1.3626    -5.2958 C.3     
  27 C27           -1.3192     3.4666     0.0386 C.ar    
  28 C28           -2.5329     4.0840     0.0617 C.ar    
  29 C29           -3.7121     3.3429     0.0774 C.ar    
  30 C30           -3.6843     1.9814     0.0694 C.ar    
  31 H31           -1.1633    -1.8150     0.0085 H       
  32 H32            3.1729     2.0009     0.4360 H       
  33 H33            2.0900     1.5159     1.7586 H       
  34 H34           -3.4752    -1.8854     0.4746 H       
  35 H35           -4.4170    -0.3855     0.6524 H       
  36 H36           -5.3531     0.7265    -1.3009 H       
  37 H37           -3.1089    -2.8786    -1.7444 H       
  38 H38           -3.9958    -3.0624    -4.0595 H       
  39 H39            4.4916     0.1937     0.5004 H       
  40 H40            3.6645    -1.3743     2.2155 H       
  41 H41            3.0341    -2.4520     0.9465 H       
  42 H42            3.2292    -1.7502    -1.4888 H       
  43 H43            5.5450    -2.1525    -2.2286 H       
  44 H44            6.1547    -1.0290    -0.9883 H       
  45 H45            6.3606    -3.3565    -0.1981 H       
  46 H46            4.6218    -3.6192    -0.4748 H       
  47 H47            4.1806    -0.1812    -3.0194 H       
  48 H48           -6.6220    -1.9300    -5.2848 H       
  49 H49           -5.8807    -0.3617    -5.6838 H       
  50 H50           -4.9654    -1.8679    -5.9328 H       
  51 H51           -0.4125     4.0533     0.0265 H       
  52 H52           -2.5817     5.1629     0.0683 H       
  53 H53           -4.6625     3.8556     0.0966 H       
  54 H54           -4.6071     1.4205     0.0815 H       
@<TRIPOS>BOND
   1    1    6 ar
   2    1    7 1
   3    1    2 ar
   4    2    3 ar
   5    2   27 ar
   6    3    4 ar
   7    3   30 ar
   8    4    5 ar
   9    4   11 1
  10    5    6 ar
  11    5   31 1
  12    6   10 1
  13    7    8 1
  14    8    9 1
  15    8   32 1
  16    8   33 1
  17    9   10 am
  18    9   19 1
  19   10   18 2
  20   11   12 1
  21   11   34 1
  22   11   35 1
  23   12   14 ar
  24   12   13 ar
  25   13   17 ar
  26   13   36 1
  27   14   15 ar
  28   14   37 1
  29   15   16 ar
  30   15   38 1
  31   16   17 ar
  32   16   26 1
  33   19   21 1
  34   19   22 1
  35   19   39 1
  36   20   21 1
  37   20   24 1
  38   21   40 1
  39   21   41 1
  40   22   23 1
  41   22   25 1
  42   22   42 1
  43   23   24 1
  44   23   43 1
  45   23   44 1
  46   24   45 1
  47   24   46 1
  48   25   47 1
  49   26   48 1
  50   26   49 1
  51   26   50 1
  52   27   28 ar
  53   27   51 1
  54   28   29 ar
  55   28   52 1
  56   29   30 ar
  57   29   53 1
  58   30   54 1

#	End of record

