#	Name: ASD01883603
#	Creating user name:	WinNT
#	Creation time:	15. 06. 2019 19:46

#	Modifying user name:	WinNT
#	Modification time:	15. 06. 2019 19:46

#	Program:	/corina/corina34_cracker 3.40 0067  02.08.2006

@<TRIPOS>MOLECULE
ASD01883603
  45   48    0    0    0
SMALL
NO_CHARGES


@<TRIPOS>ATOM
   1 C1            -0.5318     1.4683     0.1672 C.2     
   2 C2            -0.6559     0.1341     0.3271 C.2     
   3 N3             0.3092    -0.5881     0.9563 N.am    
   4 C4             1.4178     0.0023     1.4394 C.2     
   5 C5             1.5969     1.3857     1.3001 C.2     
   6 C6             0.6166     2.1307     0.6591 C.2     
   7 O7             2.2697    -0.6687     2.0009 O.2     
   8 Cl8            3.0235     2.1560     1.9207 Cl      
   9 C9             0.7709     3.5931     0.4929 C.ar    
  10 C10            0.0307     4.4710     1.2899 C.ar    
  11 C11            0.1787     5.8349     1.1312 C.ar    
  12 C12            1.0607     6.3326     0.1816 C.ar    
  13 C13            1.7976     5.4613    -0.6123 C.ar    
  14 C14            1.6604     4.0996    -0.4561 C.ar    
  15 O15            1.2037     7.6740     0.0277 O.3     
  16 C16            2.1307     8.3087     0.7923 C.ar    
  17 C17            2.9781     7.5818     1.6224 C.ar    
  18 C18            3.9075     8.2734     2.3828 C.ar    
  19 C19            3.9621     9.6515     2.2925 C.ar    
  20 N20            3.1438    10.3108     1.4957 N.ar    
  21 C21            2.2496     9.6908     0.7519 C.ar    
  22 C22            0.1388    -2.0348     1.1114 C.3     
  23 C23            0.7430    -2.7520    -0.0975 C.3     
  24 C24            0.7705    -4.2815    -0.0704 C.3     
  25 C25           -0.2069    -3.5503    -0.9928 C.3     
  26 C26            1.3386    10.4918    -0.1422 C.3     
  27 F27           -0.8282     3.9863     2.2132 F       
  28 H28           -1.3049     2.0277    -0.3386 H       
  29 H29           -1.5350    -0.3674    -0.0499 H       
  30 H30           -0.3924     6.5148     1.7460 H       
  31 H31            2.4820     5.8529    -1.3503 H       
  32 H32            2.2340     3.4243    -1.0737 H       
  33 H33            2.9129     6.5050     1.6733 H       
  34 H34            4.5811     7.7417     3.0385 H       
  35 H35            4.6844    10.1958     2.8828 H       
  36 H36            0.6436    -2.3648     2.0193 H       
  37 H37           -0.9233    -2.2703     1.1801 H       
  38 H38            1.5781    -2.2420    -0.5777 H       
  39 H39            1.6236    -4.7778    -0.5331 H       
  40 H40            0.3582    -4.7768     0.8087 H       
  41 H41           -1.2623    -3.5644    -0.7205 H       
  42 H42            0.0031    -3.5654    -2.0622 H       
  43 H43            1.8038    10.6124    -1.1205 H       
  44 H44            0.3881     9.9700    -0.2537 H       
  45 H45            1.1649    11.4724     0.3009 H       
@<TRIPOS>BOND
   1    1    2 2
   2    1    6 1
   3    1   28 1
   4    2    3 1
   5    2   29 1
   6    3    4 am
   7    3   22 1
   8    4    5 1
   9    4    7 2
  10    5    6 2
  11    5    8 1
  12    6    9 1
  13    9   10 ar
  14    9   14 ar
  15   10   11 ar
  16   10   27 1
  17   11   12 ar
  18   11   30 1
  19   12   13 ar
  20   12   15 1
  21   13   14 ar
  22   13   31 1
  23   14   32 1
  24   15   16 1
  25   16   17 ar
  26   16   21 ar
  27   17   18 ar
  28   17   33 1
  29   18   19 ar
  30   18   34 1
  31   19   20 ar
  32   19   35 1
  33   20   21 ar
  34   21   26 1
  35   22   23 1
  36   22   36 1
  37   22   37 1
  38   23   24 1
  39   23   25 1
  40   23   38 1
  41   24   25 1
  42   24   39 1
  43   24   40 1
  44   25   41 1
  45   25   42 1
  46   26   43 1
  47   26   44 1
  48   26   45 1

#	End of record

