#	Name: ASD03331417
#	Creating user name:	WinNT
#	Creation time:	15. 06. 2019 20:39

#	Modifying user name:	WinNT
#	Modification time:	15. 06. 2019 20:39

#	Program:	/corina/corina34_cracker 3.40 0067  02.08.2006

@<TRIPOS>MOLECULE
ASD03331417
  59   61    0    0    0
SMALL
NO_CHARGES


@<TRIPOS>ATOM
   1 C1             0.6456     0.9650     1.7771 C.ar    
   2 C2             0.5124    -0.4545     1.3828 C.2     
   3 N3            -0.5430    -1.2605     1.6658 N.pl3   
   4 C4            -0.2769    -2.4880     1.1299 C.2     
   5 C5             0.9343    -2.4083     0.5281 C.2     
   6 N6             1.3936    -1.1462     0.6946 N.2     
   7 C7             1.6248    -3.4979    -0.1842 C.2     
   8 N8             2.8333    -3.2804    -0.7398 N.am    
   9 C9            -0.1832     1.4975     2.7650 C.ar    
  10 O10            1.1040    -4.5936    -0.2709 O.2     
  11 C11            3.5197    -4.3637    -1.4479 C.3     
  12 C12            3.0273    -4.4191    -2.8955 C.3     
  13 C13            5.0054    -4.1120    -1.4320 C.2     
  14 C14            3.2375    -3.0562    -3.5582 C.3     
  15 C15           -1.7754    -0.9567     2.3986 C.3     
  16 C16           -2.7985    -2.0569     2.0848 C.3     
  17 O17           -2.1933    -3.3428     2.2440 O.3     
  18 C18           -1.2182    -3.6598     1.2394 C.3     
  19 C19            3.8134    -5.4853    -3.6611 C.3     
  20 C20            1.5385    -4.7712    -2.9146 C.3     
  21 O21            5.4293    -2.9972    -1.2117 O.2     
  22 N22            5.8631    -5.1257    -1.6627 N.am    
  23 C23            7.3064    -4.9062    -1.5404 C.3     
  24 C24           -0.0545     2.8237     3.1293 C.ar    
  25 C25            0.8968     3.6247     2.5135 C.ar    
  26 C26            1.7209     3.0990     1.5318 C.ar    
  27 C27            1.6044     1.7741     1.1662 C.ar    
  28 F28            1.0193     4.9215     2.8721 F       
  29 F29           -0.8559     3.3416     4.0857 F       
  30 C30            7.9998    -6.2344    -1.2305 C.3     
  31 C31            7.8497    -4.3418    -2.8546 C.3     
  32 H32            3.2486    -2.4065    -0.6707 H       
  33 H33           -0.9240     0.8743     3.2438 H       
  34 H34            3.3066    -5.3122    -0.9551 H       
  35 H35            4.2982    -2.8054    -3.5446 H       
  36 H36            2.8867    -3.0957    -4.5895 H       
  37 H37            2.6775    -2.2967    -3.0128 H       
  38 H38           -1.5720    -0.9374     3.4693 H       
  39 H39           -2.1647     0.0101     2.0796 H       
  40 H40           -3.6455    -1.9685     2.7651 H       
  41 H41           -3.1470    -1.9452     1.0580 H       
  42 H42           -1.7138    -3.8264     0.2829 H       
  43 H43           -0.6648    -4.5527     1.5302 H       
  44 H44            3.6757    -6.4536    -3.1800 H       
  45 H45            3.4522    -5.5353    -4.6883 H       
  46 H46            4.8722    -5.2265    -3.6605 H       
  47 H47            0.9784    -4.0117    -2.3691 H       
  48 H48            1.1876    -4.8107    -3.9458 H       
  49 H49            1.3887    -5.7422    -2.4424 H       
  50 H50            5.5248    -6.0006    -1.9097 H       
  51 H51            7.4993    -4.1988    -0.7339 H       
  52 H52            2.4593     3.7266     1.0550 H       
  53 H53            2.2477     1.3660     0.4007 H       
  54 H54            7.8069    -6.9418    -2.0370 H       
  55 H55            9.0737    -6.0711    -1.1395 H       
  56 H56            7.6128    -6.6365    -0.2942 H       
  57 H57            7.6568    -5.0492    -3.6611 H       
  58 H58            7.3557    -3.3956    -3.0754 H       
  59 H59            8.9235    -4.1785    -2.7636 H       
@<TRIPOS>BOND
   1    1    2 1
   2    1    9 ar
   3    1   27 ar
   4    2    3 1
   5    2    6 2
   6    3    4 1
   7    3   15 1
   8    4    5 2
   9    4   18 1
  10    5    6 1
  11    5    7 1
  12    7    8 am
  13    7   10 2
  14    8   11 1
  15    8   32 1
  16    9   24 ar
  17    9   33 1
  18   11   12 1
  19   11   13 1
  20   11   34 1
  21   12   14 1
  22   12   19 1
  23   12   20 1
  24   13   21 2
  25   13   22 am
  26   14   35 1
  27   14   36 1
  28   14   37 1
  29   15   16 1
  30   15   38 1
  31   15   39 1
  32   16   17 1
  33   16   40 1
  34   16   41 1
  35   17   18 1
  36   18   42 1
  37   18   43 1
  38   19   44 1
  39   19   45 1
  40   19   46 1
  41   20   47 1
  42   20   48 1
  43   20   49 1
  44   22   23 1
  45   22   50 1
  46   23   30 1
  47   23   31 1
  48   23   51 1
  49   24   25 ar
  50   24   29 1
  51   25   26 ar
  52   25   28 1
  53   26   27 ar
  54   26   52 1
  55   27   53 1
  56   30   54 1
  57   30   55 1
  58   30   56 1
  59   31   57 1
  60   31   58 1
  61   31   59 1

#	End of record

