#	Name: ASD03080165
#	Creating user name:	WinNT
#	Creation time:	15. 06. 2019 20:26

#	Modifying user name:	WinNT
#	Modification time:	15. 06. 2019 20:26

#	Program:	/corina/corina34_cracker 3.40 0067  02.08.2006

@<TRIPOS>MOLECULE
ASD03080165
  30   31    0    0    0
SMALL
NO_CHARGES


@<TRIPOS>ATOM
   1 C1            -0.0167     1.3809     0.0096 C.ar    
   2 C2             0.0021    -0.0041     0.0020 C.ar    
   3 C3             1.2173    -0.6643    -0.0131 C.ar    
   4 C4             2.3890     0.1018    -0.0202 C.ar    
   5 C5             2.2855     1.4926    -0.0117 C.ar    
   6 N6             1.1048     2.0768     0.0027 N.ar    
   7 C7             3.7142    -0.5527    -0.0358 C.2     
   8 C8             4.8169     0.1832    -0.0424 C.2     
   9 N9             8.1895     0.6530     0.6598 N.3     
  10 C10            6.9924    -0.0513     1.1682 C.3     
  11 C11            6.1680    -0.4841    -0.0583 C.3     
  12 C12            6.9858    -0.0107    -1.2819 C.3     
  13 C13            8.4191     0.1249    -0.7093 C.3     
  14 C14            9.3525     0.4041     1.5220 C.3     
  15 Cl15          -1.5394     2.2145     0.0213 Cl      
  16 H16           -0.9223    -0.5625     0.0082 H       
  17 H17            1.2611    -1.7433    -0.0190 H       
  18 H18            3.1812     2.0960    -0.0170 H       
  19 H19            3.7842    -1.6304    -0.0419 H       
  20 H20            4.7469     1.2609    -0.0363 H       
  21 H21            7.2930    -0.9281     1.7417 H       
  22 H22            6.4038     0.6205     1.7930 H       
  23 H23            6.0553    -1.5681    -0.0750 H       
  24 H24            6.9569    -0.7559    -2.0769 H       
  25 H25            6.6211     0.9518    -1.6407 H       
  26 H26            9.0044     0.8293    -1.3003 H       
  27 H27            8.9109    -0.8471    -0.6693 H       
  28 H28            9.5618    -0.6653     1.5501 H       
  29 H29           10.2188     0.9335     1.1254 H       
  30 H30            9.1400     0.7593     2.5304 H       
@<TRIPOS>BOND
   1    1    2 ar
   2    1    6 ar
   3    1   15 1
   4    2    3 ar
   5    2   16 1
   6    3    4 ar
   7    3   17 1
   8    4    5 ar
   9    4    7 1
  10    5    6 ar
  11    5   18 1
  12    7    8 2
  13    7   19 1
  14    8   11 1
  15    8   20 1
  16    9   10 1
  17    9   13 1
  18    9   14 1
  19   10   11 1
  20   10   21 1
  21   10   22 1
  22   11   12 1
  23   11   23 1
  24   12   13 1
  25   12   24 1
  26   12   25 1
  27   13   26 1
  28   13   27 1
  29   14   28 1
  30   14   29 1
  31   14   30 1

#	End of record

