#	Name: ASD04370010
#	Creating user name:	WinNT
#	Creation time:	15. 06. 2019 20:48

#	Modifying user name:	WinNT
#	Modification time:	15. 06. 2019 20:48

#	Program:	/corina/corina34_cracker 3.40 0067  02.08.2006

@<TRIPOS>MOLECULE
ASD04370010
  74   75    0    0    0
SMALL
NO_CHARGES


@<TRIPOS>ATOM
   1 C1             3.2665    -0.4330    -0.7076 C.2     
   2 C2             1.9337     0.2213    -0.9655 C.3     
   3 C3             0.9276    -0.2366     0.0924 C.3     
   4 C4            -0.4556     0.3253    -0.2424 C.3     
   5 O5             3.4224    -1.1302     0.2804 O.co2   
   6 O6             4.1875    -0.2694    -1.4897 O.co2   
   7 N7            -1.4387    -0.1875     0.7212 N.4     
   8 C8            -1.1266     0.3285     2.0607 C.3     
   9 C9            -2.7844     0.2517     0.3285 C.3     
  10 C10           -1.3882    -1.6556     0.7380 C.3     
  11 N11            1.3472     0.2508     1.4087 N.am    
  12 C12            1.5401     1.5696     1.6089 C.2     
  13 C13            2.0815     2.0604     2.9269 C.3     
  14 C14            2.2039     3.5851     2.8920 C.3     
  15 C15            2.7536     4.0833     4.2301 C.3     
  16 C16            2.8760     5.6080     4.1952 C.3     
  17 C17            3.4257     6.1063     5.5333 C.3     
  18 C18            3.5481     7.6310     5.4984 C.3     
  19 C19            4.0978     8.1292     6.8365 C.3     
  20 O20            1.2779     2.3614     0.7284 O.2     
  21 O21            4.2121     9.5533     6.8039 O.3     
  22 C22            4.7192    10.1235     8.0121 C.3     
  23 C23            4.9409    14.3731     7.5987 C.ar    
  24 C24            3.7810    13.7780     8.0906 C.ar    
  25 C25            3.7150    12.4057     8.2223 C.ar    
  26 C26            4.7974    11.6214     7.8665 C.ar    
  27 C27            5.9515    12.2069     7.3781 C.ar    
  28 C28            6.0284    13.5782     7.2423 C.ar    
  29 C29            5.0155    15.8476     7.4491 C.ar    
  30 C30            6.1754    16.4426     6.9572 C.ar    
  31 C31            6.2394    17.8145     6.8201 C.ar    
  32 C32            5.1550    18.5984     7.1706 C.ar    
  33 C33            4.0012    18.0130     7.6598 C.ar    
  34 C34            3.9239    16.6416     7.7947 C.ar    
  35 H35            2.0451     1.3045    -0.9162 H       
  36 H36            1.5750    -0.0624    -1.9549 H       
  37 H37            0.8841    -1.3256     0.1051 H       
  38 H38           -0.4283     1.4136    -0.1892 H       
  39 H39           -0.7388     0.0176    -1.2490 H       
  40 H40           -0.9681     1.4056     2.0073 H       
  41 H41           -1.9568     0.1163     2.7343 H       
  42 H42           -0.2232    -0.1536     2.4344 H       
  43 H43           -3.0159    -0.1312    -0.6654 H       
  44 H44           -3.5138    -0.1288     1.0435 H       
  45 H45           -2.8218     1.3410     0.3161 H       
  46 H46           -0.3897    -1.9815     1.0293 H       
  47 H47           -2.1177    -2.0361     1.4530 H       
  48 H48           -1.6198    -2.0385    -0.2559 H       
  49 H49            1.4862    -0.3756     2.1361 H       
  50 H50            1.4040     1.7685     3.7293 H       
  51 H51            3.0634     1.6210     3.1025 H       
  52 H52            2.8814     3.8769     2.0895 H       
  53 H53            1.2220     4.0245     2.7163 H       
  54 H54            2.0761     3.7915     5.0325 H       
  55 H55            3.7355     3.6439     4.4057 H       
  56 H56            3.5535     5.8999     3.3927 H       
  57 H57            1.8941     6.0474     4.0195 H       
  58 H58            2.7482     5.8144     6.3357 H       
  59 H59            4.4076     5.6669     5.7090 H       
  60 H60            4.2256     7.9228     4.6959 H       
  61 H61            2.5662     8.0704     5.3227 H       
  62 H62            3.4203     7.8374     7.6389 H       
  63 H63            5.0797     7.6898     7.0122 H       
  64 H64            4.0546     9.8730     8.8390 H       
  65 H65            5.7140     9.7254     8.2122 H       
  66 H66            2.9353    14.3895     8.3686 H       
  67 H67            2.8165    11.9434     8.6035 H       
  68 H68            6.7938    11.5898     7.1021 H       
  69 H69            6.9297    14.0343     6.8601 H       
  70 H70            7.0230    15.8316     6.6839 H       
  71 H71            7.1379    18.2768     6.4389 H       
  72 H72            5.2094    19.6716     7.0621 H       
  73 H73            3.1576    18.6298     7.9323 H       
  74 H74            3.0208    16.1851     8.1720 H       
@<TRIPOS>BOND
   1    1    2 1
   2    1    5 ar
   3    1    6 ar
   4    2    3 1
   5    2   35 1
   6    2   36 1
   7    3    4 1
   8    3   11 1
   9    3   37 1
  10    4    7 1
  11    4   38 1
  12    4   39 1
  13    7    8 1
  14    7    9 1
  15    7   10 1
  16    8   40 1
  17    8   41 1
  18    8   42 1
  19    9   43 1
  20    9   44 1
  21    9   45 1
  22   10   46 1
  23   10   47 1
  24   10   48 1
  25   11   12 am
  26   11   49 1
  27   12   13 1
  28   12   20 2
  29   13   14 1
  30   13   50 1
  31   13   51 1
  32   14   15 1
  33   14   52 1
  34   14   53 1
  35   15   16 1
  36   15   54 1
  37   15   55 1
  38   16   17 1
  39   16   56 1
  40   16   57 1
  41   17   18 1
  42   17   58 1
  43   17   59 1
  44   18   19 1
  45   18   60 1
  46   18   61 1
  47   19   21 1
  48   19   62 1
  49   19   63 1
  50   21   22 1
  51   22   26 1
  52   22   64 1
  53   22   65 1
  54   23   24 ar
  55   23   28 ar
  56   23   29 1
  57   24   25 ar
  58   24   66 1
  59   25   26 ar
  60   25   67 1
  61   26   27 ar
  62   27   28 ar
  63   27   68 1
  64   28   69 1
  65   29   30 ar
  66   29   34 ar
  67   30   31 ar
  68   30   70 1
  69   31   32 ar
  70   31   71 1
  71   32   33 ar
  72   32   72 1
  73   33   34 ar
  74   33   73 1
  75   34   74 1

#	End of record

