#	Name: ASD09720009
#	Creating user name:	WinNT
#	Creation time:	15. 06. 2019 21:22

#	Modifying user name:	WinNT
#	Modification time:	15. 06. 2019 21:22

#	Program:	/corina/corina34_cracker 3.40 0067  02.08.2006

@<TRIPOS>MOLECULE
ASD09720009
  30   31    0    0    0
SMALL
NO_CHARGES


@<TRIPOS>ATOM
   1 C1            -0.2511     0.3312     0.8694 C.2     
   2 S2             0.1834     1.1168    -0.6387 S.3     
   3 C3            -1.4300     1.5667    -0.9541 C.2     
   4 C4            -2.2543     1.1398     0.0386 C.2     
   5 C5            -1.5601     0.4231     1.0830 C.2     
   6 Cl6            0.8709    -0.4619     1.9305 Cl      
   7 Cl7           -1.9502     2.4514    -2.3542 Cl      
   8 C8            -3.7074     1.3798     0.0464 C.2     
   9 N9            -4.5290     0.3828    -0.0486 N.2     
  10 C10           -4.2383     2.7851     0.1650 C.3     
  11 O11           -4.0331    -0.9244    -0.2734 O.3     
  12 S12           -6.0519     2.7500     0.1455 S.3     
  13 C13           -7.9961     4.6426     0.2940 C.ar    
  14 C14           -8.6951     4.6021     1.4859 C.ar    
  15 C15          -10.0709     4.7363     1.4852 C.ar    
  16 C16          -10.7477     4.9115     0.2926 C.ar    
  17 C17          -10.0486     4.9529    -0.8992 C.ar    
  18 C18           -8.6729     4.8173    -0.8986 C.ar    
  19 C19           -6.4956     4.5024     0.2954 C.3     
  20 H20           -2.0525     0.0106     1.9512 H       
  21 H21           -3.8936     3.2260     1.1003 H       
  22 H22           -3.8774     3.3818    -0.6727 H       
  23 H23           -4.7210    -1.6017    -0.3297 H       
  24 H24           -8.1664     4.4652     2.4176 H       
  25 H25          -10.6171     4.7040     2.4163 H       
  26 H26          -11.8227     5.0157     0.2920 H       
  27 H27          -10.5774     5.0891    -1.8310 H       
  28 H28           -8.1268     4.8488    -1.8298 H       
  29 H29           -6.0944     4.9004     1.2274 H       
  30 H30           -6.0783     5.0561    -0.5457 H       
@<TRIPOS>BOND
   1    1    2 1
   2    1    6 1
   3    1    5 2
   4    2    3 1
   5    3    4 2
   6    3    7 1
   7    4    5 1
   8    4    8 1
   9    5   20 1
  10    8    9 2
  11    8   10 1
  12    9   11 1
  13   10   12 1
  14   10   21 1
  15   10   22 1
  16   11   23 1
  17   12   19 1
  18   13   14 ar
  19   13   18 ar
  20   13   19 1
  21   14   15 ar
  22   14   24 1
  23   15   16 ar
  24   15   25 1
  25   16   17 ar
  26   16   26 1
  27   17   18 ar
  28   17   27 1
  29   18   28 1
  30   19   29 1
  31   19   30 1

#	End of record

