#	Name: ASD01881360
#	Creating user name:	WinNT
#	Creation time:	15. 06. 2019 19:42

#	Modifying user name:	WinNT
#	Modification time:	15. 06. 2019 19:42

#	Program:	/corina/corina34_cracker 3.40 0067  02.08.2006

@<TRIPOS>MOLECULE
ASD01881360
  38   39    0    0    0
SMALL
NO_CHARGES


@<TRIPOS>ATOM
   1 C1            -0.0169     1.3955     0.0097 C.2     
   2 C2             0.0021    -0.0041     0.0020 C.2     
   3 C3             1.2188    -0.6604    -0.0131 C.2     
   4 C4             2.4049     0.1004    -0.0203 C.2     
   5 C5             2.3374     1.4490    -0.0124 C.2     
   6 N6             1.1377     2.0872     0.0024 N.am    
   7 O7            -1.0834     1.9904     0.0180 O.2     
   8 C8             1.1006     3.5517     0.0101 C.3     
   9 C9             1.1011     4.0543     1.4552 C.3     
  10 C10            1.0623     5.5837     1.4633 C.3     
  11 C11            1.0629     6.0863     2.9084 C.3     
  12 O12            1.2700    -2.0139    -0.0204 O.3     
  13 C13            0.0222    -2.7104    -0.0118 C.3     
  14 C14            0.2760    -4.1958    -0.0217 C.ar    
  15 C15            0.4040    -4.8832     1.1708 C.ar    
  16 C16            0.6368    -6.2457     1.1617 C.ar    
  17 C17            0.7411    -6.9211    -0.0400 C.ar    
  18 C18            0.6122    -6.2339    -1.2325 C.ar    
  19 C19            0.3751    -4.8721    -1.2233 C.ar    
  20 H20           -0.9215    -0.5638     0.0082 H       
  21 H21            3.3652    -0.3936    -0.0318 H       
  22 H22            3.2489     2.0281    -0.0176 H       
  23 H23            1.9762     3.9401    -0.5100 H       
  24 H24            0.1969     3.8949    -0.4936 H       
  25 H25            0.2255     3.6659     1.9753 H       
  26 H26            2.0048     3.7111     1.9589 H       
  27 H27            1.9380     5.9721     0.9432 H       
  28 H28            0.1587     5.9269     0.9596 H       
  29 H29            1.9665     5.7431     3.4120 H       
  30 H30            1.0352     7.1760     2.9141 H       
  31 H31            0.1872     5.6979     3.4284 H       
  32 H32           -0.5368    -2.4433     0.8850 H       
  33 H33           -0.5541    -2.4343    -0.8949 H       
  34 H34            0.3224    -4.3555     2.1096 H       
  35 H35            0.7375    -6.7826     2.0933 H       
  36 H36            0.9237    -7.9855    -0.0471 H       
  37 H37            0.6941    -6.7615    -2.1713 H       
  38 H38            0.2707    -4.3358    -2.1550 H       
@<TRIPOS>BOND
   1    1    2 1
   2    1    6 am
   3    1    7 2
   4    2    3 2
   5    2   20 1
   6    3    4 1
   7    3   12 1
   8    4    5 2
   9    4   21 1
  10    5    6 1
  11    5   22 1
  12    6    8 1
  13    8    9 1
  14    8   23 1
  15    8   24 1
  16    9   10 1
  17    9   25 1
  18    9   26 1
  19   10   11 1
  20   10   27 1
  21   10   28 1
  22   11   29 1
  23   11   30 1
  24   11   31 1
  25   12   13 1
  26   13   14 1
  27   13   32 1
  28   13   33 1
  29   14   15 ar
  30   14   19 ar
  31   15   16 ar
  32   15   34 1
  33   16   17 ar
  34   16   35 1
  35   17   18 ar
  36   17   36 1
  37   18   19 ar
  38   18   37 1
  39   19   38 1

#	End of record

