#	Name: ASD01230786
#	Creating user name:	WinNT
#	Creation time:	15. 06. 2019 19:15

#	Modifying user name:	WinNT
#	Modification time:	15. 06. 2019 19:15

#	Program:	/corina/corina34_cracker 3.40 0067  02.08.2006

@<TRIPOS>MOLECULE
ASD01230786
  33   35    0    0    0
SMALL
NO_CHARGES


@<TRIPOS>ATOM
   1 C1            -0.0166     1.3739     0.0096 C.2     
   2 C2             0.0021    -0.0041     0.0020 C.2     
   3 C3            -1.2143    -0.7000     0.0083 C.2     
   4 C4            -2.3849    -0.0391     0.0105 C.2     
   5 N5            -2.4623     1.3311     0.0013 N.pl3   
   6 C6            -1.3175     2.0759     0.0320 C.2     
   7 C7            -3.8099     1.9042    -0.0487 C.3     
   8 C8            -3.8783     3.1898     0.7808 C.3     
   9 S9            -2.6223     4.3260     0.1129 S.o2    
  10 N10           -1.2621     3.3846     0.0820 N.am    
  11 C11            1.2496     2.1411     0.0016 C.ar    
  12 O12           -2.8872     4.6254    -1.2507 O.2     
  13 O13           -2.3215     5.3519     1.0490 O.2     
  14 C14            1.6754     2.7773    -1.1645 C.ar    
  15 C15            2.8560     3.4913    -1.1660 C.ar    
  16 C16            3.6178     3.5767    -0.0132 C.ar    
  17 C17            3.2003     2.9468     1.1473 C.ar    
  18 C18            2.0186     2.2355     1.1621 C.ar    
  19 Cl19           5.1025     4.4764    -0.0225 Cl      
  20 C20            1.5655     1.5506     2.4257 C.3     
  21 F21            2.5013     1.7776     3.4406 F       
  22 F22            0.3230     2.0629     2.8140 F       
  23 F23            1.4516     0.1753     2.1956 F       
  24 H24            0.9399    -0.5395    -0.0090 H       
  25 H25           -1.2113    -1.7800     0.0110 H       
  26 H26           -3.3018    -0.6096     0.0196 H       
  27 H27           -4.0664     2.1300    -1.0837 H       
  28 H28           -4.5230     1.1817     0.3484 H       
  29 H29           -4.8684     3.6369     0.6920 H       
  30 H30           -3.6616     2.9694     1.8260 H       
  31 H31            1.0823     2.7107    -2.0646 H       
  32 H32            3.1867     3.9842    -2.0683 H       
  33 H33            3.7989     3.0162     2.0436 H       
@<TRIPOS>BOND
   1    1    2 2
   2    1   11 1
   3    1    6 1
   4    2    3 1
   5    2   24 1
   6    3    4 2
   7    3   25 1
   8    4    5 1
   9    4   26 1
  10    5    6 1
  11    5    7 1
  12    6   10 2
  13    7    8 1
  14    7   27 1
  15    7   28 1
  16    8    9 1
  17    8   29 1
  18    8   30 1
  19    9   10 am
  20    9   12 2
  21    9   13 2
  22   11   14 ar
  23   11   18 ar
  24   14   15 ar
  25   14   31 1
  26   15   16 ar
  27   15   32 1
  28   16   17 ar
  29   16   19 1
  30   17   18 ar
  31   17   33 1
  32   18   20 1
  33   20   21 1
  34   20   22 1
  35   20   23 1

#	End of record

