#	Name: ASD01890391
#	Creating user name:	WinNT
#	Creation time:	15. 06. 2019 19:50

#	Modifying user name:	WinNT
#	Modification time:	15. 06. 2019 19:50

#	Program:	/corina/corina34_cracker 3.40 0067  02.08.2006

@<TRIPOS>MOLECULE
ASD01890391
  37   39    0    0    0
SMALL
NO_CHARGES


@<TRIPOS>ATOM
   1 C1            -0.0167     1.3819     0.0096 C.ar    
   2 C2             0.0021    -0.0041     0.0020 C.ar    
   3 C3             1.2146    -0.6746    -0.0132 C.ar    
   4 C4             2.4197     0.0563    -0.0208 C.ar    
   5 C5             2.3855     1.4416    -0.0135 C.ar    
   6 C6             1.1652     2.0987     0.0022 C.ar    
   7 C7             1.6060    -2.0999    -0.0246 C.2     
   8 N8             2.9490    -2.1756    -0.0379 N.am    
   9 C9             3.5027    -0.9495    -0.0366 C.2     
  10 O10            4.6931    -0.7094    -0.0474 O.2     
  11 O11            0.8428    -3.0446    -0.0220 O.2     
  12 C12            3.7086    -3.4282    -0.0515 C.3     
  13 N13            3.9486    -3.8388    -1.4371 N.pl3   
  14 C14            5.0978    -3.4071    -2.1048 C.ar    
  15 C15            2.9838    -4.7020    -2.1228 C.3     
  16 C16            5.3265    -3.7956    -3.4185 C.ar    
  17 C17            6.4631    -3.3675    -4.0760 C.ar    
  18 C18            7.3736    -2.5521    -3.4270 C.ar    
  19 C19            7.1485    -2.1639    -2.1180 C.ar    
  20 C20            6.0105    -2.5840    -1.4578 C.ar    
  21 Cl21           8.8013    -2.0159    -4.2564 Cl      
  22 C22            1.9538    -3.8503    -2.8191 C.2     
  23 O23            2.0190    -2.6458    -2.7497 O.2     
  24 O24            0.9640    -4.4298    -3.5164 O.3     
  25 H25           -0.9614     1.9054     0.0170 H       
  26 H26           -0.9244    -0.5590     0.0083 H       
  27 H27            3.3057     2.0068    -0.0195 H       
  28 H28            1.1375     3.1784     0.0080 H       
  29 H29            4.6629    -3.2799     0.4540 H       
  30 H30            3.1410    -4.2029     0.4640 H       
  31 H31            3.5040    -5.3165    -2.8576 H       
  32 H32            2.4906    -5.3459    -1.3946 H       
  33 H33            4.6164    -4.4322    -3.9254 H       
  34 H34            6.6417    -3.6696    -5.0974 H       
  35 H35            7.8611    -1.5281    -1.6137 H       
  36 H36            5.8351    -2.2804    -0.4363 H       
  37 H37            0.3271    -3.8423    -3.9457 H       
@<TRIPOS>BOND
   1    1    2 ar
   2    1    6 ar
   3    1   25 1
   4    2    3 ar
   5    2   26 1
   6    3    4 ar
   7    3    7 1
   8    4    5 ar
   9    4    9 1
  10    5    6 ar
  11    5   27 1
  12    6   28 1
  13    7    8 am
  14    7   11 2
  15    8    9 am
  16    8   12 1
  17    9   10 2
  18   12   13 1
  19   12   29 1
  20   12   30 1
  21   13   14 1
  22   13   15 1
  23   14   16 ar
  24   14   20 ar
  25   15   22 1
  26   15   31 1
  27   15   32 1
  28   16   17 ar
  29   16   33 1
  30   17   18 ar
  31   17   34 1
  32   18   19 ar
  33   18   21 1
  34   19   20 ar
  35   19   35 1
  36   20   36 1
  37   22   23 2
  38   22   24 1
  39   24   37 1

#	End of record

