#	Name: ASD05430205
#	Creating user name:	WinNT
#	Creation time:	15. 06. 2019 21:00

#	Modifying user name:	WinNT
#	Modification time:	15. 06. 2019 21:00

#	Program:	/corina/corina34_cracker 3.40 0067  02.08.2006

@<TRIPOS>MOLECULE
ASD05430205
  77   82    0    0    0
SMALL
NO_CHARGES


@<TRIPOS>ATOM
   1 C1             0.3209    -0.8243     0.0760 C.ar    
   2 C2             0.4035    -1.9081     0.9496 C.ar    
   3 C3             1.5476    -2.1039     1.7125 C.ar    
   4 C4             2.6066    -1.2284     1.6094 C.ar    
   5 C5             2.5310    -0.1395     0.7349 C.ar    
   6 C6             1.3793     0.0579    -0.0326 C.ar    
   7 C7             5.2539    -1.1413     0.7616 C.3     
   8 C8             4.9242     0.3425     0.7207 C.2     
   9 C9             3.6613     0.7972     0.6237 C.2     
  10 C10            6.4772    -1.3862    -0.1303 C.3     
  11 C11            7.7216    -0.6235     0.3393 C.3     
  12 N12            7.3782     0.7836     0.5256 N.pl3   
  13 C13            6.0897     1.2513     0.7954 C.2     
  14 C14           -0.8143     0.4922    -1.5465 C.3     
  15 O15           -0.7984    -0.6387    -0.6730 O.3     
  16 N16           -0.6707    -2.8016     1.0585 N.pl3   
  17 C17           -1.9746    -2.4765     1.2561 C.2     
  18 C18           -0.6047    -4.1687     0.9796 C.2     
  19 C19           -1.8604    -4.6294     1.1357 C.2     
  20 N20           -2.6750    -3.5770     1.3022 N.2     
  21 C21           -2.2788    -6.0771     1.1212 C.3     
  22 C22            8.2382     1.9668     0.4586 C.3     
  23 O23            7.4559     2.9810     1.1233 O.3     
  24 N24            6.1180     2.5018     1.1142 N.2     
  25 C25            9.5517     1.7227     1.2045 C.3     
  26 C26           10.4697     2.9342     1.0305 C.3     
  27 C27            8.5021     2.3523    -0.9741 C.ar    
  28 C28            8.8235     3.6591    -1.2903 C.ar    
  29 C29            8.4284     1.3980    -1.9715 C.ar    
  30 C30            8.6704     1.7516    -3.2857 C.ar    
  31 C31            8.9858     3.0596    -3.6027 C.ar    
  32 C32            9.0655     4.0127    -2.6046 C.ar    
  33 S33            9.8860     4.2914     2.0831 S.o2    
  34 O34            8.7050     4.8340     1.5086 O.2     
  35 O35            9.8581     3.8398     3.4301 O.2     
  36 C36           11.2238     5.5038     1.9075 C.3     
  37 C37           11.8965     2.5547     1.4320 C.3     
  38 C38            6.7457    -2.8718    -0.3798 C.3     
  39 S39            7.4002    -2.4734    -2.0244 S.3     
  40 C40            6.1815    -1.1920    -1.6186 C.3     
  41 C41            9.2502     3.4450    -5.0354 C.3     
  42 F42            8.0512     3.8333    -5.6427 F       
  43 F43           10.1576     4.5092    -5.0722 F       
  44 F44            9.7872     2.3503    -5.7213 F       
  45 H45            1.6071    -2.9441     2.3884 H       
  46 H46            3.4948    -1.3829     2.2040 H       
  47 H47            1.3170     0.8973    -0.7094 H       
  48 H48            5.4798    -1.4395     1.7853 H       
  49 H49            4.4063    -1.7166     0.3891 H       
  50 H50            3.4769     1.8494     0.4643 H       
  51 H51            8.0704    -1.0415     1.2836 H       
  52 H52            8.5072    -0.7106    -0.4113 H       
  53 H53           -0.6986     1.4047    -0.9617 H       
  54 H54            0.0056     0.4116    -2.2602 H       
  55 H55           -1.7621     0.5228    -2.0840 H       
  56 H56           -2.3662    -1.4752     1.3583 H       
  57 H57            0.2838    -4.7622     0.8225 H       
  58 H58           -2.2342    -6.4784     2.1336 H       
  59 H59           -3.2980    -6.1570     0.7432 H       
  60 H60           -1.6067    -6.6431     0.4761 H       
  61 H61            9.3452     1.5725     2.2641 H       
  62 H62           10.0397     0.8359     0.8001 H       
  63 H63           10.4581     3.2521    -0.0121 H       
  64 H64            8.8851     4.4038    -0.5106 H       
  65 H65            8.1820     0.3760    -1.7238 H       
  66 H66            8.6135     1.0058    -4.0648 H       
  67 H67            9.3119     5.0346    -2.8522 H       
  68 H68           11.3222     5.7871     0.8596 H       
  69 H69           10.9938     6.3874     2.5028 H       
  70 H70           12.1594     5.0653     2.2547 H       
  71 H71           11.9081     2.2368     2.4746 H       
  72 H72           12.2473     1.7392     0.7995 H       
  73 H73           12.5506     3.4178     1.3081 H       
  74 H74            7.4967    -3.2899     0.2905 H       
  75 H75            5.8364    -3.4717    -0.4143 H       
  76 H76            5.1630    -1.4673    -1.8926 H       
  77 H77            6.4600    -0.2042    -1.9855 H       
@<TRIPOS>BOND
   1    1    2 ar
   2    1    6 ar
   3    1   15 1
   4    2    3 ar
   5    2   16 1
   6    3    4 ar
   7    3   45 1
   8    4    5 ar
   9    4   46 1
  10    5    6 ar
  11    5    9 1
  12    6   47 1
  13    7    8 1
  14    7   10 1
  15    7   48 1
  16    7   49 1
  17    8    9 2
  18    8   13 1
  19    9   50 1
  20   10   11 1
  21   10   38 1
  22   10   40 1
  23   11   12 1
  24   11   51 1
  25   11   52 1
  26   12   13 1
  27   12   22 1
  28   13   24 2
  29   14   15 1
  30   14   53 1
  31   14   54 1
  32   14   55 1
  33   16   17 1
  34   16   18 1
  35   17   20 2
  36   17   56 1
  37   18   19 2
  38   18   57 1
  39   19   20 1
  40   19   21 1
  41   21   58 1
  42   21   59 1
  43   21   60 1
  44   22   23 1
  45   22   25 1
  46   22   27 1
  47   23   24 1
  48   25   26 1
  49   25   61 1
  50   25   62 1
  51   26   33 1
  52   26   37 1
  53   26   63 1
  54   27   28 ar
  55   27   29 ar
  56   28   32 ar
  57   28   64 1
  58   29   30 ar
  59   29   65 1
  60   30   31 ar
  61   30   66 1
  62   31   32 ar
  63   31   41 1
  64   32   67 1
  65   33   34 2
  66   33   35 2
  67   33   36 1
  68   36   68 1
  69   36   69 1
  70   36   70 1
  71   37   71 1
  72   37   72 1
  73   37   73 1
  74   38   39 1
  75   38   74 1
  76   38   75 1
  77   39   40 1
  78   40   76 1
  79   40   77 1
  80   41   42 1
  81   41   43 1
  82   41   44 1

#	End of record

