#	Name: ASD03240325
#	Creating user name:	WinNT
#	Creation time:	15. 06. 2019 20:34

#	Modifying user name:	WinNT
#	Modification time:	15. 06. 2019 20:34

#	Program:	/corina/corina34_cracker 3.40 0067  02.08.2006

@<TRIPOS>MOLECULE
ASD03240325
  91   97    0    0    0
SMALL
NO_CHARGES


@<TRIPOS>ATOM
   1 C1            -0.1325     1.4685    -3.5382 C.2     
   2 N2             0.5416     0.9257    -2.4700 N.pl3   
   3 O3            -3.6644     3.1994    -2.8325 O.2     
   4 C4            -3.3681     3.2513    -4.0074 C.2     
   5 C5            -2.0696     2.6533    -4.4841 C.3     
   6 N6            -1.3513     2.0749    -3.3458 N.pl3   
   7 N7             0.3865     1.4131    -4.7326 N.2     
   8 N8            -4.2002     3.8437    -4.8867 N.am    
   9 C9            -5.4472     4.2988    -4.4670 C.ar    
  10 C10           -6.0255     5.4218    -5.0769 C.ar    
  11 C11           -7.2702     5.8723    -4.6555 C.ar    
  12 C12           -7.9376     5.2048    -3.6280 C.ar    
  13 C13           -7.3530     4.0862    -3.0261 C.ar    
  14 C14           -6.1213     3.6369    -3.4481 C.ar    
  15 C15           -9.2600     5.6796    -3.1761 C.2     
  16 N16           -9.9045     5.0347    -2.1836 N.am    
  17 O17           -9.7681     6.6527    -3.6993 O.2     
  18 C18          -11.0987     5.5560    -1.6692 C.ar    
  19 C19          -12.0689     4.7006    -1.1638 C.ar    
  20 C20          -11.3098     6.9285    -1.6595 C.ar    
  21 C21          -12.4866     7.4424    -1.1525 C.ar    
  22 C22          -13.4594     6.5866    -0.6523 C.ar    
  23 C23          -13.2458     5.2142    -0.6568 C.ar    
  24 N24          -14.6518     7.1072    -0.1382 N.pl3   
  25 C25          -15.7610     6.2090     0.1922 C.3     
  26 C26          -14.7913     8.5507     0.0698 C.3     
  27 C27           -5.3105     6.1259    -6.1673 C.ar    
  28 C28           -5.9712     6.4131    -7.3625 C.ar    
  29 C29           -5.3082     7.0670    -8.3760 C.ar    
  30 C30           -3.9727     7.4436    -8.2077 C.ar    
  31 C31           -3.3121     7.1554    -7.0100 C.ar    
  32 C32           -3.9789     6.5064    -5.9959 C.ar    
  33 C33          -15.0824     8.8229     1.5231 C.ar    
  34 C34          -16.8838     6.4142    -0.7919 C.ar    
  35 C35          -17.9842     7.1306    -0.4344 C.ar    
  36 C36          -19.0325     7.3309    -1.3308 C.ar    
  37 C37          -18.9860     6.8159    -2.5897 C.ar    
  38 C38          -17.8655     6.0709    -2.9953 C.ar    
  39 C39          -16.7973     5.8717    -2.0855 C.ar    
  40 C40          -16.3309     9.2004     1.9116 C.ar    
  41 C41          -16.6189     9.4564     3.2510 C.ar    
  42 C42          -15.6601     9.3365     4.2093 C.ar    
  43 C43          -14.3590     8.9483     3.8464 C.ar    
  44 C44          -14.0675     8.6828     2.4852 C.ar    
  45 C45          -13.3427     8.8137     4.8076 C.ar    
  46 C46          -12.0943     8.4358     4.4192 C.ar    
  47 C47          -11.8062     8.1798     3.0798 C.ar    
  48 C48          -12.7664     8.2947     2.1222 C.ar    
  49 C49          -17.7815     5.5236    -4.2870 C.ar    
  50 C50          -16.6807     4.8076    -4.6446 C.ar    
  51 C51          -15.6326     4.6072    -3.7481 C.ar    
  52 C52          -15.6767     5.1267    -2.4910 C.ar    
  53 C53           -3.2816     8.1236    -9.2615 C.1     
  54 N54           -2.7334     8.6630   -10.0976 N.1     
  55 H55            1.4033     0.5015    -2.6051 H       
  56 H56            0.1554     0.9670    -1.5811 H       
  57 H57           -2.2761     1.8738    -5.2175 H       
  58 H58           -1.4582     3.4306    -4.9425 H       
  59 H59           -1.7357     2.1196    -2.4563 H       
  60 H60           -0.0891     1.7961    -5.4863 H       
  61 H61           -3.9302     3.9530    -5.8119 H       
  62 H62           -7.7198     6.7367    -5.1215 H       
  63 H63           -7.8707     3.5704    -2.2309 H       
  64 H64           -5.6742     2.7725    -2.9798 H       
  65 H65           -9.5415     4.2096    -1.8254 H       
  66 H66          -11.9029     3.6334    -1.1677 H       
  67 H67          -10.5532     7.5940    -2.0482 H       
  68 H68          -12.6506     8.5098    -1.1447 H       
  69 H69          -14.0023     4.5486    -0.2682 H       
  70 H70          -15.4186     5.1753     0.1424 H       
  71 H71          -16.1165     6.4259     1.1995 H       
  72 H72          -13.8652     9.0499    -0.2150 H       
  73 H73          -15.6106     8.9284    -0.5418 H       
  74 H74           -7.0030     6.1217    -7.4925 H       
  75 H75           -5.8196     7.2888    -9.3010 H       
  76 H76           -2.2802     7.4458    -6.8788 H       
  77 H77           -3.4688     6.2840    -5.0703 H       
  78 H78          -18.0464     7.5499     0.5590 H       
  79 H79          -19.8948     7.9030    -1.0217 H       
  80 H80          -19.8061     6.9786    -3.2734 H       
  81 H81          -17.1101     9.3033     1.1709 H       
  82 H82          -17.6180     9.7549     3.5326 H       
  83 H83          -15.8976     9.5389     5.2432 H       
  84 H84          -13.5511     9.0094     5.8491 H       
  85 H85          -11.3150     8.3331     5.1599 H       
  86 H86          -10.8070     7.8821     2.7981 H       
  87 H87          -12.5288     8.0928     1.0882 H       
  88 H88          -18.5864     5.6702    -4.9920 H       
  89 H89          -16.6187     4.3881    -5.6379 H       
  90 H90          -14.7706     4.0345    -4.0570 H       
  91 H91          -14.8569     4.9635    -1.8071 H       
@<TRIPOS>BOND
   1    1    2 1
   2    1    7 2
   3    1    6 1
   4    2   55 1
   5    2   56 1
   6    3    4 2
   7    4    5 1
   8    4    8 am
   9    5    6 1
  10    5   57 1
  11    5   58 1
  12    6   59 1
  13    7   60 1
  14    8    9 1
  15    8   61 1
  16    9   10 ar
  17    9   14 ar
  18   10   11 ar
  19   10   27 1
  20   11   12 ar
  21   11   62 1
  22   12   13 ar
  23   12   15 1
  24   13   14 ar
  25   13   63 1
  26   14   64 1
  27   15   16 am
  28   15   17 2
  29   16   18 1
  30   16   65 1
  31   18   19 ar
  32   18   20 ar
  33   19   23 ar
  34   19   66 1
  35   20   21 ar
  36   20   67 1
  37   21   22 ar
  38   21   68 1
  39   22   23 ar
  40   22   24 1
  41   23   69 1
  42   24   25 1
  43   24   26 1
  44   25   34 1
  45   25   70 1
  46   25   71 1
  47   26   33 1
  48   26   72 1
  49   26   73 1
  50   27   28 ar
  51   27   32 ar
  52   28   29 ar
  53   28   74 1
  54   29   30 ar
  55   29   75 1
  56   30   31 ar
  57   30   53 1
  58   31   32 ar
  59   31   76 1
  60   32   77 1
  61   33   40 ar
  62   33   44 ar
  63   34   35 ar
  64   34   39 ar
  65   35   36 ar
  66   35   78 1
  67   36   37 ar
  68   36   79 1
  69   37   38 ar
  70   37   80 1
  71   38   39 ar
  72   38   49 ar
  73   39   52 ar
  74   40   41 ar
  75   40   81 1
  76   41   42 ar
  77   41   82 1
  78   42   43 ar
  79   42   83 1
  80   43   44 ar
  81   43   45 ar
  82   44   48 ar
  83   45   46 ar
  84   45   84 1
  85   46   47 ar
  86   46   85 1
  87   47   48 ar
  88   47   86 1
  89   48   87 1
  90   49   50 ar
  91   49   88 1
  92   50   51 ar
  93   50   89 1
  94   51   52 ar
  95   51   90 1
  96   52   91 1
  97   53   54 3

#	End of record

