#	Name: ASD06020141
#	Creating user name:	WinNT
#	Creation time:	15. 06. 2019 21:04

#	Modifying user name:	WinNT
#	Modification time:	15. 06. 2019 21:04

#	Program:	/corina/corina34_cracker 3.40 0067  02.08.2006

@<TRIPOS>MOLECULE
ASD06020141
  41   44    0    0    0
SMALL
NO_CHARGES


@<TRIPOS>ATOM
   1 C1             0.0027    -0.0072     0.0093 C.1     
   2 C2            -0.0172     1.4245     0.0313 C.ar    
   3 C3             1.1900     2.1504     0.0274 C.ar    
   4 C4             1.1544     3.5442     0.0485 C.ar    
   5 C5            -0.0601     4.2036     0.0729 C.ar    
   6 C6            -1.2459     3.4894     0.0771 C.ar    
   7 C7            -1.2317     2.1092     0.0507 C.ar    
   8 N8             0.0185    -1.1430    -0.0081 N.1     
   9 C9             6.1985     0.2747    -0.0582 C.ar    
  10 C10            4.8501     0.6477    -0.0372 C.ar    
  11 C11            3.8599    -0.3421    -0.0396 C.ar    
  12 C12            4.2970    -1.6914    -0.0642 C.ar    
  13 C13            5.6281    -1.9645    -0.0840 C.ar    
  14 N14            6.5375    -1.0024    -0.0803 N.ar    
  15 S15            4.0609     2.2206    -0.0057 S.3     
  16 C16            2.4846     1.4400     0.0018 C.2     
  17 N17            2.6229     0.1540    -0.0180 N.2     
  18 N18            7.1878     1.2539    -0.0618 N.pl3   
  19 C19           10.1339    -0.7274     0.3125 C.ar    
  20 N20            8.8661    -0.3789     0.2259 N.ar    
  21 C21            8.5233     0.8907     0.0293 C.ar    
  22 C22            9.5293     1.8525    -0.0844 C.ar    
  23 C23           10.8438     1.4406     0.0128 C.ar    
  24 N24           11.1062     0.1560     0.2094 N.ar    
  25 C25           11.9665     2.4391    -0.1036 C.3     
  26 C26           10.4815    -2.1757     0.5419 C.3     
  27 O27           10.6266    -2.8360    -0.7170 O.3     
  28 Cl28           2.6348     4.4509     0.0446 Cl      
  29 H29           -0.0841     5.2832     0.0892 H       
  30 H30           -2.1888     4.0157     0.0966 H       
  31 H31           -2.1614     1.5596     0.0496 H       
  32 H32            3.5768    -2.4962    -0.0668 H       
  33 H33            5.9528    -2.9943    -0.1024 H       
  34 H34            6.9432     2.1902    -0.1280 H       
  35 H35            9.2854     2.8923    -0.2447 H       
  36 H36           12.2091     2.8299     0.8846 H       
  37 H37           12.8445     1.9510    -0.5268 H       
  38 H38           11.6581     3.2586    -0.7527 H       
  39 H39           11.4175    -2.2412     1.0966 H       
  40 H40            9.6861    -2.6540     1.1135 H       
  41 H41           10.8509    -3.7739    -0.6457 H       
@<TRIPOS>BOND
   1    1    2 1
   2    1    8 3
   3    2    3 ar
   4    2    7 ar
   5    3    4 ar
   6    3   16 1
   7    4    5 ar
   8    4   28 1
   9    5    6 ar
  10    5   29 1
  11    6    7 ar
  12    6   30 1
  13    7   31 1
  14    9   10 ar
  15    9   14 ar
  16    9   18 1
  17   10   11 ar
  18   10   15 1
  19   11   12 ar
  20   11   17 1
  21   12   13 ar
  22   12   32 1
  23   13   14 ar
  24   13   33 1
  25   15   16 1
  26   16   17 2
  27   18   21 1
  28   18   34 1
  29   19   20 ar
  30   19   24 ar
  31   19   26 1
  32   20   21 ar
  33   21   22 ar
  34   22   23 ar
  35   22   35 1
  36   23   24 ar
  37   23   25 1
  38   25   36 1
  39   25   37 1
  40   25   38 1
  41   26   27 1
  42   26   39 1
  43   26   40 1
  44   27   41 1

#	End of record

