#	Name: ASD01208645
#	Creating user name:	WinNT
#	Creation time:	15. 06. 2019 19:10

#	Modifying user name:	WinNT
#	Modification time:	15. 06. 2019 19:10

#	Program:	/corina/corina34_cracker 3.40 0067  02.08.2006

@<TRIPOS>MOLECULE
ASD01208645
  17   17    0    0    0
SMALL
NO_CHARGES


@<TRIPOS>ATOM
   1 C1            -0.0168     1.3901     0.0097 C.ar    
   2 C2             0.0021    -0.0041     0.0020 C.ar    
   3 N3             1.1281     2.0678     0.0024 N.ar    
   4 N4             1.1559    -0.6467    -0.0125 N.ar    
   5 C5             2.2915     0.0311    -0.0197 C.ar    
   6 C6             2.2753     1.4204    -0.0120 C.ar    
   7 C7            -1.3082     2.1149     0.0197 C.2     
   8 O8            -2.3532     1.4945     0.0213 O.2     
   9 N9            -1.3246     3.4625     0.0271 N.am    
  10 C10           -2.6022     4.1795     0.0371 C.3     
  11 Cl11           3.8060    -0.8172    -0.0387 Cl      
  12 H12           -0.9253    -0.5576     0.0083 H       
  13 H13            3.2047     1.9704    -0.0180 H       
  14 H14           -0.4906     3.9577     0.0259 H       
  15 H15           -3.1747     3.9140    -0.8517 H       
  16 H16           -3.1663     3.9044     0.9282 H       
  17 H17           -2.4161     5.2534     0.0420 H       
@<TRIPOS>BOND
   1    1    2 ar
   2    1    3 ar
   3    1    7 1
   4    2    4 ar
   5    2   12 1
   6    3    6 ar
   7    4    5 ar
   8    5    6 ar
   9    5   11 1
  10    6   13 1
  11    7    8 2
  12    7    9 am
  13    9   10 1
  14    9   14 1
  15   10   15 1
  16   10   16 1
  17   10   17 1

#	End of record

