#	Name: ASD00170298
#	Creating user name:	WinNT
#	Creation time:	15. 06. 2019 18:31

#	Modifying user name:	WinNT
#	Modification time:	15. 06. 2019 18:31

#	Program:	/corina/corina34_cracker 3.40 0067  02.08.2006

@<TRIPOS>MOLECULE
ASD00170298
  64   67    0    0    0
SMALL
NO_CHARGES


@<TRIPOS>ATOM
   1 C1             4.0252     1.4517     3.6650 C.ar    
   2 C2             4.0400     0.0666     3.6711 C.ar    
   3 C3             3.9330    -0.6379     2.4833 C.ar    
   4 C4             3.8113     0.0367     1.2868 C.ar    
   5 C5             3.7957     1.4328     1.2743 C.ar    
   6 C6             3.9035     2.1374     2.4749 C.ar    
   7 Cl7            4.1940    -0.7897     5.1733 Cl      
   8 C8             4.6244     4.4857    -0.1066 C.2     
   9 C9             3.5340     3.6204    -0.0066 C.2     
  10 C10            3.6660     2.1621    -0.0052 C.2     
  11 O11            3.6690     1.5501    -1.0579 O.2     
  12 C12            4.2854     5.7883    -0.0841 C.2     
  13 S13            2.5435     5.9595     0.0606 S.3     
  14 C14            2.3196     4.2688     0.0909 C.2     
  15 N15            1.0994     3.6397     0.1972 N.pl3   
  16 C16            5.2116     6.8774    -0.1658 C.1     
  17 C17            5.9709     7.7702    -0.2327 C.1     
  18 C18            8.7470     4.2444    -3.9474 C.ar    
  19 C19            9.0749     4.0871    -5.2880 C.ar    
  20 C20            9.6101     5.1457    -5.9952 C.ar    
  21 C21            9.8197     6.3613    -5.3702 C.ar    
  22 C22            9.4944     6.5214    -4.0358 C.ar    
  23 C23            8.9588     5.4669    -3.3226 C.ar    
  24 N24            8.2003     3.1776    -3.2306 N.pl3   
  25 C25            7.9720     1.8908    -3.8927 C.3     
  26 C26            9.2183     1.0150    -3.7487 C.3     
  27 C27            7.8550     3.3453    -1.8168 C.3     
  28 C28            6.4091     3.8316    -1.6991 C.3     
  29 N29            8.9894    -0.2753    -4.4125 N.3     
  30 C30            6.0486     4.0068    -0.2226 C.3     
  31 C31            6.8971     8.8593    -0.3144 C.ar    
  32 C32            6.4351    10.1787    -0.2817 C.ar    
  33 C33            7.3332    11.2220    -0.3609 C.ar    
  34 C34            8.6887    10.9660    -0.4730 C.ar    
  35 C35            9.1537     9.6629    -0.5065 C.ar    
  36 C36            8.2687     8.6089    -0.4215 C.ar    
  37 H37            4.1045     1.9956     4.5947 H       
  38 H38            3.9452    -1.7178     2.4942 H       
  39 H39            3.7286    -0.5137     0.3613 H       
  40 H40            3.8917     3.2174     2.4714 H       
  41 H41            0.2950     4.1626     0.3400 H       
  42 H42            1.0443     2.6737     0.1292 H       
  43 H43            8.9119     3.1378    -5.7766 H       
  44 H44            9.8656     5.0239    -7.0375 H       
  45 H45           10.2387     7.1875    -5.9255 H       
  46 H46            9.6597     7.4720    -3.5506 H       
  47 H47            8.7047     5.5927    -2.2805 H       
  48 H48            7.1209     1.3904    -3.4307 H       
  49 H49            7.7654     2.0577    -4.9498 H       
  50 H50           10.0693     1.5154    -4.2107 H       
  51 H51            9.4249     0.8481    -2.6915 H       
  52 H52            7.9605     2.3907    -1.3013 H       
  53 H53            8.5229     4.0784    -1.3642 H       
  54 H54            6.3037     4.7862    -2.2146 H       
  55 H55            5.7413     3.0986    -2.1517 H       
  56 H56            9.7988    -0.8723    -4.3314 H       
  57 H57            8.1666    -0.7298    -4.0457 H       
  58 H58            6.7164     4.7398     0.2300 H       
  59 H59            6.1540     3.0522     0.2929 H       
  60 H60            5.3776    10.3800    -0.1950 H       
  61 H61            6.9779    12.2416    -0.3358 H       
  62 H62            9.3872    11.7874    -0.5350 H       
  63 H63           10.2129     9.4711    -0.5948 H       
  64 H64            8.6334     7.5925    -0.4429 H       
@<TRIPOS>BOND
   1    1    2 ar
   2    1    6 ar
   3    1   37 1
   4    2    3 ar
   5    2    7 1
   6    3    4 ar
   7    3   38 1
   8    4    5 ar
   9    4   39 1
  10    5    6 ar
  11    5   10 1
  12    6   40 1
  13    8   30 1
  14    8    9 1
  15    8   12 2
  16    9   10 1
  17    9   14 2
  18   10   11 2
  19   12   13 1
  20   12   16 1
  21   13   14 1
  22   14   15 1
  23   15   41 1
  24   15   42 1
  25   16   17 3
  26   17   31 1
  27   18   19 ar
  28   18   23 ar
  29   18   24 1
  30   19   20 ar
  31   19   43 1
  32   20   21 ar
  33   20   44 1
  34   21   22 ar
  35   21   45 1
  36   22   23 ar
  37   22   46 1
  38   23   47 1
  39   24   25 1
  40   24   27 1
  41   25   26 1
  42   25   48 1
  43   25   49 1
  44   26   29 1
  45   26   50 1
  46   26   51 1
  47   27   28 1
  48   27   52 1
  49   27   53 1
  50   28   30 1
  51   28   54 1
  52   28   55 1
  53   29   56 1
  54   29   57 1
  55   30   58 1
  56   30   59 1
  57   31   32 ar
  58   31   36 ar
  59   32   33 ar
  60   32   60 1
  61   33   34 ar
  62   33   61 1
  63   34   35 ar
  64   34   62 1
  65   35   36 ar
  66   35   63 1
  67   36   64 1

#	End of record

