#	Name: ASD01820092
#	Creating user name:	WinNT
#	Creation time:	15. 06. 2019 19:36

#	Modifying user name:	WinNT
#	Modification time:	15. 06. 2019 19:36

#	Program:	/corina/corina34_cracker 3.40 0067  02.08.2006

@<TRIPOS>MOLECULE
ASD01820092
  70   73    0    0    0
SMALL
NO_CHARGES


@<TRIPOS>ATOM
   1 N1            -0.0570     2.0532    -1.0440 N.am    
   2 C2             0.2827     0.7599    -1.0889 C.2     
   3 N3             1.6157     0.5784    -1.0877 N.am    
   4 C4             2.2234     1.9193    -1.0356 C.3     
   5 C5             1.0283     2.8513    -1.0088 C.2     
   6 C6             3.0486     2.0791     0.2152 C.ar    
   7 C7             3.7613     3.2442     0.4289 C.ar    
   8 C8             4.5183     3.3908     1.5762 C.ar    
   9 C9             4.5622     2.3726     2.5101 C.ar    
  10 C10            3.8488     1.2079     2.2969 C.ar    
  11 C11            3.0884     1.0630     1.1516 C.ar    
  12 C12            3.0630     2.1689    -2.2619 C.ar    
  13 C13            3.5608     1.1027    -2.9875 C.ar    
  14 C14            4.3310     1.3316    -4.1123 C.ar    
  15 C15            4.6031     2.6267    -4.5118 C.ar    
  16 C16            4.1046     3.6929    -3.7867 C.ar    
  17 C17            3.3308     3.4639    -2.6644 C.ar    
  18 O18           -0.5229    -0.1493    -1.1265 O.2     
  19 O19            1.0453     4.0628    -0.9652 O.2     
  20 C20           -1.4382     2.5416    -1.0400 C.3     
  21 N21           -1.9127     2.6533     0.3415 N.pl3   
  22 C22           -1.8310     3.8708     1.0083 C.ar    
  23 C23           -1.6683     6.2970     2.3373 C.ar    
  24 C24           -1.2208     6.1901     1.0172 C.ar    
  25 C25           -1.3034     4.9840     0.3599 C.ar    
  26 C26           -2.2824     3.9753     2.3212 C.ar    
  27 C27           -2.2029     5.1788     2.9838 C.ar    
  28 C28           -1.5808     7.5884     3.0451 C.2     
  29 O29           -1.1190     8.5612     2.4803 O.2     
  30 N30           -2.0126     7.6900     4.3177 N.am    
  31 C31           -1.9257     8.9724     5.0206 C.3     
  32 C32           -2.4786     8.8153     6.4386 C.3     
  33 N33           -2.3914    10.1012     7.1434 N.3     
  34 C34           -3.1235    10.0547     8.4161 C.3     
  35 C35           -0.9912    10.4915     7.3555 C.3     
  36 C36           -0.9260    11.9733     7.7308 C.3     
  37 C37           -4.6270    10.1296     8.1427 C.3     
  38 H38            2.0851    -0.2700    -1.1152 H       
  39 H39            3.7270     4.0397    -0.3007 H       
  40 H40            5.0757     4.3008     1.7428 H       
  41 H41            5.1542     2.4868     3.4061 H       
  42 H42            3.8834     0.4122     3.0263 H       
  43 H43            2.5281     0.1546     0.9868 H       
  44 H44            3.3482     0.0909    -2.6753 H       
  45 H45            4.7204     0.4987    -4.6788 H       
  46 H46            5.2054     2.8056    -5.3902 H       
  47 H47            4.3175     4.7047    -4.0987 H       
  48 H48            2.9383     4.2969    -2.1000 H       
  49 H49           -1.4789     3.5201    -1.5184 H       
  50 H50           -2.0721     1.8433    -1.5865 H       
  51 H51           -2.2838     1.8780     0.7910 H       
  52 H52           -0.8076     7.0523     0.5150 H       
  53 H53           -0.9581     4.9008    -0.6601 H       
  54 H54           -2.6956     3.1111     2.8200 H       
  55 H55           -2.5495     5.2583     4.0036 H       
  56 H56           -2.3810     6.9139     4.7683 H       
  57 H57           -0.8842     9.2899     5.0699 H       
  58 H58           -2.5088     9.7210     4.4842 H       
  59 H59           -3.5202     8.4978     6.3893 H       
  60 H60           -1.8955     8.0667     6.9750 H       
  61 H61           -2.8943     9.1229     8.9333 H       
  62 H62           -2.8249    10.8985     9.0381 H       
  63 H63           -0.5654     9.8935     8.1612 H       
  64 H64           -0.4244    10.3233     6.4397 H       
  65 H65           -1.3545    12.5710     6.9263 H       
  66 H66           -1.4902    12.1409     8.6482 H       
  67 H67            0.1133    12.2636     7.8852 H       
  68 H68           -4.8430    11.0109     7.5388 H       
  69 H69           -4.9438     9.2351     7.6062 H       
  70 H70           -5.1654    10.1960     9.0881 H       
@<TRIPOS>BOND
   1    1    2 am
   2    1    5 am
   3    1   20 1
   4    2    3 am
   5    2   18 2
   6    3    4 1
   7    3   38 1
   8    4    5 1
   9    4    6 1
  10    4   12 1
  11    5   19 2
  12    6    7 ar
  13    6   11 ar
  14    7    8 ar
  15    7   39 1
  16    8    9 ar
  17    8   40 1
  18    9   10 ar
  19    9   41 1
  20   10   11 ar
  21   10   42 1
  22   11   43 1
  23   12   13 ar
  24   12   17 ar
  25   13   14 ar
  26   13   44 1
  27   14   15 ar
  28   14   45 1
  29   15   16 ar
  30   15   46 1
  31   16   17 ar
  32   16   47 1
  33   17   48 1
  34   20   21 1
  35   20   49 1
  36   20   50 1
  37   21   22 1
  38   21   51 1
  39   22   26 ar
  40   22   25 ar
  41   23   24 ar
  42   23   27 ar
  43   23   28 1
  44   24   25 ar
  45   24   52 1
  46   25   53 1
  47   26   27 ar
  48   26   54 1
  49   27   55 1
  50   28   29 2
  51   28   30 am
  52   30   31 1
  53   30   56 1
  54   31   32 1
  55   31   57 1
  56   31   58 1
  57   32   33 1
  58   32   59 1
  59   32   60 1
  60   33   34 1
  61   33   35 1
  62   34   37 1
  63   34   61 1
  64   34   62 1
  65   35   36 1
  66   35   63 1
  67   35   64 1
  68   36   65 1
  69   36   66 1
  70   36   67 1
  71   37   68 1
  72   37   69 1
  73   37   70 1

#	End of record

