#	Name: ASD03080021
#	Creating user name:	WinNT
#	Creation time:	15. 06. 2019 20:26

#	Modifying user name:	WinNT
#	Modification time:	15. 06. 2019 20:26

#	Program:	/corina/corina34_cracker 3.40 0067  02.08.2006

@<TRIPOS>MOLECULE
ASD03080021
  27   29    0    0    0
SMALL
NO_CHARGES


@<TRIPOS>ATOM
   1 C1            -0.0168     1.3846     0.0097 C.ar    
   2 C2             0.0021    -0.0041     0.0020 C.ar    
   3 C3             1.2103    -0.6859    -0.0128 C.ar    
   4 C4             2.4014     0.0123    -0.0204 C.ar    
   5 C5             2.3915     1.4089    -0.0133 C.ar    
   6 C6             1.1736     2.0945     0.0021 C.ar    
   7 O7             3.8053     3.4936    -0.0151 O.3     
   8 N8             4.9827     3.7841    -0.0239 N.2     
   9 C9             5.7183     2.7020    -0.0363 C.2     
  10 N10            4.8799     1.6448    -0.0345 N.2     
  11 C11            3.6637     2.1588    -0.0210 C.2     
  12 C12            7.8649     1.4226    -0.0631 C.ar    
  13 C13            7.2017     2.6476    -0.0502 C.ar    
  14 C14            7.9551     3.8242    -0.0509 C.ar    
  15 C15            9.3357     3.7198    -0.0646 C.ar    
  16 C16            9.9191     2.4663    -0.0769 C.ar    
  17 N17            9.1811     1.3729    -0.0758 N.ar    
  18 F18            1.1568     3.4454     0.0091 F       
  19 F19            1.2213    -2.0369    -0.0192 F       
  20 F20           -1.1599    -0.6932     0.0095 F       
  21 O21           -1.2040     2.0483     0.0189 O.3     
  22 H22            3.3404    -0.5213    -0.0316 H       
  23 H23            7.2948     0.5054    -0.0581 H       
  24 H24            7.4729     4.7905    -0.0415 H       
  25 H25            9.9503     4.6079    -0.0660 H       
  26 H26           10.9957     2.3810    -0.0880 H       
  27 H27           -1.5431     2.2355     0.9049 H       
@<TRIPOS>BOND
   1    1    2 ar
   2    1    6 ar
   3    1   21 1
   4    2    3 ar
   5    2   20 1
   6    3    4 ar
   7    3   19 1
   8    4    5 ar
   9    4   22 1
  10    5    6 ar
  11    5   11 1
  12    6   18 1
  13    7    8 1
  14    7   11 1
  15    8    9 2
  16    9   10 1
  17    9   13 1
  18   10   11 2
  19   12   13 ar
  20   12   17 ar
  21   12   23 1
  22   13   14 ar
  23   14   15 ar
  24   14   24 1
  25   15   16 ar
  26   15   25 1
  27   16   17 ar
  28   16   26 1
  29   21   27 1

#	End of record

