#	Name: ASD03430953
#	Creating user name:	WinNT
#	Creation time:	15. 06. 2019 20:41

#	Modifying user name:	WinNT
#	Modification time:	15. 06. 2019 20:41

#	Program:	/corina/corina34_cracker 3.40 0067  02.08.2006

@<TRIPOS>MOLECULE
ASD03430953
  46   50    0    0    0
SMALL
NO_CHARGES


@<TRIPOS>ATOM
   1 O1            -0.0175     1.4361     0.0099 O.3     
   2 C2             0.0021    -0.0041     0.0020 C.3     
   3 C3             1.3448    -0.3157    -0.6731 C.3     
   4 C4             2.1586     0.9229    -0.4102 C.ar    
   5 C5             1.2627     1.9060     0.0002 C.ar    
   6 C6             1.7493     3.1678     0.3283 C.ar    
   7 C7             3.1000     3.4413     0.2376 C.ar    
   8 C8             3.9851     2.4566    -0.1818 C.ar    
   9 C9             3.5062     1.1959    -0.5047 C.ar    
  10 N10            2.1544    -2.4042    -1.1292 N.am    
  11 C11            1.9838    -1.5487    -0.1015 C.2     
  12 C12            1.1844    -0.5937    -2.1382 C.ar    
  13 C13            0.6735     0.1286    -3.1935 C.ar    
  14 C14            0.6635    -0.4155    -4.4655 C.ar    
  15 C15            1.1683    -1.6861    -4.6747 C.ar    
  16 C16            1.6817    -2.4133    -3.6212 C.ar    
  17 C17            1.6957    -1.8737    -2.3373 C.ar    
  18 O18            2.2869    -1.7377     1.0575 O.2     
  19 C19            2.7513    -3.7353    -0.9947 C.3     
  20 O20            1.2380    -5.1017     0.5170 O.3     
  21 C21            1.6699    -4.7437    -0.7033 C.2     
  22 C22            0.9732    -5.4374    -1.6212 C.2     
  23 C23            0.0689    -6.2614    -0.9124 C.2     
  24 C24            0.2672    -6.0218     0.3963 C.2     
  25 C25           -0.4743    -6.6751     1.5340 C.3     
  26 F26            0.2009    -7.8363     1.9251 F       
  27 F27           -0.5437    -5.7896     2.6149 F       
  28 F28           -1.7685    -7.0058     1.1183 F       
  29 O29            5.3149     2.7276    -0.2755 O.3     
  30 C30            6.1641     1.6652    -0.7139 C.3     
  31 F31            3.5614     4.6701     0.5573 F       
  32 H32           -0.0203    -0.3969     1.0185 H       
  33 H33           -0.8271    -0.3991    -0.5850 H       
  34 H34            1.0666     3.9380     0.6554 H       
  35 H35            4.1905     0.4266    -0.8309 H       
  36 H36            0.2798     1.1206    -3.0279 H       
  37 H37            0.2621     0.1505    -5.2931 H       
  38 H38            1.1600    -2.1109    -5.6677 H       
  39 H39            2.0740    -3.4049    -3.7924 H       
  40 H40            3.2565    -4.0024    -1.9228 H       
  41 H41            3.4723    -3.7293    -0.1772 H       
  42 H42            1.0830    -5.3763    -2.6939 H       
  43 H43           -0.6444    -6.9506    -1.3397 H       
  44 H44            6.0841     0.8269    -0.0218 H       
  45 H45            5.8597     1.3442    -1.7101 H       
  46 H46            7.1963     2.0141    -0.7442 H       
@<TRIPOS>BOND
   1    1    2 1
   2    1    5 1
   3    2    3 1
   4    2   32 1
   5    2   33 1
   6    3    4 1
   7    3   11 1
   8    3   12 1
   9    4    5 ar
  10    4    9 ar
  11    5    6 ar
  12    6    7 ar
  13    6   34 1
  14    7    8 ar
  15    7   31 1
  16    8    9 ar
  17    8   29 1
  18    9   35 1
  19   10   11 am
  20   10   17 1
  21   10   19 1
  22   11   18 2
  23   12   13 ar
  24   12   17 ar
  25   13   14 ar
  26   13   36 1
  27   14   15 ar
  28   14   37 1
  29   15   16 ar
  30   15   38 1
  31   16   17 ar
  32   16   39 1
  33   19   21 1
  34   19   40 1
  35   19   41 1
  36   20   21 1
  37   20   24 1
  38   21   22 2
  39   22   23 1
  40   22   42 1
  41   23   24 2
  42   23   43 1
  43   24   25 1
  44   25   26 1
  45   25   27 1
  46   25   28 1
  47   29   30 1
  48   30   44 1
  49   30   45 1
  50   30   46 1

#	End of record

