#	Name: ASD01901119
#	Creating user name:	WinNT
#	Creation time:	15. 06. 2019 19:53

#	Modifying user name:	WinNT
#	Modification time:	15. 06. 2019 19:53

#	Program:	/corina/corina34_cracker 3.40 0067  02.08.2006

@<TRIPOS>MOLECULE
ASD01901119
  58   62    0    0    0
SMALL
NO_CHARGES


@<TRIPOS>ATOM
   1 C1             1.7590     0.9819     0.9474 C.ar    
   2 C2             2.1499    -0.3401     0.9149 C.ar    
   3 C3             3.4744    -0.6762     0.6751 C.ar    
   4 C4             4.4237     0.3087     0.4727 C.ar    
   5 C5             4.0480     1.6404     0.5081 C.ar    
   6 C6             2.7035     1.9839     0.7363 C.ar    
   7 N7             4.9697     2.6661     0.3297 N.pl3   
   8 C8             4.5109     3.9388    -0.2382 C.3     
   9 N9             3.2362     4.3324     0.3631 N.am    
  10 C10            2.3350     3.4099     0.7552 C.2     
  11 C11            2.9478     5.6920     0.5352 C.ar    
  12 C12            3.5243     6.3972     1.5833 C.ar    
  13 C13            3.2394     7.7377     1.7523 C.ar    
  14 C14            2.3770     8.3798     0.8757 C.ar    
  15 C15            1.8007     7.6760    -0.1716 C.ar    
  16 C16            2.0895     6.3369    -0.3456 C.ar    
  17 O17            1.2267     3.7521     1.1211 O.2     
  18 O18            2.0962     9.6996     1.0433 O.3     
  19 C19            5.5590     5.0215     0.0360 C.3     
  20 C20            4.3353     3.7836    -1.7515 C.3     
  21 C21            3.9230     5.1296    -2.3520 C.3     
  22 N22            4.9542     6.1335    -2.0609 N.3     
  23 C23            5.1103     6.3322    -0.6144 C.3     
  24 C24            4.6587     7.4033    -2.7379 C.3     
  25 C25            5.6800     8.4362    -2.3364 C.2     
  26 C26            1.2250    10.3043     0.0855 C.3     
  27 Br27           3.9858    -2.4960     0.6253 Br      
  28 F28           -0.0182     9.6634     0.1160 F       
  29 F29            1.0593    11.6585     0.3954 F       
  30 F30            1.7810    10.1830    -1.1925 F       
  31 O31            5.6138     9.2263    -1.2524 O.3     
  32 C32            6.6948    10.0222    -1.2117 C.2     
  33 C33            7.4670     9.7451    -2.2776 C.2     
  34 C34            6.8155     8.7190    -2.9998 C.2     
  35 C35            6.9920    11.0514    -0.1517 C.3     
  36 H36            0.7262     1.2387     1.1309 H       
  37 H37            1.4200    -1.1193     1.0775 H       
  38 H38            5.4534     0.0401     0.2882 H       
  39 H39            5.8996     2.5425     0.5767 H       
  40 H40            4.1952     5.8973     2.2662 H       
  41 H41            3.6877     8.2863     2.5675 H       
  42 H42            1.1291     8.1765    -0.8535 H       
  43 H43            1.6442     5.7901    -1.1636 H       
  44 H44            5.6614     5.1650     1.1116 H       
  45 H45            6.5171     4.7156    -0.3843 H       
  46 H46            5.2764     3.4597    -2.1959 H       
  47 H47            3.5621     3.0424    -1.9541 H       
  48 H48            3.8108     5.0266    -3.4313 H       
  49 H49            2.9750     5.4461    -1.9171 H       
  50 H50            4.1576     6.6431    -0.1856 H       
  51 H51            5.8592     7.1030    -0.4324 H       
  52 H52            4.6953     7.2566    -3.8174 H       
  53 H53            3.6642     7.7451    -2.4511 H       
  54 H54            8.4063    10.2140    -2.5312 H       
  55 H55            7.1618     8.2534    -3.9106 H       
  56 H56            6.1498    11.1172     0.5371 H       
  57 H57            7.8879    10.7601     0.3965 H       
  58 H58            7.1532    12.0213    -0.6222 H       
@<TRIPOS>BOND
   1    1    2 ar
   2    1    6 ar
   3    1   36 1
   4    2    3 ar
   5    2   37 1
   6    3    4 ar
   7    3   27 1
   8    4    5 ar
   9    4   38 1
  10    5    7 1
  11    5    6 ar
  12    6   10 1
  13    7    8 1
  14    7   39 1
  15    8    9 1
  16    8   20 1
  17    8   19 1
  18    9   10 am
  19    9   11 1
  20   10   17 2
  21   11   12 ar
  22   11   16 ar
  23   12   13 ar
  24   12   40 1
  25   13   14 ar
  26   13   41 1
  27   14   15 ar
  28   14   18 1
  29   15   16 ar
  30   15   42 1
  31   16   43 1
  32   18   26 1
  33   19   23 1
  34   19   44 1
  35   19   45 1
  36   20   21 1
  37   20   46 1
  38   20   47 1
  39   21   22 1
  40   21   48 1
  41   21   49 1
  42   22   23 1
  43   22   24 1
  44   23   50 1
  45   23   51 1
  46   24   25 1
  47   24   52 1
  48   24   53 1
  49   25   31 1
  50   25   34 2
  51   26   28 1
  52   26   29 1
  53   26   30 1
  54   31   32 1
  55   32   33 2
  56   32   35 1
  57   33   34 1
  58   33   54 1
  59   34   55 1
  60   35   56 1
  61   35   57 1
  62   35   58 1

#	End of record

