#	Name: ASD00122076
#	Creating user name:	WinNT
#	Creation time:	15. 06. 2019 18:31

#	Modifying user name:	WinNT
#	Modification time:	15. 06. 2019 18:31

#	Program:	/corina/corina34_cracker 3.40 0067  02.08.2006

@<TRIPOS>MOLECULE
ASD00122076
  16   17    0    0    0
SMALL
NO_CHARGES


@<TRIPOS>ATOM
   1 C1            -0.0158     1.3164     0.0093 C.ar    
   2 N2             0.0021    -0.0041     0.0020 N.ar    
   3 C3             1.1408    -0.6763    -0.0125 C.ar    
   4 C4             2.3388     0.0392    -0.0202 C.ar    
   5 C5             2.2740     1.4477    -0.0120 C.ar    
   6 N6             1.0865     2.0368     0.0026 N.ar    
   7 C7             1.1446    -2.1833    -0.0201 C.3     
   8 N8             3.6515    -0.2976    -0.0350 N.2     
   9 C9             4.3765     0.7832    -0.0364 C.2     
  10 N10            3.5747     1.8848    -0.0225 N.pl3   
  11 H11           -0.9691     1.8239     0.0165 H       
  12 H12            1.1355    -2.5414    -1.0496 H       
  13 H13            2.0405    -2.5469     0.4831 H       
  14 H14            0.2607    -2.5515     0.5005 H       
  15 H15            5.4562     0.8039    -0.0473 H       
  16 H16            3.8695     2.8089    -0.0205 H       
@<TRIPOS>BOND
   1    1    2 ar
   2    1    6 ar
   3    1   11 1
   4    2    3 ar
   5    3    4 ar
   6    3    7 1
   7    4    5 ar
   8    4    8 1
   9    5    6 ar
  10    5   10 1
  11    7   12 1
  12    7   13 1
  13    7   14 1
  14    8    9 2
  15    9   10 1
  16    9   15 1
  17   10   16 1

#	End of record

