#	Name: ASD05920006
#	Creating user name:	WinNT
#	Creation time:	15. 06. 2019 21:04

#	Modifying user name:	WinNT
#	Modification time:	15. 06. 2019 21:04

#	Program:	/corina/corina34_cracker 3.40 0067  02.08.2006

@<TRIPOS>MOLECULE
ASD05920006
  42   42    0    0    0
SMALL
NO_CHARGES


@<TRIPOS>ATOM
   1 C1            -0.0173     1.4259     0.0099 C.3     
   2 O2             0.0021    -0.0041     0.0020 O.3     
   3 C3             0.6798    -0.5645    -1.1258 C.3     
   4 C4             2.1251    -0.0600    -1.1482 C.3     
   5 N5             2.1254     1.4099    -1.1727 N.3     
   6 C6             1.4209     1.9505    -0.0010 C.3     
   7 C7             3.4951     1.9349    -1.2520 C.3     
   8 C8             3.4495     3.4395    -1.5255 C.3     
   9 N9             4.8155     3.9631    -1.6046 N.am    
  10 C10            5.0221     5.2739    -1.8401 C.2     
  11 O11            4.0773     6.0201    -1.9865 O.2     
  12 C12            6.4273     5.8125    -1.9214 C.3     
  13 N13            6.4191     7.0960    -2.6359 N.3     
  14 C14            6.9770     6.0187    -0.5085 C.3     
  15 C15            8.4036     6.5655    -0.5911 C.3     
  16 C16            6.0916     7.0150     0.2428 C.3     
  17 C17            8.9980     6.6543     0.8159 C.3     
  18 H18           -0.5434     1.7877    -0.8736 H       
  19 H19           -0.5264     1.7781     0.9071 H       
  20 H20            0.6750    -1.6518    -1.0500 H       
  21 H21            0.1740    -0.2606    -2.0423 H       
  22 H22            2.6464    -0.4093    -0.2569 H       
  23 H23            2.6291    -0.4389    -2.0373 H       
  24 H24            1.4109     3.0392    -0.0527 H       
  25 H25            1.9309     1.6334     0.9086 H       
  26 H26            4.0092     1.7526    -0.3083 H       
  27 H27            4.0297     1.4348    -2.0596 H       
  28 H28            2.9353     3.6219    -2.4692 H       
  29 H29            2.9149     3.9396    -0.7180 H       
  30 H30            5.5711     3.3663    -1.4875 H       
  31 H31            7.0580     5.1027    -2.4567 H       
  32 H32            6.1209     6.9756    -3.5923 H       
  33 H33            5.8408     7.7716    -2.1591 H       
  34 H34            6.9830     5.0664     0.0216 H       
  35 H35            9.0132     5.8995    -1.2017 H       
  36 H36            8.3868     7.5579    -1.0417 H       
  37 H37            6.0856     7.9674    -0.2874 H       
  38 H38            5.0753     6.6255     0.3016 H       
  39 H39            6.4833     7.1620     1.2493 H       
  40 H40            9.0147     5.6619     1.2665 H       
  41 H41           10.0143     7.0438     0.7571 H       
  42 H42            8.3884     7.3203     1.4265 H       
@<TRIPOS>BOND
   1    1    2 1
   2    1    6 1
   3    1   18 1
   4    1   19 1
   5    2    3 1
   6    3    4 1
   7    3   20 1
   8    3   21 1
   9    4    5 1
  10    4   22 1
  11    4   23 1
  12    5    6 1
  13    5    7 1
  14    6   24 1
  15    6   25 1
  16    7    8 1
  17    7   26 1
  18    7   27 1
  19    8    9 1
  20    8   28 1
  21    8   29 1
  22    9   10 am
  23    9   30 1
  24   10   11 2
  25   10   12 1
  26   12   13 1
  27   12   14 1
  28   12   31 1
  29   13   32 1
  30   13   33 1
  31   14   15 1
  32   14   16 1
  33   14   34 1
  34   15   17 1
  35   15   35 1
  36   15   36 1
  37   16   37 1
  38   16   38 1
  39   16   39 1
  40   17   40 1
  41   17   41 1
  42   17   42 1

#	End of record

