#	Name: ASD02500971
#	Creating user name:	WinNT
#	Creation time:	15. 06. 2019 20:23

#	Modifying user name:	WinNT
#	Modification time:	15. 06. 2019 20:23

#	Program:	/corina/corina34_cracker 3.40 0067  02.08.2006

@<TRIPOS>MOLECULE
ASD02500971
  42   45    0    0    0
SMALL
NO_CHARGES


@<TRIPOS>ATOM
   1 C1            -0.0168     1.3887     0.0097 C.2     
   2 C2             0.0021    -0.0041     0.0020 C.2     
   3 C3            -1.2024    -0.7333     0.0096 C.2     
   4 C4            -2.5088     0.0275     0.0261 C.3     
   5 C5            -2.4549     1.5374     0.0338 C.2     
   6 C6            -1.2760     2.1466     0.0312 C.2     
   7 C7             1.3333     1.8233    -0.0009 C.2     
   8 C8             2.1442     0.7059    -0.0146 C.2     
   9 N9             1.3213    -0.4156    -0.0128 N.pl3   
  10 S10            2.3267     3.2763    -0.0026 S.3     
  11 C11            3.7978     2.3177    -0.0217 C.2     
  12 C12            3.5069     1.0216    -0.0263 C.2     
  13 C13            5.1938     2.8854    -0.0328 C.3     
  14 C14            1.7789    -1.8073    -0.0239 C.3     
  15 C15           -3.3134    -0.4031    -1.2019 C.3     
  16 C16           -4.6759     0.2394    -1.1602 C.ar    
  17 C17           -4.9324     1.3662    -1.9185 C.ar    
  18 C18           -5.6729    -0.3021    -0.3669 C.ar    
  19 C19           -6.9246     0.2892    -0.3300 C.ar    
  20 C20           -7.1771     1.4186    -1.0849 C.ar    
  21 C21           -6.1821     1.9558    -1.8805 C.ar    
  22 F22           -5.4250    -1.4067     0.3704 F       
  23 O23           -1.1921    -1.9489     0.0026 O.2     
  24 C24           -1.2272     3.6528     0.0393 C.3     
  25 H25           -3.0652    -0.2887     0.9084 H       
  26 H26           -3.3671     2.1153     0.0452 H       
  27 H27            4.2731     0.2606    -0.0375 H       
  28 H28            5.1432     3.9742    -0.0266 H       
  29 H29            5.7328     2.5417     0.8500 H       
  30 H30            5.7149     2.5510    -0.9298 H       
  31 H31            1.9021    -2.1574     1.0010 H       
  32 H32            1.0422    -2.4279    -0.5338 H       
  33 H33            2.7330    -1.8719    -0.5470 H       
  34 H34           -2.7916    -0.0901    -2.1062 H       
  35 H35           -3.4230    -1.4876    -1.2026 H       
  36 H36           -4.1560     1.7865    -2.5406 H       
  37 H37           -7.7032    -0.1326     0.2883 H       
  38 H38           -8.1533     1.8799    -1.0562 H       
  39 H39           -6.3802     2.8388    -2.4699 H       
  40 H40           -2.2425     4.0492     0.0466 H       
  41 H41           -0.6973     3.9944     0.9285 H       
  42 H42           -0.7064     4.0043    -0.8514 H       
@<TRIPOS>BOND
   1    1    2 2
   2    1    7 1
   3    1    6 1
   4    2    3 1
   5    2    9 1
   6    3    4 1
   7    3   23 2
   8    4    5 1
   9    4   15 1
  10    4   25 1
  11    5    6 2
  12    5   26 1
  13    6   24 1
  14    7    8 2
  15    7   10 1
  16    8    9 1
  17    8   12 1
  18    9   14 1
  19   10   11 1
  20   11   12 2
  21   11   13 1
  22   12   27 1
  23   13   28 1
  24   13   29 1
  25   13   30 1
  26   14   31 1
  27   14   32 1
  28   14   33 1
  29   15   16 1
  30   15   34 1
  31   15   35 1
  32   16   17 ar
  33   16   18 ar
  34   17   21 ar
  35   17   36 1
  36   18   19 ar
  37   18   22 1
  38   19   20 ar
  39   19   37 1
  40   20   21 ar
  41   20   38 1
  42   21   39 1
  43   24   40 1
  44   24   41 1
  45   24   42 1

#	End of record

