#	Name: ASD01141075
#	Creating user name:	WinNT
#	Creation time:	15. 06. 2019 19:01

#	Modifying user name:	WinNT
#	Modification time:	15. 06. 2019 19:01

#	Program:	/corina/corina34_cracker 3.40 0067  02.08.2006

@<TRIPOS>MOLECULE
ASD01141075
  52   53    0    0    0
SMALL
NO_CHARGES


@<TRIPOS>ATOM
   1 C1             0.1564     1.8282     0.7984 C.2     
   2 C2             0.1235     0.3700     0.6445 C.2     
   3 C3             0.4237     2.6893    -0.3732 C.ar    
   4 O4            -0.0414     2.3295     1.8896 O.2     
   5 C5             1.3372    -0.3537     0.2442 C.2     
   6 C6            -1.0495    -0.3229     0.8760 C.2     
   7 C7             0.6671     2.1170    -1.6234 C.ar    
   8 C8             0.4283     4.0796    -0.2358 C.ar    
   9 O9             1.3170    -1.5661     0.1428 O.2     
  10 N10            2.4733     0.3250    -0.0108 N.am    
  11 N11           -1.0530    -1.6723     0.8476 N.pl3   
  12 C12            0.9153     2.9259    -2.7122 C.ar    
  13 C13            0.6784     4.8776    -1.3354 C.ar    
  14 Cl14           0.1199     4.8024     1.3121 Cl      
  15 C15           -2.2105    -2.3758     1.1935 C.ar    
  16 C16            0.9237     4.3027    -2.5689 C.ar    
  17 C17           -3.3595    -1.6871     1.5612 C.ar    
  18 C18           -2.2155    -3.7646     1.1647 C.ar    
  19 C19           -4.5016    -2.3846     1.9020 C.ar    
  20 C20           -3.3605    -4.4569     1.5065 C.ar    
  21 C21           -4.5022    -3.7683     1.8775 C.ar    
  22 Cl22          -5.9396    -4.6418     2.3071 Cl      
  23 H23            2.5078     1.2839     0.1315 H       
  24 H24           -0.2524    -2.1540     0.5871 H       
  25 C25            3.6563    -0.3854    -0.5029 C.3     
  26 C26            4.6000     0.6069    -1.1852 C.3     
  27 C27            4.9778     1.7128    -0.1977 C.3     
  28 C28            5.8647    -0.1233    -1.6415 C.3     
  29 C29            6.7523     0.8398    -2.4325 C.3     
  30 C30            4.3773    -1.0500     0.6715 C.3     
  31 H31           -1.9634     0.2153     1.0798 H       
  32 H32            0.6613     1.0431    -1.7373 H       
  33 H33            1.1078     2.4839    -3.6787 H       
  34 H34            0.6821     5.9526    -1.2315 H       
  35 H35            1.1188     4.9310    -3.4254 H       
  36 H36           -3.3595    -0.6073     1.5809 H       
  37 H37           -1.3249    -4.3024     0.8749 H       
  38 H38           -5.3951    -1.8497     2.1884 H       
  39 H39           -3.3649    -5.5366     1.4842 H       
  40 H40            3.3504    -1.1475    -1.2197 H       
  41 H41            4.1022     1.0462    -2.0497 H       
  42 H42            5.7073     2.3784    -0.6593 H       
  43 H43            4.0867     2.2804     0.0705 H       
  44 H44            5.4086     1.2676     0.6991 H       
  45 H45            6.4092    -0.4863    -0.7698 H       
  46 H46            5.5889    -0.9665    -2.2748 H       
  47 H47            7.6533     0.3196    -2.7576 H       
  48 H48            6.2078     1.2028    -3.3042 H       
  49 H49            7.0281     1.6830    -1.7992 H       
  50 H50            3.7050    -1.7570     1.1575 H       
  51 H51            5.2574    -1.5786     0.3053 H       
  52 H52            4.6832    -0.2880     1.3883 H       
@<TRIPOS>BOND
   1    1    2 1
   2    1    3 1
   3    1    4 2
   4    2    5 1
   5    2    6 2
   6    3    7 ar
   7    3    8 ar
   8    5   10 am
   9    5    9 2
  10    6   11 1
  11    6   31 1
  12    7   12 ar
  13    7   32 1
  14    8   13 ar
  15    8   14 1
  16   10   23 1
  17   10   25 1
  18   11   24 1
  19   11   15 1
  20   12   16 ar
  21   12   33 1
  22   13   16 ar
  23   13   34 1
  24   15   18 ar
  25   15   17 ar
  26   16   35 1
  27   17   19 ar
  28   17   36 1
  29   18   20 ar
  30   18   37 1
  31   19   21 ar
  32   19   38 1
  33   20   21 ar
  34   20   39 1
  35   21   22 1
  36   25   26 1
  37   25   30 1
  38   25   40 1
  39   26   27 1
  40   26   28 1
  41   26   41 1
  42   27   42 1
  43   27   43 1
  44   27   44 1
  45   28   29 1
  46   28   45 1
  47   28   46 1
  48   29   47 1
  49   29   48 1
  50   29   49 1
  51   30   50 1
  52   30   51 1
  53   30   52 1

#	End of record

