#	Name: ASD08520003
#	Creating user name:	WinNT
#	Creation time:	15. 06. 2019 21:19

#	Modifying user name:	WinNT
#	Modification time:	15. 06. 2019 21:19

#	Program:	/corina/corina34_cracker 3.40 0067  02.08.2006

@<TRIPOS>MOLECULE
ASD08520003
  65   68    0    0    0
SMALL
NO_CHARGES


@<TRIPOS>ATOM
   1 C1            -0.0169     1.3937     0.0097 C.ar    
   2 C2             0.0021    -0.0041     0.0020 C.ar    
   3 C3            -1.1539    -0.7205     0.0087 C.ar    
   4 C4            -2.3910    -0.0522     0.0241 C.ar    
   5 C5            -2.4102     1.3652     0.0324 C.ar    
   6 C6            -1.2004     2.0762     0.0303 C.ar    
   7 N7            -3.5412    -0.7335     0.0304 N.ar    
   8 C8            -4.6984    -0.1184     0.0444 C.ar    
   9 C9            -4.7891     1.2743     0.0532 C.ar    
  10 C10           -3.6503     2.0313     0.0478 C.ar    
  11 O11            1.1551     2.0815     0.0022 O.3     
  12 C12            2.3590     1.3118    -0.0134 C.3     
  13 C13           -3.7207     3.5366     0.0576 C.3     
  14 C14           -4.1298     4.0371    -1.3291 C.3     
  15 F15           -5.9999     1.8735     0.0676 F       
  16 O16           -4.6862     3.9620     1.0214 O.3     
  17 C17           -4.0806     5.5661    -1.3546 C.3     
  18 C18           -4.4896     6.0665    -2.7413 C.3     
  19 C19           -4.5616     7.5960    -2.7327 C.3     
  20 C20           -3.1752     8.1653    -2.4231 C.3     
  21 N21           -2.2188     7.7081    -3.4393 N.3     
  22 C22           -2.0975     6.2447    -3.4340 C.3     
  23 C23           -3.4516     5.6180    -3.7739 C.3     
  24 C24           -5.5382     8.0478    -1.6776 C.2     
  25 O25           -5.7642     9.3574    -1.4891 O.3     
  26 O26           -6.1176     7.2311    -1.0014 O.2     
  27 C27           -0.9084     8.3457    -3.2535 C.3     
  28 C28            0.1212     7.6689    -4.1606 C.3     
  29 S29            1.7393     8.4562    -3.9313 S.3     
  30 C30            2.8074     7.5329    -5.0702 C.3     
  31 S31            2.3002     7.8007    -6.8072 S.o     
  32 C32            3.6233     8.4652    -7.3047 C.2     
  33 C33            4.5202     8.5532    -6.3050 C.2     
  34 C34            4.2170     8.0979    -5.0732 C.2     
  35 H35            0.9492    -0.5230    -0.0098 H       
  36 H36           -1.1219    -1.8000     0.0019 H       
  37 H37           -1.2049     3.1562     0.0369 H       
  38 H38           -5.6054    -0.7046     0.0487 H       
  39 H39            3.2187     1.9819    -0.0180 H       
  40 H40            2.3968     0.6784     0.8729 H       
  41 H41            2.3798     0.6879    -0.9070 H       
  42 H42           -2.7439     3.9444     0.3175 H       
  43 H43           -3.4431     3.6390    -2.0762 H       
  44 H44           -5.1429     3.7024    -1.5519 H       
  45 H45           -5.5807     3.6356     0.8527 H       
  46 H46           -4.7672     5.9641    -0.6075 H       
  47 H47           -3.0674     5.9007    -1.1318 H       
  48 H48           -5.4654     5.6574    -3.0030 H       
  49 H49           -4.8906     7.9503    -3.7096 H       
  50 H50           -3.2199     9.2544    -2.4303 H       
  51 H51           -2.8527     7.8217    -1.4402 H       
  52 H52           -1.3594     5.9388    -4.1755 H       
  53 H53           -1.7800     5.9101    -2.4464 H       
  54 H54           -3.3650     4.5317    -3.7546 H       
  55 H55           -3.7632     5.9412    -4.7671 H       
  56 H56           -6.3991     9.5986    -0.8007 H       
  57 H57           -0.9791     9.4028    -3.5096 H       
  58 H58           -0.5989     8.2438    -2.2134 H       
  59 H59            0.1919     6.6118    -3.9045 H       
  60 H60           -0.1883     7.7709    -5.2008 H       
  61 H61            2.8121     6.4711    -4.8239 H       
  62 H62            2.3649     6.5654    -7.3352 H       
  63 H63            3.7951     8.8080    -8.3143 H       
  64 H64            5.4895     8.9917    -6.4912 H       
  65 H65            4.8763     8.1301    -4.2183 H       
@<TRIPOS>BOND
   1    1    2 ar
   2    1   11 1
   3    1    6 ar
   4    2    3 ar
   5    2   35 1
   6    3    4 ar
   7    3   36 1
   8    4    5 ar
   9    4    7 ar
  10    5    6 ar
  11    5   10 ar
  12    6   37 1
  13    7    8 ar
  14    8    9 ar
  15    8   38 1
  16    9   10 ar
  17    9   15 1
  18   10   13 1
  19   11   12 1
  20   12   39 1
  21   12   40 1
  22   12   41 1
  23   13   14 1
  24   13   16 1
  25   13   42 1
  26   14   17 1
  27   14   43 1
  28   14   44 1
  29   16   45 1
  30   17   18 1
  31   17   46 1
  32   17   47 1
  33   18   19 1
  34   18   23 1
  35   18   48 1
  36   19   20 1
  37   19   24 1
  38   19   49 1
  39   20   21 1
  40   20   50 1
  41   20   51 1
  42   21   22 1
  43   21   27 1
  44   22   23 1
  45   22   52 1
  46   22   53 1
  47   23   54 1
  48   23   55 1
  49   24   25 1
  50   24   26 2
  51   25   56 1
  52   27   28 1
  53   27   57 1
  54   27   58 1
  55   28   29 1
  56   28   59 1
  57   28   60 1
  58   29   30 1
  59   30   31 1
  60   30   34 1
  61   30   61 1
  62   31   32 2
  63   31   62 1
  64   32   33 1
  65   32   63 1
  66   33   34 2
  67   33   64 1
  68   34   65 1

#	End of record

