#	Name: ASD01948117
#	Creating user name:	WinNT
#	Creation time:	15. 06. 2019 20:13

#	Modifying user name:	WinNT
#	Modification time:	15. 06. 2019 20:13

#	Program:	/corina/corina34_cracker 3.40 0067  02.08.2006

@<TRIPOS>MOLECULE
ASD01948117
  42   44    0    0    0
SMALL
NO_CHARGES


@<TRIPOS>ATOM
   1 C1             1.7974     1.4185    -1.0539 C.ar    
   2 C2             1.6014     0.0444    -1.1478 C.ar    
   3 C3             1.7842    -0.5978    -2.3646 C.ar    
   4 C4             2.1600     0.1286    -3.4784 C.ar    
   5 C5             2.3546     1.4939    -3.3828 C.ar    
   6 C6             2.1677     2.1396    -2.1739 C.ar    
   7 N7             1.2214    -0.6885    -0.0183 N.pl3   
   8 C8             3.6309    -2.2827    -0.4439 C.2     
   9 C9             2.3512    -2.8724    -0.2932 C.2     
  10 C10            1.1512    -2.0657    -0.0805 C.2     
  11 C11            6.0295    -2.5393    -0.8029 C.3     
  12 N12            4.6873    -3.1039    -0.6423 N.am    
  13 F13            1.6207     2.0481     0.1283 F       
  14 C14            2.2374    -4.2688    -0.3498 C.2     
  15 N15            1.0109    -4.8543    -0.2060 N.am    
  16 C16           -0.0982    -4.1218    -0.0101 C.2     
  17 C17           -0.0595    -2.7264     0.0571 C.2     
  18 C18            4.5103    -4.4450    -0.6926 C.2     
  19 N19            3.3403    -5.0045    -0.5446 N.2     
  20 O20            3.7744    -1.0736    -0.4012 O.2     
  21 C21            0.9031    -6.3140    -0.2668 C.3     
  22 O22           -1.1705    -4.6914     0.1122 O.2     
  23 C23            6.7015    -2.4237     0.5668 C.3     
  24 O24            6.9033    -3.7299     1.1101 O.3     
  25 C25           -1.3282    -1.9437     0.2783 C.3     
  26 H26            1.6332    -1.6645    -2.4408 H       
  27 H27            2.3022    -0.3712    -4.4252 H       
  28 H28            2.6490     2.0584    -4.2552 H       
  29 H29            2.3202     3.2064    -2.1027 H       
  30 H30            1.0072    -0.2289     0.8087 H       
  31 H31            6.6230    -3.1901    -1.4450 H       
  32 H32            5.9560    -1.5507    -1.2561 H       
  33 H33            5.3715    -5.0767    -0.8525 H       
  34 H34            1.0208    -6.7291     0.7342 H       
  35 H35           -0.0746    -6.5900    -0.6619 H       
  36 H36            1.6828    -6.7091    -0.9179 H       
  37 H37            7.6634    -1.9226     0.4585 H       
  38 H38            6.0643    -1.8462     1.2365 H       
  39 H39            7.3263    -3.7332     1.9797 H       
  40 H40           -2.1803    -2.6234     0.2715 H       
  41 H41           -1.2777    -1.4341     1.2405 H       
  42 H42           -1.4443    -1.2075    -0.5171 H       
@<TRIPOS>BOND
   1    1    2 ar
   2    1   13 1
   3    1    6 ar
   4    2    3 ar
   5    2    7 1
   6    3    4 ar
   7    3   26 1
   8    4    5 ar
   9    4   27 1
  10    5    6 ar
  11    5   28 1
  12    6   29 1
  13    7   10 1
  14    7   30 1
  15    8    9 1
  16    8   20 2
  17    8   12 am
  18    9   10 1
  19    9   14 2
  20   10   17 2
  21   11   12 1
  22   11   23 1
  23   11   31 1
  24   11   32 1
  25   12   18 1
  26   14   15 1
  27   14   19 1
  28   15   16 am
  29   15   21 1
  30   16   17 1
  31   16   22 2
  32   17   25 1
  33   18   19 2
  34   18   33 1
  35   21   34 1
  36   21   35 1
  37   21   36 1
  38   23   24 1
  39   23   37 1
  40   23   38 1
  41   24   39 1
  42   25   40 1
  43   25   41 1
  44   25   42 1

#	End of record

