#	Name: ASD01820090
#	Creating user name:	WinNT
#	Creation time:	15. 06. 2019 19:36

#	Modifying user name:	WinNT
#	Modification time:	15. 06. 2019 19:36

#	Program:	/corina/corina34_cracker 3.40 0067  02.08.2006

@<TRIPOS>MOLECULE
ASD01820090
  46   48    0    0    0
SMALL
NO_CHARGES


@<TRIPOS>ATOM
   1 C1            -0.0166     1.3759     0.0096 C.ar    
   2 C2             0.0021    -0.0041     0.0020 C.ar    
   3 C3             1.2078    -0.6819    -0.0127 C.ar    
   4 C4             2.4007     0.0182    -0.0203 C.ar    
   5 C5             2.3939     1.3983    -0.0133 C.ar    
   6 C6             1.1822     2.0864     0.0020 C.ar    
   7 C7             1.1685     3.5698     0.0096 C.ar    
   8 C8             2.3720     4.2720     0.0019 C.ar    
   9 C9             2.3432     5.6557     0.0086 C.ar    
  10 C10            1.1103     6.2926     0.0229 C.ar    
  11 C11           -0.0450     5.5333     0.0299 C.ar    
  12 N12            0.0105     4.2169     0.0181 N.ar    
  13 C13            1.2217    -2.1888    -0.0199 C.3     
  14 C14           -1.3861     6.2206     0.0455 C.3     
  15 C15            3.6221     6.4528     0.0012 C.3     
  16 C16            4.0010     6.8225     1.4367 C.3     
  17 C17            4.5174     5.9089     3.6209 C.3     
  18 N18            4.1924     5.5973     2.2232 N.3     
  19 C19            5.2991     7.6331     1.4288 C.3     
  20 C20            5.6850     7.9836     2.8685 C.3     
  21 C21            5.8308     6.6922     3.6782 C.3     
  22 F22           -1.8132     6.4395    -1.2687 F       
  23 F23           -2.3160     5.4136     0.7097 F       
  24 F24           -1.2741     7.4467     0.7097 F       
  25 F25            1.2134    -2.6489    -1.3411 F       
  26 F26            2.3745    -2.6476     0.6265 F       
  27 F27            0.0901    -2.6689     0.6482 F       
  28 O28            3.4358     7.6450    -0.7644 O.3     
  29 H29           -0.9586     1.9042     0.0169 H       
  30 H30           -0.9264    -0.5557     0.0079 H       
  31 H31            3.3392    -0.5161    -0.0314 H       
  32 H32            3.3259     1.9440    -0.0189 H       
  33 H33            3.3140     3.7439    -0.0089 H       
  34 H34            1.0538     7.3711     0.0289 H       
  35 H35            4.4193     5.8566    -0.4430 H       
  36 H36            3.2036     7.4183     1.8808 H       
  37 H37            3.7175     6.5089     4.0547 H       
  38 H38            4.6225     4.9819     4.1847 H       
  39 H39            3.3813     4.9999     2.1651 H       
  40 H40            6.0938     7.0431     0.9723 H       
  41 H41            5.1520     8.5500     0.8580 H       
  42 H42            6.6317     8.5237     2.8706 H       
  43 H43            4.9083     8.6062     3.3125 H       
  44 H44            6.0637     6.9369     4.7146 H       
  45 H45            6.6339     6.0874     3.2572 H       
  46 H46            2.7400     8.2250    -0.4260 H       
@<TRIPOS>BOND
   1    1    2 ar
   2    1    6 ar
   3    1   29 1
   4    2    3 ar
   5    2   30 1
   6    3    4 ar
   7    3   13 1
   8    4    5 ar
   9    4   31 1
  10    5    6 ar
  11    5   32 1
  12    6    7 1
  13    7    8 ar
  14    7   12 ar
  15    8    9 ar
  16    8   33 1
  17    9   10 ar
  18    9   15 1
  19   10   11 ar
  20   10   34 1
  21   11   12 ar
  22   11   14 1
  23   13   25 1
  24   13   26 1
  25   13   27 1
  26   14   22 1
  27   14   23 1
  28   14   24 1
  29   15   28 1
  30   15   16 1
  31   15   35 1
  32   16   18 1
  33   16   19 1
  34   16   36 1
  35   17   18 1
  36   17   21 1
  37   17   37 1
  38   17   38 1
  39   18   39 1
  40   19   20 1
  41   19   40 1
  42   19   41 1
  43   20   21 1
  44   20   42 1
  45   20   43 1
  46   21   44 1
  47   21   45 1
  48   28   46 1

#	End of record

