#	Name: ASD01410194
#	Creating user name:	WinNT
#	Creation time:	15. 06. 2019 19:16

#	Modifying user name:	WinNT
#	Modification time:	15. 06. 2019 19:16

#	Program:	/corina/corina34_cracker 3.40 0067  02.08.2006

@<TRIPOS>MOLECULE
ASD01410194
  42   45    0    0    0
SMALL
NO_CHARGES


@<TRIPOS>ATOM
   1 C1            -0.0170     1.4057     0.0098 C.ar    
   2 C2             0.0021    -0.0041     0.0020 C.ar    
   3 C3            -1.1996    -0.7092     0.0101 C.ar    
   4 C4            -2.3884    -0.0417     0.0254 C.ar    
   5 C5            -2.4219     1.3603     0.0333 C.ar    
   6 C6            -1.2337     2.0857     0.0301 C.ar    
   7 C7             1.3819     1.8345    -0.0013 C.2     
   8 C8             2.1380     0.7093    -0.0145 C.2     
   9 N9             1.3200    -0.3965    -0.0127 N.pl3   
  10 C10           -3.7169     2.0668     0.0494 C.2     
  11 O11           -3.7462     3.2814     0.0562 O.2     
  12 O12           -4.8671     1.3650     0.0566 O.3     
  13 C13            5.7619     1.1152    -0.5351 C.2     
  14 O14            5.7017     0.1632     0.4085 O.3     
  15 C15            4.4283    -0.1136     0.7245 C.2     
  16 C16            3.6170     0.6760    -0.0296 C.2     
  17 C17            4.5135     1.4878    -0.8622 C.2     
  18 C18            1.1488    -2.5872     1.1386 C.3     
  19 C19            1.2083    -4.0541     0.6647 C.3     
  20 C20            1.2781    -4.0171    -0.8720 C.3     
  21 C21            1.2586    -2.5291    -1.2784 C.3     
  22 C22            1.7840    -1.7861    -0.0250 C.3     
  23 C23            1.8856     3.2548     0.0015 C.3     
  24 H24           -1.1894    -1.7892     0.0038 H       
  25 H25           -3.3139    -0.5984     0.0312 H       
  26 H26           -1.2544     3.1655     0.0362 H       
  27 H27           -5.6905     1.8719     0.0671 H       
  28 H28            6.6685     1.5201    -0.9599 H       
  29 H29            4.1022    -0.8404     1.4537 H       
  30 H30            4.2274     2.2331    -1.5895 H       
  31 H31            0.1151    -2.2784     1.2947 H       
  32 H32            1.7288    -2.4576     2.0523 H       
  33 H33            2.0967    -4.5407     1.0673 H       
  34 H34            0.3129    -4.5866     0.9851 H       
  35 H35            2.2004    -4.4858    -1.2152 H       
  36 H36            0.4166    -4.5317    -1.2974 H       
  37 H37            1.9187    -2.3571    -2.1285 H       
  38 H38            0.2427    -2.2109    -1.5126 H       
  39 H39            2.8721    -1.8289     0.0216 H       
  40 H40            2.0173     3.5916     1.0298 H       
  41 H41            2.8407     3.3026    -0.5216 H       
  42 H42            1.1632     3.8975    -0.5016 H       
@<TRIPOS>BOND
   1    1    2 ar
   2    1    7 1
   3    1    6 ar
   4    2    3 ar
   5    2    9 1
   6    3    4 ar
   7    3   24 1
   8    4    5 ar
   9    4   25 1
  10    5    6 ar
  11    5   10 1
  12    6   26 1
  13    7    8 2
  14    7   23 1
  15    8    9 1
  16    8   16 1
  17    9   22 1
  18   10   11 2
  19   10   12 1
  20   12   27 1
  21   13   14 1
  22   13   17 2
  23   13   28 1
  24   14   15 1
  25   15   16 2
  26   15   29 1
  27   16   17 1
  28   17   30 1
  29   18   19 1
  30   18   22 1
  31   18   31 1
  32   18   32 1
  33   19   20 1
  34   19   33 1
  35   19   34 1
  36   20   21 1
  37   20   35 1
  38   20   36 1
  39   21   22 1
  40   21   37 1
  41   21   38 1
  42   22   39 1
  43   23   40 1
  44   23   41 1
  45   23   42 1

#	End of record

