#	Name: ASD01680047
#	Creating user name:	WinNT
#	Creation time:	15. 06. 2019 19:22

#	Modifying user name:	WinNT
#	Modification time:	15. 06. 2019 19:22

#	Program:	/corina/corina34_cracker 3.40 0067  02.08.2006

@<TRIPOS>MOLECULE
ASD01680047
  89   93    0    0    0
SMALL
NO_CHARGES


@<TRIPOS>ATOM
   1 N1            -0.0991    -0.8025    -0.1398 N.am    
   2 C2             0.1600    -2.2387    -0.3481 C.3     
   3 C3             1.5872    -2.4690     0.2083 C.3     
   4 C4             2.3008    -1.1568    -0.2118 C.3     
   5 C5             1.1886    -0.0968    -0.0666 C.3     
   6 C6            -1.3152    -0.2302    -0.0390 C.2     
   7 O7            -2.3164    -0.8963    -0.2132 O.2     
   8 O8            -1.4206     1.0795     0.2546 O.3     
   9 O9             3.3904    -0.8701     0.6672 O.3     
  10 C10            4.4643    -0.1585     0.0487 C.3     
  11 C11            5.5523     0.0887     1.0618 C.2     
  12 N12            6.6712     0.7480     0.7016 N.am    
  13 O13            5.4209    -0.3056     2.2011 O.2     
  14 C14            7.7289     0.9883     1.6864 C.3     
  15 C15            8.8787     1.7502     1.0242 C.3     
  16 N16            8.3627     2.9761     0.4103 N.am    
  17 S17            9.0198     3.5341    -1.0036 S.o2    
  18 O18            8.2896     4.7022    -1.3520 O.2     
  19 O19           10.4292     3.5237    -0.8227 O.2     
  20 C20            8.6693     2.3382    -2.2493 C.ar    
  21 C21            9.6205     1.3941    -2.5883 C.ar    
  22 C22            9.3455     0.4560    -3.5656 C.ar    
  23 C23            8.1192     0.4616    -4.2036 C.ar    
  24 C24            7.1677     1.4052    -3.8640 C.ar    
  25 C25            7.4411     2.3406    -2.8837 C.ar    
  26 C26            6.4020     3.3660    -2.5098 C.3     
  27 C27            7.8198    -0.5605    -5.2698 C.3     
  28 C28           10.9573     1.3880    -1.8927 C.3     
  29 C29            9.9107     2.1048     2.0636 C.2     
  30 O30           10.1868     3.2628     2.2703 O.2     
  31 O31           10.5232     1.1342     2.7598 O.3     
  32 C32           -0.8558    -3.0809     0.4265 C.3     
  33 N33           -0.8524    -2.6769     1.8347 N.pl3   
  34 C34           -1.7588    -3.2319     2.7133 C.2     
  35 N35           -1.8439    -2.9439     3.9881 N.2     
  36 C36           -2.8431    -3.6705     4.5544 C.ar    
  37 C37           -3.4063    -4.4608     3.5386 C.ar    
  38 N38           -2.7050    -4.1592     2.3826 N.pl3   
  39 C39           -3.3531    -3.7530     5.8521 C.ar    
  40 C40           -4.4001    -4.6059     6.1227 C.ar    
  41 C41           -4.9518    -5.3841     5.1163 C.ar    
  42 C42           -4.4594    -5.3141     3.8290 C.ar    
  43 C43           -2.7617     1.6284     0.3472 C.3     
  44 C44           -2.6819     3.0959     0.6809 C.ar    
  45 C45           -2.6178     4.0328    -0.3335 C.ar    
  46 C46           -2.5446     5.3789    -0.0274 C.ar    
  47 C47           -2.5358     5.7880     1.2930 C.ar    
  48 C48           -2.6008     4.8511     2.3073 C.ar    
  49 C49           -2.6784     3.5053     2.0012 C.ar    
  50 H50            0.1233    -2.4807    -1.4103 H       
  51 H51            1.5713    -2.5750     1.2930 H       
  52 H52            2.0543    -3.3351    -0.2605 H       
  53 H53            2.6430    -1.2177    -1.2449 H       
  54 H54            1.2602     0.6289    -0.8767 H       
  55 H55            1.2807     0.4077     0.8951 H       
  56 H56            4.8634    -0.7484    -0.7764 H       
  57 H57            4.0974     0.7952    -0.3305 H       
  58 H58            6.7763     1.0633    -0.2097 H       
  59 H59            7.3298     1.5782     2.5116 H       
  60 H60            8.0958     0.0346     2.0656 H       
  61 H61            9.3354     1.1242     0.2576 H       
  62 H62            7.6361     3.4610     0.8320 H       
  63 H63           10.0889    -0.2812    -3.8309 H       
  64 H64            6.2098     1.4098    -4.3628 H       
  65 H65            6.5757     4.2820    -3.0746 H       
  66 H66            5.4097     2.9789    -2.7416 H       
  67 H67            6.4688     3.5788    -1.4429 H       
  68 H68            7.3727    -1.4428    -4.8119 H       
  69 H69            7.1256    -0.1363    -5.9951 H       
  70 H70            8.7447    -0.8417    -5.7735 H       
  71 H71           10.8337     1.0287    -0.8711 H       
  72 H72           11.6426     0.7311    -2.4284 H       
  73 H73           11.3626     2.3997    -1.8755 H       
  74 H74           11.1778     1.4106     3.4156 H       
  75 H75           -1.8500    -2.9276     0.0069 H       
  76 H76           -0.5876    -4.1346     0.3501 H       
  77 H77           -0.2126    -2.0191     2.1490 H       
  78 H78           -2.8563    -4.5380     1.5025 H       
  79 H79           -2.9275    -3.1503     6.6408 H       
  80 H80           -4.7940    -4.6694     7.1262 H       
  81 H81           -5.7721    -6.0496     5.3415 H       
  82 H82           -4.8940    -5.9222     3.0495 H       
  83 H83           -3.2735     1.5000    -0.6066 H       
  84 H84           -3.3143     1.1076     1.1291 H       
  85 H85           -2.6246     3.7132    -1.3651 H       
  86 H86           -2.4938     6.1109    -0.8199 H       
  87 H87           -2.4779     6.8396     1.5321 H       
  88 H88           -2.5936     5.1707     3.3389 H       
  89 H89           -2.7329     2.7735     2.7936 H       
@<TRIPOS>BOND
   1    1    2 1
   2    1    5 1
   3    1    6 am
   4    2    3 1
   5    2   32 1
   6    2   50 1
   7    3    4 1
   8    3   51 1
   9    3   52 1
  10    4    5 1
  11    4    9 1
  12    4   53 1
  13    5   54 1
  14    5   55 1
  15    6    7 2
  16    6    8 1
  17    8   43 1
  18    9   10 1
  19   10   11 1
  20   10   56 1
  21   10   57 1
  22   11   12 am
  23   11   13 2
  24   12   14 1
  25   12   58 1
  26   14   15 1
  27   14   59 1
  28   14   60 1
  29   15   16 1
  30   15   29 1
  31   15   61 1
  32   16   17 am
  33   16   62 1
  34   17   18 2
  35   17   19 2
  36   17   20 1
  37   20   21 ar
  38   20   25 ar
  39   21   22 ar
  40   21   28 1
  41   22   23 ar
  42   22   63 1
  43   23   24 ar
  44   23   27 1
  45   24   25 ar
  46   24   64 1
  47   25   26 1
  48   26   65 1
  49   26   66 1
  50   26   67 1
  51   27   68 1
  52   27   69 1
  53   27   70 1
  54   28   71 1
  55   28   72 1
  56   28   73 1
  57   29   30 2
  58   29   31 1
  59   31   74 1
  60   32   33 1
  61   32   75 1
  62   32   76 1
  63   33   34 1
  64   33   77 1
  65   34   35 2
  66   34   38 1
  67   35   36 1
  68   36   37 ar
  69   36   39 ar
  70   37   38 1
  71   37   42 ar
  72   38   78 1
  73   39   40 ar
  74   39   79 1
  75   40   41 ar
  76   40   80 1
  77   41   42 ar
  78   41   81 1
  79   42   82 1
  80   43   44 1
  81   43   83 1
  82   43   84 1
  83   44   45 ar
  84   44   49 ar
  85   45   46 ar
  86   45   85 1
  87   46   47 ar
  88   46   86 1
  89   47   48 ar
  90   47   87 1
  91   48   49 ar
  92   48   88 1
  93   49   89 1

#	End of record

