#	Name: ASD03430034
#	Creating user name:	WinNT
#	Creation time:	15. 06. 2019 20:40

#	Modifying user name:	WinNT
#	Modification time:	15. 06. 2019 20:40

#	Program:	/corina/corina34_cracker 3.40 0067  02.08.2006

@<TRIPOS>MOLECULE
ASD03430034
  46   51    0    0    0
SMALL
NO_CHARGES


@<TRIPOS>ATOM
   1 C1            -1.0527     1.5863     2.8429 C.ar    
   2 C2            -1.0207     0.3244     2.2699 C.ar    
   3 C3             0.0433    -0.0517     1.4776 C.ar    
   4 C4             1.1017     0.8231     1.2511 C.ar    
   5 C5             1.0643     2.0903     1.8240 C.ar    
   6 C6            -0.0049     2.4714     2.6169 C.ar    
   7 O7             2.0593     0.2482     0.4686 O.3     
   8 C8             0.3560    -1.3103     0.7137 C.3     
   9 C9             1.4925    -0.8804    -0.2243 C.3     
  10 C10           -0.1224    -3.4737     1.3515 C.ar    
  11 C11            0.7679    -2.4377     1.6126 C.ar    
  12 C12           -0.8310    -1.8238    -0.0497 C.2     
  13 N13           -1.0441    -3.0848     0.3761 N.am    
  14 O14           -1.4720    -1.2220    -0.8853 O.2     
  15 C15            1.7762    -2.5955     2.5533 C.ar    
  16 C16            1.8995    -3.8026     3.2423 C.ar    
  17 C17            1.0167    -4.8313     2.9823 C.ar    
  18 C18            0.0137    -4.6735     2.0470 C.ar    
  19 C19           -2.1168    -3.9473    -0.1257 C.3     
  20 O20           -2.1146     1.9445     3.6161 O.3     
  21 C21           -1.9342     3.0786     4.4714 C.3     
  22 C22           -1.2725     4.1960     3.6534 C.3     
  23 O23           -0.0139     3.7149     3.1715 O.3     
  24 C24            2.7202    -1.4844     2.8251 C.2     
  25 C25            2.5222    -0.5987     3.8164 C.2     
  26 S26            3.8574     0.5508     3.8063 S.3     
  27 C27            4.5745    -0.2893     2.4350 C.2     
  28 N28            3.8270    -1.2974     2.1073 N.2     
  29 N29            5.7564     0.0681     1.8067 N.pl3   
  30 H30           -1.8319    -0.3668     2.4450 H       
  31 H31            1.8755     2.7816     1.6494 H       
  32 H32            1.1000    -0.5807    -1.1960 H       
  33 H33            2.2280    -1.6776    -0.3319 H       
  34 H34            2.6822    -3.9315     3.9752 H       
  35 H35            1.1116    -5.7665     3.5140 H       
  36 H36           -0.6708    -5.4860     1.8529 H       
  37 H37           -3.0100    -3.8080     0.4833 H       
  38 H38           -2.3384    -3.6867    -1.1607 H       
  39 H39           -1.8001    -4.9890    -0.0732 H       
  40 H40           -2.9017     3.4176     4.8416 H       
  41 H41           -1.2931     2.8081     5.3104 H       
  42 H42           -1.9103     4.4613     2.8103 H       
  43 H43           -1.1150     5.0701     4.2853 H       
  44 H44            1.6874    -0.5925     4.5016 H       
  45 H45            6.2190     0.8793     2.0689 H       
  46 H46            6.1213    -0.4930     1.1045 H       
@<TRIPOS>BOND
   1    1    2 ar
   2    1    6 ar
   3    1   20 1
   4    2    3 ar
   5    2   30 1
   6    3    4 ar
   7    3    8 1
   8    4    5 ar
   9    4    7 1
  10    5    6 ar
  11    5   31 1
  12    6   23 1
  13    7    9 1
  14    8    9 1
  15    8   11 1
  16    8   12 1
  17    9   32 1
  18    9   33 1
  19   10   11 ar
  20   10   13 1
  21   10   18 ar
  22   11   15 ar
  23   12   13 am
  24   12   14 2
  25   13   19 1
  26   15   16 ar
  27   15   24 1
  28   16   17 ar
  29   16   34 1
  30   17   18 ar
  31   17   35 1
  32   18   36 1
  33   19   37 1
  34   19   38 1
  35   19   39 1
  36   20   21 1
  37   21   22 1
  38   21   40 1
  39   21   41 1
  40   22   23 1
  41   22   42 1
  42   22   43 1
  43   24   25 2
  44   24   28 1
  45   25   26 1
  46   25   44 1
  47   26   27 1
  48   27   28 2
  49   27   29 1
  50   29   45 1
  51   29   46 1

#	End of record

