#	Name: ASD01208991
#	Creating user name:	WinNT
#	Creation time:	15. 06. 2019 19:10

#	Modifying user name:	WinNT
#	Modification time:	15. 06. 2019 19:10

#	Program:	/corina/corina34_cracker 3.40 0067  02.08.2006

@<TRIPOS>MOLECULE
ASD01208991
  55   59    0    0    0
SMALL
NO_CHARGES


@<TRIPOS>ATOM
   1 C1            -2.0200     1.5036    -1.3071 C.3     
   2 C2            -2.1602    -0.0199    -1.2333 C.3     
   3 C3            -1.5614    -0.5259     0.0807 C.3     
   4 C4            -1.5372    -2.0557     0.0744 C.3     
   5 C5            -0.7772    -2.5510     1.2778 C.2     
   6 N6             0.5520    -2.3465     1.3663 N.am    
   7 C7             1.2715    -2.8978     2.4207 C.2     
   8 N8            -2.9097    -2.5660     0.1197 N.pl3   
   9 C9            -3.4283    -3.5270    -0.7084 C.ar    
  10 C10           -4.7696    -3.7145    -0.3217 C.ar    
  11 C11           -5.0074    -2.7995     0.7901 C.2     
  12 N12           -3.8991    -2.1549     1.0188 N.2     
  13 O13           -1.3616    -3.1336     2.1666 O.2     
  14 S14            2.9555    -2.7195     2.6557 S.3     
  15 C15            2.8662    -3.6982     4.1179 C.2     
  16 C16            1.5941    -4.0649     4.2934 C.2     
  17 N17            0.7621    -3.6167     3.3708 N.2     
  18 Cl18           4.1989    -4.1140     5.1496 Cl      
  19 C19           -3.6456    -0.3886    -1.2950 C.3     
  20 C20           -4.2541     0.1895    -2.5754 C.3     
  21 O21           -4.0622     1.6054    -2.5953 O.3     
  22 C22           -2.6912     2.0086    -2.5870 C.3     
  23 C23           -2.9093    -4.2753    -1.7618 C.ar    
  24 C24           -3.7022    -5.1809    -2.4082 C.ar    
  25 C25           -5.0254    -5.3672    -2.0282 C.ar    
  26 C26           -5.5610    -4.6487    -0.9986 C.ar    
  27 S27           -7.2408    -4.8943    -0.5266 S.o2    
  28 C28           -7.1443    -5.5759     1.1517 C.3     
  29 O29           -7.7930    -3.5853    -0.5022 O.2     
  30 O30           -7.7205    -5.8750    -1.4362 O.2     
  31 C31           -8.4528    -6.0146     1.8123 C.3     
  32 C32           -7.4506    -7.0645     1.3284 C.3     
  33 H33           -2.5016     1.9562    -0.4403 H       
  34 H34           -0.9637     1.7721    -1.3195 H       
  35 H35           -1.6349    -0.4755    -2.0727 H       
  36 H36           -0.5450    -0.1468     0.1865 H       
  37 H37           -2.1686    -0.1755     0.9153 H       
  38 H38           -1.0485    -2.4076    -0.8341 H       
  39 H39            1.0068    -1.8147     0.6945 H       
  40 H40           -5.9354    -2.6814     1.3298 H       
  41 H41            1.2714    -4.6747     5.1242 H       
  42 H42           -3.7519    -1.4734    -1.2987 H       
  43 H43           -4.1601     0.0257    -0.4280 H       
  44 H44           -3.7665    -0.2557    -3.4427 H       
  45 H45           -5.3207    -0.0333    -2.6037 H       
  46 H46           -2.6320     3.0964    -2.6237 H       
  47 H47           -2.1832     1.5873    -3.4545 H       
  48 H48           -1.8823    -4.1398    -2.0674 H       
  49 H49           -3.2954    -5.7588    -3.2249 H       
  50 H50           -5.6358    -6.0880    -2.5518 H       
  51 H51           -6.3783    -5.1398     1.7929 H       
  52 H52           -8.5474    -5.8674     2.8882 H       
  53 H53           -9.3715    -5.8936     1.2385 H       
  54 H54           -7.7101    -7.6343     0.4361 H       
  55 H55           -6.8859    -7.6081     2.0858 H       
@<TRIPOS>BOND
   1    1    2 1
   2    1   22 1
   3    1   33 1
   4    1   34 1
   5    2    3 1
   6    2   19 1
   7    2   35 1
   8    3    4 1
   9    3   36 1
  10    3   37 1
  11    4    5 1
  12    4    8 1
  13    4   38 1
  14    5    6 am
  15    5   13 2
  16    6    7 1
  17    6   39 1
  18    7   14 1
  19    7   17 2
  20    8    9 1
  21    8   12 1
  22    9   10 ar
  23    9   23 ar
  24   10   11 1
  25   10   26 ar
  26   11   12 2
  27   11   40 1
  28   14   15 1
  29   15   16 2
  30   15   18 1
  31   16   17 1
  32   16   41 1
  33   19   20 1
  34   19   42 1
  35   19   43 1
  36   20   21 1
  37   20   44 1
  38   20   45 1
  39   21   22 1
  40   22   46 1
  41   22   47 1
  42   23   24 ar
  43   23   48 1
  44   24   25 ar
  45   24   49 1
  46   25   26 ar
  47   25   50 1
  48   26   27 1
  49   27   28 1
  50   27   29 2
  51   27   30 2
  52   28   31 1
  53   28   32 1
  54   28   51 1
  55   31   32 1
  56   31   52 1
  57   31   53 1
  58   32   54 1
  59   32   55 1

#	End of record

