#	Name: ASD08150462
#	Creating user name:	WinNT
#	Creation time:	15. 06. 2019 21:16

#	Modifying user name:	WinNT
#	Modification time:	15. 06. 2019 21:16

#	Program:	/corina/corina34_cracker 3.40 0067  02.08.2006

@<TRIPOS>MOLECULE
ASD08150462
  61   64    0    0    0
SMALL
NO_CHARGES


@<TRIPOS>ATOM
   1 N1            -0.0179     1.4666     0.0101 N.am    
   2 C2             0.0021    -0.0041     0.0020 C.3     
   3 C3             0.9085    -0.4723    -1.1414 C.3     
   4 N4             2.2251     0.1660    -1.0110 N.3     
   5 C5             2.1249     1.6258    -1.1417 C.3     
   6 C6             1.2683     2.1800     0.0017 C.3     
   7 C7            -1.1838     2.1425     0.0194 C.2     
   8 O8            -2.2372     1.5369     0.0211 O.2     
   9 O9            -1.1814     3.4889     0.0267 O.3     
  10 C10            3.1764    -0.3856    -1.9851 C.3     
  11 C11            8.6323     2.0953    -1.0316 C.ar    
  12 N12            7.7464     1.1728    -0.7464 N.ar    
  13 C13            6.5516     1.1308    -1.3799 C.ar    
  14 C14            6.2933     2.1035    -2.3483 C.ar    
  15 C15            7.2754     3.0707    -2.6170 C.ar    
  16 N16            8.4181     3.0294    -1.9426 N.ar    
  17 C17            5.4828     0.2350    -1.2198 C.2     
  18 C18            4.4298     0.4510    -1.9923 C.2     
  19 S19            4.6925     1.8455    -3.0262 S.3     
  20 O20            6.7472     6.6857    -4.4934 O.3     
  21 C21            7.9547     5.9769    -4.7845 C.3     
  22 C22            8.2151     4.9483    -3.6808 C.3     
  23 N23            7.0558     4.0510    -3.5709 N.3     
  24 C24            5.8342     4.8125    -3.2723 C.3     
  25 C25            5.5977     5.8424    -4.3801 C.3     
  26 C26            5.5313    -0.9013    -0.2310 C.3     
  27 Cl27          10.1424     2.0953    -0.1754 Cl      
  28 C28           -2.4739     4.1504     0.0364 C.3     
  29 C29           -3.2505     3.7339     1.2872 C.3     
  30 C30           -2.2707     5.6668     0.0437 C.3     
  31 C31           -3.2625     3.7475    -1.2112 C.3     
  32 H32            0.3920    -0.3702     0.9518 H       
  33 H33           -1.0081    -0.3831    -0.1529 H       
  34 H34            1.0231    -1.5553    -1.0945 H       
  35 H35            0.4625    -0.1944    -2.0963 H       
  36 H36            3.1216     2.0644    -1.0951 H       
  37 H37            1.6619     1.8745    -2.0966 H       
  38 H38            1.0953     3.2449    -0.1535 H       
  39 H39            1.7799     2.0238     0.9514 H       
  40 H40            3.4252    -1.4105    -1.7096 H       
  41 H41            2.7268    -0.3752    -2.9780 H       
  42 H42            7.8550     5.4658    -5.7421 H       
  43 H43            8.7869     6.6793    -4.8311 H       
  44 H44            9.1034     4.3667    -3.9275 H       
  45 H45            8.3681     5.4631    -2.7323 H       
  46 H46            4.9844     4.1317    -3.2207 H       
  47 H47            5.9491     5.3251    -2.3172 H       
  48 H48            4.7251     6.4476    -4.1342 H       
  49 H49            5.4294     5.3274    -5.3259 H       
  50 H50            5.1390    -0.5648     0.7287 H       
  51 H51            4.9272    -1.7301    -0.6001 H       
  52 H52            6.5628    -1.2308    -0.1065 H       
  53 H53           -2.6887     4.0209     2.1760 H       
  54 H54           -4.2208     4.2305     1.2945 H       
  55 H55           -3.3953     2.6536     1.2820 H       
  56 H56           -1.7174     5.9635    -0.8473 H       
  57 H57           -3.2410     6.1634     0.0511 H       
  58 H58           -1.7089     5.9538     0.9326 H       
  59 H59           -3.4073     2.6671    -1.2164 H       
  60 H60           -4.2328     4.2440    -1.2039 H       
  61 H61           -2.7092     4.0442    -2.1023 H       
@<TRIPOS>BOND
   1    1    2 1
   2    1    6 1
   3    1    7 am
   4    2    3 1
   5    2   32 1
   6    2   33 1
   7    3    4 1
   8    3   34 1
   9    3   35 1
  10    4    5 1
  11    4   10 1
  12    5    6 1
  13    5   36 1
  14    5   37 1
  15    6   38 1
  16    6   39 1
  17    7    8 2
  18    7    9 1
  19    9   28 1
  20   10   18 1
  21   10   40 1
  22   10   41 1
  23   11   12 ar
  24   11   16 ar
  25   11   27 1
  26   12   13 ar
  27   13   14 ar
  28   13   17 1
  29   14   15 ar
  30   14   19 1
  31   15   16 ar
  32   15   23 1
  33   17   18 2
  34   17   26 1
  35   18   19 1
  36   20   21 1
  37   20   25 1
  38   21   22 1
  39   21   42 1
  40   21   43 1
  41   22   23 1
  42   22   44 1
  43   22   45 1
  44   23   24 1
  45   24   25 1
  46   24   46 1
  47   24   47 1
  48   25   48 1
  49   25   49 1
  50   26   50 1
  51   26   51 1
  52   26   52 1
  53   28   29 1
  54   28   31 1
  55   28   30 1
  56   29   53 1
  57   29   54 1
  58   29   55 1
  59   30   56 1
  60   30   57 1
  61   30   58 1
  62   31   59 1
  63   31   60 1
  64   31   61 1

#	End of record

