#	Name: ASD01120104
#	Creating user name:	WinNT
#	Creation time:	15. 06. 2019 18:59

#	Modifying user name:	WinNT
#	Modification time:	15. 06. 2019 18:59

#	Program:	/corina/corina34_cracker 3.40 0067  02.08.2006

@<TRIPOS>MOLECULE
ASD01120104
  37   39    0    0    0
SMALL
NO_CHARGES


@<TRIPOS>ATOM
   1 C1            -0.0128     1.2597     0.7137 C.ar    
   2 C2            -1.1219     1.5458     1.4886 C.ar    
   3 C3            -2.3122     0.8821     1.2651 C.ar    
   4 C4            -2.3946    -0.0739     0.2605 C.ar    
   5 C5            -1.2785    -0.3588    -0.5161 C.ar    
   6 C6            -0.0929     0.3127    -0.2909 C.ar    
   7 N7            -3.5974    -0.7477     0.0319 N.pl3   
   8 C8            -4.8030    -0.0739     0.1517 C.2     
   9 N9            -5.9780    -0.6198     0.0783 N.2     
  10 C10           -7.0240     0.1836     0.2176 C.2     
  11 C11           -6.7324     1.4800     0.4200 C.2     
  12 S12           -4.9790     1.6553     0.4348 S.3     
  13 C13           -8.4197    -0.3142     0.1538 C.ar    
  14 C14           -8.6704    -1.6734    -0.0590 C.ar    
  15 C15           -9.9753    -2.1319    -0.1176 C.ar    
  16 C16          -11.0302    -1.2442     0.0342 C.ar    
  17 C17          -10.7821     0.1055     0.2455 C.ar    
  18 C18           -9.4847     0.5701     0.3115 C.ar    
  19 S19            1.5039     2.1088     1.0023 S.o2    
  20 N20            2.3568     1.2250     2.1130 N.am    
  21 O21            2.2382     2.0427    -0.2125 O.2     
  22 O22            1.1636     3.3327     1.6391 O.2     
  23 O23          -12.3104    -1.6967    -0.0246 O.3     
  24 O24           -7.6359    -2.5416    -0.2084 O.3     
  25 H25           -1.0570     2.2888     2.2697 H       
  26 H26           -3.1778     1.1057     1.8709 H       
  27 H27           -1.3391    -1.1017    -1.2977 H       
  28 H28            0.7750     0.0919    -0.8945 H       
  29 H29           -3.5887    -1.6869    -0.2105 H       
  30 H30           -7.4492     2.2766     0.5542 H       
  31 H31          -10.1720    -3.1811    -0.2818 H       
  32 H32          -11.6069     0.7928     0.3627 H       
  33 H33           -9.2948     1.6205     0.4759 H       
  34 H34            3.3267     1.2368     2.1007 H       
  35 H35            1.8866     0.6956     2.7759 H       
  36 H36          -12.6720    -1.9663     0.8308 H       
  37 H37           -7.3267    -2.9314     0.6208 H       
@<TRIPOS>BOND
   1    1    2 ar
   2    1   19 1
   3    1    6 ar
   4    2    3 ar
   5    2   25 1
   6    3    4 ar
   7    3   26 1
   8    4    5 ar
   9    4    7 1
  10    5    6 ar
  11    5   27 1
  12    6   28 1
  13    7    8 1
  14    7   29 1
  15    8    9 2
  16    8   12 1
  17    9   10 1
  18   10   11 2
  19   10   13 1
  20   11   12 1
  21   11   30 1
  22   13   14 ar
  23   13   18 ar
  24   14   15 ar
  25   14   24 1
  26   15   16 ar
  27   15   31 1
  28   16   17 ar
  29   16   23 1
  30   17   18 ar
  31   17   32 1
  32   18   33 1
  33   19   20 am
  34   19   21 2
  35   19   22 2
  36   20   34 1
  37   20   35 1
  38   23   36 1
  39   24   37 1

#	End of record

