#	Name: ASD03200061
#	Creating user name:	WinNT
#	Creation time:	15. 06. 2019 20:34

#	Modifying user name:	WinNT
#	Modification time:	15. 06. 2019 20:34

#	Program:	/corina/corina34_cracker 3.40 0067  02.08.2006

@<TRIPOS>MOLECULE
ASD03200061
  50   53    0    0    0
SMALL
NO_CHARGES


@<TRIPOS>ATOM
   1 C1             0.9695    -1.0556    -0.1617 C.3     
   2 N2            -0.0202     0.0169     0.0014 N.3     
   3 C3             0.3176     0.8828     1.1383 C.3     
   4 C4             1.6711     1.5514     0.8875 C.3     
   5 C5             2.7425     0.4723     0.7078 C.3     
   6 C6             2.3425    -0.4449    -0.4513 C.3     
   7 C7            -1.3056    -0.5056     0.1360 C.ar    
   8 C8            -2.0104    -0.3715     1.3296 C.ar    
   9 C9            -3.2808    -0.9028     1.4234 C.ar    
  10 N10           -3.8310    -1.5317     0.4021 N.ar    
  11 C11           -3.2004    -1.6823    -0.7475 C.ar    
  12 C12           -1.9246    -1.1741    -0.9270 C.ar    
  13 N13           -1.2591    -1.3366    -2.1497 N.am    
  14 C14           -1.4428    -2.4590    -2.8728 C.2     
  15 C15           -0.6764    -2.6712    -4.1033 C.2     
  16 O16           -2.2455    -3.2966    -2.5035 O.2     
  17 C17           -0.8907    -3.7447    -4.9396 C.2     
  18 S18            0.2343    -3.6168    -6.2895 S.3     
  19 C19            0.8933    -2.1325    -5.6114 C.2     
  20 N20            0.2823    -1.8382    -4.5093 N.2     
  21 C21            1.9822    -1.3358    -6.2150 C.ar    
  22 N22           -1.8229    -4.7455    -4.7524 N.pl3   
  23 N23            2.0184     2.4011     2.0344 N.3     
  24 C24            2.6399    -1.7983    -7.3554 C.ar    
  25 C25            3.6556    -1.0500    -7.9141 C.ar    
  26 C26            4.0239     0.1569    -7.3467 C.ar    
  27 C27            3.3778     0.6229    -6.2159 C.ar    
  28 C28            2.3542    -0.1127    -5.6494 C.ar    
  29 F29            3.2889    -1.4663    -0.5866 F       
  30 F30            1.7234     0.3428    -4.5449 F       
  31 H31            1.0200    -1.6453     0.7537 H       
  32 H32            0.6754    -1.6981    -0.9916 H       
  33 H33           -0.4500     1.6483     1.2524 H       
  34 H34            0.3712     0.2840     2.0475 H       
  35 H35            1.6142     2.1614    -0.0141 H       
  36 H36            3.7002     0.9432     0.4859 H       
  37 H37            2.8268    -0.1133     1.6233 H       
  38 H38            2.2962     0.1337    -1.3739 H       
  39 H39           -1.5685     0.1412     2.1712 H       
  40 H40           -3.8326    -0.8026     2.3463 H       
  41 H41           -3.6863    -2.2041    -1.5587 H       
  42 H42           -0.6664    -0.6413    -2.4754 H       
  43 H43           -2.4009    -4.7304    -3.9736 H       
  44 H44           -1.8998    -5.4638    -5.3997 H       
  45 H45            2.9438     2.7895     1.9296 H       
  46 H46            1.3330     3.1300     2.1651 H       
  47 H47            2.3546    -2.7404    -7.7997 H       
  48 H48            4.1648    -1.4076    -8.7968 H       
  49 H49            4.8199     0.7378    -7.7886 H       
  50 H50            3.6707     1.5655    -5.7776 H       
@<TRIPOS>BOND
   1    1    2 1
   2    1    6 1
   3    1   31 1
   4    1   32 1
   5    2    3 1
   6    2    7 1
   7    3    4 1
   8    3   33 1
   9    3   34 1
  10    4    5 1
  11    4   23 1
  12    4   35 1
  13    5    6 1
  14    5   36 1
  15    5   37 1
  16    6   29 1
  17    6   38 1
  18    7    8 ar
  19    7   12 ar
  20    8    9 ar
  21    8   39 1
  22    9   10 ar
  23    9   40 1
  24   10   11 ar
  25   11   12 ar
  26   11   41 1
  27   12   13 1
  28   13   14 am
  29   13   42 1
  30   14   15 1
  31   14   16 2
  32   15   17 2
  33   15   20 1
  34   17   18 1
  35   17   22 1
  36   18   19 1
  37   19   20 2
  38   19   21 1
  39   21   24 ar
  40   21   28 ar
  41   22   43 1
  42   22   44 1
  43   23   45 1
  44   23   46 1
  45   24   25 ar
  46   24   47 1
  47   25   26 ar
  48   25   48 1
  49   26   27 ar
  50   26   49 1
  51   27   28 ar
  52   27   50 1
  53   28   30 1

#	End of record

