#	Name: ASD03331073
#	Creating user name:	WinNT
#	Creation time:	15. 06. 2019 20:38

#	Modifying user name:	WinNT
#	Modification time:	15. 06. 2019 20:38

#	Program:	/corina/corina34_cracker 3.40 0067  02.08.2006

@<TRIPOS>MOLECULE
ASD03331073
  63   65    0    0    0
SMALL
NO_CHARGES


@<TRIPOS>ATOM
   1 N1             0.0563     1.1537    -0.7736 N.pl3   
   2 C2             0.0612    -0.1789    -0.5038 C.2     
   3 C3             1.2826    -1.0105    -0.2105 C.3     
   4 N4             2.1154    -0.3114     0.7805 N.3     
   5 C5             3.0671     0.5919     0.1308 C.3     
   6 C6             2.4701     1.1924    -1.1387 C.3     
   7 C7             1.2345     2.0253    -0.7869 C.3     
   8 C8            -1.2369     1.5173    -1.0131 C.2     
   9 N9            -2.0013     0.4589    -0.8793 N.2     
  10 C10           -1.2308    -0.6047    -0.5622 C.2     
  11 C11           -1.7040    -1.9796    -0.3229 C.2     
  12 O12           -0.9089    -2.8564    -0.0433 O.2     
  13 N13           -3.0180    -2.2654    -0.4138 N.am    
  14 C14            2.8091    -1.2676     1.6537 C.3     
  15 C15           -4.7931    -3.8475    -0.8987 C.2     
  16 C16           -3.4885    -3.6323    -0.1758 C.3     
  17 C17           -3.6956    -3.8464     1.3249 C.3     
  18 C18           -4.7921    -2.9052     1.8278 C.3     
  19 O19           -5.4283    -2.8954    -1.3000 O.2     
  20 C20           -4.1113    -5.2964     1.5806 C.3     
  21 C21           -2.3905    -3.5515     2.0670 C.3     
  22 N22           -5.2541    -5.0980    -1.0993 N.am    
  23 C23           -6.5602    -5.3048    -1.7299 C.3     
  24 C24           -6.8421    -6.8046    -1.8389 C.3     
  25 F25           -5.8484    -7.4107    -2.6150 F       
  26 F26           -6.8464    -7.3725    -0.5603 F       
  27 C27           -1.6999     2.8773    -1.3643 C.ar    
  28 C28           -2.5998     3.0622    -2.4175 C.ar    
  29 C29           -3.0285     4.3361    -2.7398 C.ar    
  30 C30           -2.5688     5.4254    -2.0225 C.ar    
  31 C31           -1.6768     5.2483    -0.9784 C.ar    
  32 C32           -1.2449     3.9805    -0.6422 C.ar    
  33 F33           -3.0491     1.9987    -3.1190 F       
  34 Cl34          -1.1053     6.6229    -0.0855 Cl      
  35 H35            0.9775    -1.9782     0.1877 H       
  36 H36            1.8530    -1.1563    -1.1278 H       
  37 H37            3.3256     1.3958     0.8200 H       
  38 H38            3.9696     0.0370    -0.1256 H       
  39 H39            3.2112     1.8296    -1.6214 H       
  40 H40            2.1847     0.3904    -1.8195 H       
  41 H41            1.0993     2.8094    -1.5319 H       
  42 H42            1.3663     2.4750     0.1972 H       
  43 H43           -3.6522    -1.5661    -0.6367 H       
  44 H44            3.3950    -1.9564     1.0451 H       
  45 H45            3.4712    -0.7274     2.3305 H       
  46 H46            2.0759    -1.8283     2.2334 H       
  47 H47           -2.7473    -4.3411    -0.5451 H       
  48 H48           -5.7218    -3.1153     1.2991 H       
  49 H49           -4.9396    -3.0578     2.8969 H       
  50 H50           -4.4959    -1.8722     1.6456 H       
  51 H51           -3.3202    -5.9661     1.2431 H       
  52 H52           -4.2810    -5.4431     2.6473 H       
  53 H53           -5.0288    -5.5132     1.0336 H       
  54 H54           -2.0943    -2.5185     1.8848 H       
  55 H55           -2.5381    -3.7041     3.1362 H       
  56 H56           -1.6093    -4.2220     1.7087 H       
  57 H57           -4.7211    -5.8610    -0.8262 H       
  58 H58           -7.3345    -4.8326    -1.1252 H       
  59 H59           -6.5569    -4.8624    -2.7260 H       
  60 H60           -7.8139    -6.9585    -2.3080 H       
  61 H61           -3.7236     4.4810    -3.5535 H       
  62 H62           -2.9068     6.4188    -2.2782 H       
  63 H63           -0.5529     3.8438     0.1756 H       
@<TRIPOS>BOND
   1    1    2 1
   2    1    7 1
   3    1    8 1
   4    2    3 1
   5    2   10 2
   6    3    4 1
   7    3   35 1
   8    3   36 1
   9    4    5 1
  10    4   14 1
  11    5    6 1
  12    5   37 1
  13    5   38 1
  14    6    7 1
  15    6   39 1
  16    6   40 1
  17    7   41 1
  18    7   42 1
  19    8    9 2
  20    8   27 1
  21    9   10 1
  22   10   11 1
  23   11   12 2
  24   11   13 am
  25   13   16 1
  26   13   43 1
  27   14   44 1
  28   14   45 1
  29   14   46 1
  30   15   19 2
  31   15   22 am
  32   15   16 1
  33   16   17 1
  34   16   47 1
  35   17   18 1
  36   17   20 1
  37   17   21 1
  38   18   48 1
  39   18   49 1
  40   18   50 1
  41   20   51 1
  42   20   52 1
  43   20   53 1
  44   21   54 1
  45   21   55 1
  46   21   56 1
  47   22   23 1
  48   22   57 1
  49   23   24 1
  50   23   58 1
  51   23   59 1
  52   24   25 1
  53   24   26 1
  54   24   60 1
  55   27   28 ar
  56   27   32 ar
  57   28   29 ar
  58   28   33 1
  59   29   30 ar
  60   29   61 1
  61   30   31 ar
  62   30   62 1
  63   31   32 ar
  64   31   34 1
  65   32   63 1

#	End of record

