#	Name: ASD07300165
#	Creating user name:	WinNT
#	Creation time:	15. 06. 2019 21:09

#	Modifying user name:	WinNT
#	Modification time:	15. 06. 2019 21:09

#	Program:	/corina/corina34_cracker 3.40 0067  02.08.2006

@<TRIPOS>MOLECULE
ASD07300165
  68   72    0    0    0
SMALL
NO_CHARGES


@<TRIPOS>ATOM
   1 C1            -0.0118     1.4012    -0.1489 C.ar    
   2 C2             0.0094     0.0033    -0.1642 C.ar    
   3 C3             1.2269    -0.6575    -0.2315 C.ar    
   4 C4             2.3852     0.1046    -0.2812 C.ar    
   5 C5             2.2899     1.4833    -0.2624 C.ar    
   6 N6             1.1185     2.0862    -0.1980 N.ar    
   7 C7            -2.1050     0.6647    -0.0436 C.2     
   8 N8            -1.3485     1.7776    -0.0730 N.am    
   9 N9            -1.3139    -0.4235    -0.1024 N.am    
  10 O10           -3.3197     0.6450     0.0221 O.2     
  11 C11           -1.8252     3.0887    -0.0340 C.ar    
  12 C12           -3.1943     3.3274     0.0422 C.ar    
  13 C13           -3.6683     4.6185     0.0814 C.ar    
  14 C14           -2.7719     5.6923     0.0445 C.ar    
  15 C15           -1.3963     5.4481    -0.0322 C.ar    
  16 C16           -0.9300     4.1539    -0.0656 C.ar    
  17 C17           -3.2755     7.0771     0.0857 C.2     
  18 O18           -4.4713     7.2910     0.0333 O.2     
  19 C19           -2.3269     8.2055     0.1907 C.2     
  20 N20           -1.0342     8.0897     0.3687 N.2     
  21 C21           -0.4709     9.3094     0.4189 C.ar    
  22 C22           -1.5046    10.2544     0.2582 C.ar    
  23 N23           -2.6659     9.5312     0.1106 N.pl3   
  24 C24            0.8470     9.7553     0.5879 C.ar    
  25 C25            1.1163    11.0927     0.5952 C.ar    
  26 C26            0.0970    12.0233     0.4372 C.ar    
  27 C27           -1.2071    11.6114     0.2694 C.ar    
  28 C28           -4.0111    10.0754    -0.0906 C.3     
  29 O29           -4.6344    10.2859     1.1779 O.3     
  30 C30           -5.9580    10.8179     1.0940 C.3     
  31 C31           -6.5243    11.0012     2.5035 C.3     
  32 Si32          -8.2499    11.6948     2.3941 Si      
  33 C33           -9.3327    10.5182     1.4381 C.3     
  34 C34           -8.9394    11.9181     4.1104 C.3     
  35 C35           -8.2033    13.3417     1.5245 C.3     
  36 C36           -1.7675    -1.8165    -0.0944 C.3     
  37 C37           -1.8532    -2.3167     1.3490 C.3     
  38 H38            1.2722    -1.7365    -0.2444 H       
  39 H39            3.3516    -0.3747    -0.3338 H       
  40 H40            3.1908     2.0777    -0.3007 H       
  41 H41           -3.8855     2.4980     0.0703 H       
  42 H42           -4.7308     4.8029     0.1401 H       
  43 H43           -0.7012     6.2742    -0.0609 H       
  44 H44            0.1318     3.9645    -0.1202 H       
  45 H45            1.6479     9.0414     0.7124 H       
  46 H46            2.1333    11.4319     0.7257 H       
  47 H47            0.3286    13.0782     0.4460 H       
  48 H48           -1.9945    12.3402     0.1466 H       
  49 H49           -3.9434    11.0236    -0.6240 H       
  50 H50           -4.6042     9.3716    -0.6745 H       
  51 H51           -5.9308    11.7815     0.5852 H       
  52 H52           -6.5915    10.1295     0.5347 H       
  53 H53           -6.5516    10.0376     3.0123 H       
  54 H54           -5.8908    11.6896     3.0629 H       
  55 H55           -9.3599     9.5546     1.9469 H       
  56 H56          -10.3423    10.9240     1.3741 H       
  57 H57           -8.9293    10.3876     0.4339 H       
  58 H58           -8.3059    12.6065     4.6697 H       
  59 H59           -9.9490    12.3239     4.0464 H       
  60 H60           -8.9667    10.9545     4.6191 H       
  61 H61           -7.7999    13.2111     0.5204 H       
  62 H62           -9.2129    13.7475     1.4605 H       
  63 H63           -7.5698    14.0301     2.0838 H       
  64 H64           -2.7508    -1.8811    -0.5603 H       
  65 H65           -1.0607    -2.4320    -0.6508 H       
  66 H66           -2.1907    -3.3531     1.3550 H       
  67 H67           -0.8699    -2.2521     1.8149 H       
  68 H68           -2.5601    -1.7012     1.9054 H       
@<TRIPOS>BOND
   1    1    2 ar
   2    1    6 ar
   3    1    8 1
   4    2    3 ar
   5    2    9 1
   6    3    4 ar
   7    3   38 1
   8    4    5 ar
   9    4   39 1
  10    5    6 ar
  11    5   40 1
  12    7    8 am
  13    7    9 am
  14    7   10 2
  15    8   11 1
  16    9   36 1
  17   11   12 ar
  18   11   16 ar
  19   12   13 ar
  20   12   41 1
  21   13   14 ar
  22   13   42 1
  23   14   15 ar
  24   14   17 1
  25   15   16 ar
  26   15   43 1
  27   16   44 1
  28   17   18 2
  29   17   19 1
  30   19   20 2
  31   19   23 1
  32   20   21 1
  33   21   22 ar
  34   21   24 ar
  35   22   23 1
  36   22   27 ar
  37   23   28 1
  38   24   25 ar
  39   24   45 1
  40   25   26 ar
  41   25   46 1
  42   26   27 ar
  43   26   47 1
  44   27   48 1
  45   28   29 1
  46   28   49 1
  47   28   50 1
  48   29   30 1
  49   30   31 1
  50   30   51 1
  51   30   52 1
  52   31   32 1
  53   31   53 1
  54   31   54 1
  55   32   33 1
  56   32   34 1
  57   32   35 1
  58   33   55 1
  59   33   56 1
  60   33   57 1
  61   34   58 1
  62   34   59 1
  63   34   60 1
  64   35   61 1
  65   35   62 1
  66   35   63 1
  67   36   37 1
  68   36   64 1
  69   36   65 1
  70   37   66 1
  71   37   67 1
  72   37   68 1

#	End of record

