#	Name: ASD04940012
#	Creating user name:	WinNT
#	Creation time:	15. 06. 2019 20:56

#	Modifying user name:	WinNT
#	Modification time:	15. 06. 2019 20:56

#	Program:	/corina/corina34_cracker 3.40 0067  02.08.2006

@<TRIPOS>MOLECULE
ASD04940012
  61   65    0    0    0
SMALL
NO_CHARGES


@<TRIPOS>ATOM
   1 C1             0.9704     1.9459    -0.7000 C.ar    
   2 C2             1.9029     1.1027    -1.2636 C.ar    
   3 C3             2.1005    -0.1683    -0.7440 C.ar    
   4 C4             1.3701    -0.6055     0.3395 C.ar    
   5 C5             0.4237     0.2312     0.9235 C.ar    
   6 C6             0.2253     1.5170     0.3963 C.ar    
   7 N7            -0.4360     0.0707     1.9921 N.pl3   
   8 C8            -1.1808     1.1953     2.1791 C.2     
   9 C9            -0.8252     2.1424     1.2213 C.2     
  10 C10           -1.3622     3.4406     1.0710 C.2     
  11 O11           -2.2294     3.8304     1.8267 O.2     
  12 C12           -0.8589     4.3417    -0.0271 C.3     
  13 N13           -1.6625     5.5710    -0.0587 N.3     
  14 C14           -2.2020     1.3808     3.2278 C.ar    
  15 C15           -1.9376     0.9878     4.5423 C.ar    
  16 C16           -2.8968     1.1646     5.5174 C.ar    
  17 C17           -4.1185     1.7297     5.1966 C.ar    
  18 C18           -4.3874     2.1213     3.8968 C.ar    
  19 C19           -3.4358     1.9554     2.9123 C.ar    
  20 C20           -3.0431     5.2867    -0.4706 C.3     
  21 C21           -3.8845     6.5595    -0.3524 C.3     
  22 C22           -3.2806     7.6492    -1.2425 C.3     
  23 C23           -1.8278     7.8920    -0.8243 C.3     
  24 C24           -1.0460     6.5805    -0.9288 C.3     
  25 C25           -5.2959     6.2726    -0.7957 C.2     
  26 O26           -5.5020     5.4712    -1.6824 O.2     
  27 N27           -6.3293     6.9066    -0.2068 N.am    
  28 C28           -7.7199     6.5602    -0.5406 C.3     
  29 C29           -8.4840     6.3151     0.7656 C.3     
  30 O30           -8.2998     7.4343     1.6358 O.3     
  31 C31           -6.9431     7.6516     2.0307 C.3     
  32 C32           -6.1001     7.9613     0.7934 C.3     
  33 H33            0.8209     2.9366    -1.1034 H       
  34 H34            2.4821     1.4323    -2.1134 H       
  35 H35            2.8337    -0.8217    -1.1934 H       
  36 H36            1.5318    -1.5972     0.7353 H       
  37 H37           -0.5007    -0.7314     2.5338 H       
  38 H38            0.1847     4.5946     0.1601 H       
  39 H39           -0.9421     3.8285    -0.9851 H       
  40 H40           -0.9846     0.5463     4.7940 H       
  41 H41           -2.6940     0.8610     6.5339 H       
  42 H42           -4.8660     1.8654     5.9642 H       
  43 H43           -5.3432     2.5612     3.6535 H       
  44 H44           -3.6452     2.2656     1.8992 H       
  45 H45           -3.0498     4.9416    -1.5045 H       
  46 H46           -3.4621     4.5132     0.1730 H       
  47 H47           -3.8895     6.8975     0.6839 H       
  48 H48           -3.3110     7.3276    -2.2835 H       
  49 H49           -3.8514     8.5708    -1.1282 H       
  50 H50           -1.3793     8.6365    -1.4820 H       
  51 H51           -1.8004     8.2509     0.2046 H       
  52 H52           -0.0146     6.7468    -0.6180 H       
  53 H53           -1.0621     6.2294    -1.9606 H       
  54 H54           -8.1819     7.3823    -1.0873 H       
  55 H55           -7.7370     5.6573    -1.1509 H       
  56 H56           -9.5453     6.1930     0.5492 H       
  57 H57           -8.1036     5.4138     1.2462 H       
  58 H58           -6.8958     8.4910     2.7244 H       
  59 H59           -6.5571     6.7551     2.5159 H       
  60 H60           -5.0451     7.9856     1.0661 H       
  61 H61           -6.3962     8.9268     0.3833 H       
@<TRIPOS>BOND
   1    1    2 ar
   2    1    6 ar
   3    1   33 1
   4    2    3 ar
   5    2   34 1
   6    3    4 ar
   7    3   35 1
   8    4    5 ar
   9    4   36 1
  10    5    7 1
  11    5    6 ar
  12    6    9 1
  13    7    8 1
  14    7   37 1
  15    8    9 2
  16    8   14 1
  17    9   10 1
  18   10   11 2
  19   10   12 1
  20   12   13 1
  21   12   38 1
  22   12   39 1
  23   13   20 1
  24   13   24 1
  25   14   15 ar
  26   14   19 ar
  27   15   16 ar
  28   15   40 1
  29   16   17 ar
  30   16   41 1
  31   17   18 ar
  32   17   42 1
  33   18   19 ar
  34   18   43 1
  35   19   44 1
  36   20   21 1
  37   20   45 1
  38   20   46 1
  39   21   22 1
  40   21   25 1
  41   21   47 1
  42   22   23 1
  43   22   48 1
  44   22   49 1
  45   23   24 1
  46   23   50 1
  47   23   51 1
  48   24   52 1
  49   24   53 1
  50   25   26 2
  51   25   27 am
  52   27   28 1
  53   27   32 1
  54   28   29 1
  55   28   54 1
  56   28   55 1
  57   29   30 1
  58   29   56 1
  59   29   57 1
  60   30   31 1
  61   31   32 1
  62   31   58 1
  63   31   59 1
  64   32   60 1
  65   32   61 1

#	End of record

