#	Name: ASD02200004
#	Creating user name:	WinNT
#	Creation time:	15. 06. 2019 20:20

#	Modifying user name:	WinNT
#	Modification time:	15. 06. 2019 20:20

#	Program:	/corina/corina34_cracker 3.40 0067  02.08.2006

@<TRIPOS>MOLECULE
ASD02200004
  63   66    0    0    0
SMALL
NO_CHARGES


@<TRIPOS>ATOM
   1 C1            -0.0187     1.5258     0.0104 C.3     
   2 C2             0.0021    -0.0041     0.0020 C.3     
   3 O3            -1.3386    -0.4987     0.0122 O.3     
   4 C4            -1.4981    -1.8466     0.0064 C.ar    
   5 C5            -0.3898    -2.6785    -0.0086 C.ar    
   6 C6            -0.5536    -4.0504    -0.0149 C.ar    
   7 C7            -1.8226    -4.6039    -0.0058 C.ar    
   8 C8            -2.9360    -3.7905     0.0092 C.ar    
   9 C9            -2.7841    -2.4029     0.0215 C.ar    
  10 S10           -2.0157    -6.3553    -0.0140 S.o2    
  11 O11           -3.3071    -6.6141    -0.5475 O.2     
  12 O12           -0.8229    -6.8880    -0.5731 O.2     
  13 N13           -2.0542    -6.8516     1.5654 N.am    
  14 C14           -3.3263    -6.9396     2.2983 C.3     
  15 C15           -3.4226    -8.3271     2.9415 C.3     
  16 N16           -2.2214    -8.5727     3.7505 N.3     
  17 C17           -1.0122    -8.5928     2.9166 C.3     
  18 C18           -0.8178    -7.2220     2.2706 C.3     
  19 C19           -2.3506    -9.8171     4.5205 C.3     
  20 C20           -3.9719    -1.5263     0.0442 C.2     
  21 N21           -5.2165    -2.0952     0.0586 N.am    
  22 C22           -6.3217    -1.3176     0.0795 C.2     
  23 C23           -6.1557     0.0867     0.0865 C.2     
  24 C24           -4.8576     0.6132     0.0715 C.2     
  25 N25           -3.8026    -0.2264     0.0554 N.2     
  26 O26           -7.4346    -1.8147     0.0917 O.2     
  27 N27           -7.0164     1.1489     0.1057 N.pl3   
  28 N28           -6.2521     2.3230     0.1026 N.2     
  29 C29           -4.9832     2.0160     0.0825 C.2     
  30 C30           -8.4792     1.0726     0.1256 C.3     
  31 C31           -3.8418     2.9999     0.0732 C.3     
  32 C32           -3.4755     3.3424    -1.3722 C.3     
  33 C33           -2.3166     4.3414    -1.3817 C.3     
  34 H34            1.0039     1.9031     0.0027 H       
  35 H35           -0.5459     1.8868    -0.8726 H       
  36 H36           -0.5289     1.8773     0.9072 H       
  37 H37            0.5123    -0.3556    -0.8948 H       
  38 H38            0.5293    -0.3651     0.8851 H       
  39 H39            0.6032    -2.2539    -0.0158 H       
  40 H40            0.3132    -4.6946    -0.0274 H       
  41 H41           -3.9241    -4.2264     0.0155 H       
  42 H42           -3.3560    -6.1738     3.0734 H       
  43 H43           -4.1574    -6.7977     1.6075 H       
  44 H44           -4.3058    -8.3721     3.5787 H       
  45 H45           -3.4972    -9.0851     2.1617 H       
  46 H46           -0.1472    -8.8305     3.5359 H       
  47 H47           -1.1204    -9.3471     2.1372 H       
  48 H48            0.0088    -7.2668     1.5615 H       
  49 H49           -0.6017    -6.4840     3.0430 H       
  50 H50           -2.4888   -10.6547     3.8368 H       
  51 H51           -1.4477    -9.9748     5.1104 H       
  52 H52           -3.2112    -9.7452     5.1855 H       
  53 H53           -5.3059    -3.0611     0.0535 H       
  54 H54           -8.8277     1.0467     1.1581 H       
  55 H55           -8.8954     1.9460    -0.3765 H       
  56 H56           -8.8030     0.1685    -0.3899 H       
  57 H57           -4.1404     3.9078     0.5973 H       
  58 H58           -2.9785     2.5596     0.5722 H       
  59 H59           -3.1769     2.4346    -1.8963 H       
  60 H60           -4.3388     3.7828    -1.8712 H       
  61 H61           -2.6153     5.2493    -0.8576 H       
  62 H62           -1.4534     3.9011    -0.8827 H       
  63 H63           -2.0557     4.5854    -2.4114 H       
@<TRIPOS>BOND
   1    1    2 1
   2    1   34 1
   3    1   35 1
   4    1   36 1
   5    2    3 1
   6    2   37 1
   7    2   38 1
   8    3    4 1
   9    4    5 ar
  10    4    9 ar
  11    5    6 ar
  12    5   39 1
  13    6    7 ar
  14    6   40 1
  15    7    8 ar
  16    7   10 1
  17    8    9 ar
  18    8   41 1
  19    9   20 1
  20   10   11 2
  21   10   12 2
  22   10   13 am
  23   13   14 1
  24   13   18 1
  25   14   15 1
  26   14   42 1
  27   14   43 1
  28   15   16 1
  29   15   44 1
  30   15   45 1
  31   16   17 1
  32   16   19 1
  33   17   18 1
  34   17   46 1
  35   17   47 1
  36   18   48 1
  37   18   49 1
  38   19   50 1
  39   19   51 1
  40   19   52 1
  41   20   21 1
  42   20   25 2
  43   21   22 am
  44   21   53 1
  45   22   23 1
  46   22   26 2
  47   23   24 2
  48   23   27 1
  49   24   25 1
  50   24   29 1
  51   27   28 1
  52   27   30 1
  53   28   29 2
  54   29   31 1
  55   30   54 1
  56   30   55 1
  57   30   56 1
  58   31   32 1
  59   31   57 1
  60   31   58 1
  61   32   33 1
  62   32   59 1
  63   32   60 1
  64   33   61 1
  65   33   62 1
  66   33   63 1

#	End of record

