#	Name: ASD09530005
#	Creating user name:	WinNT
#	Creation time:	15. 06. 2019 21:22

#	Modifying user name:	WinNT
#	Modification time:	15. 06. 2019 21:22

#	Program:	/corina/corina34_cracker 3.40 0067  02.08.2006

@<TRIPOS>MOLECULE
ASD09530005
  52   54    0    0    0
SMALL
NO_CHARGES


@<TRIPOS>ATOM
   1 N1            -0.0431     2.3796    -1.9283 N.am    
   2 C2             0.1229     1.1661    -1.4002 C.2     
   3 C3             1.4743     0.5345    -1.2056 C.3     
   4 N4             2.4753     1.3129    -1.9501 N.am    
   5 C5             2.3815     2.7807    -1.8753 C.3     
   6 C6             1.0331     3.2036    -2.4614 C.3     
   7 O7            -0.8610     0.5434    -1.0609 O.2     
   8 C8             3.4397     0.7077    -2.6714 C.2     
   9 C9             3.5075    -0.7967    -2.7264 C.3     
  10 C10            4.6848    -1.2224    -3.6059 C.3     
  11 C11            4.7536    -2.7498    -3.6617 C.3     
  12 C12            5.9309    -3.1755    -4.5413 C.3     
  13 C13            5.9998    -4.7029    -4.5971 C.3     
  14 O14            4.2529     1.3739    -3.2762 O.2     
  15 C15            7.0810    -5.1222    -5.5595 C.ar    
  16 C16            8.3559    -4.6024    -5.4359 C.ar    
  17 C17            9.3477    -4.9870    -6.3187 C.ar    
  18 C18            9.0647    -5.8917    -7.3248 C.ar    
  19 C19            7.7900    -6.4122    -7.4479 C.ar    
  20 C20            6.7993    -6.0309    -6.5624 C.ar    
  21 C21            6.3119    -5.2422    -3.2250 C.ar    
  22 C22            5.5160    -6.2281    -2.6723 C.ar    
  23 C23            5.8022    -6.7227    -1.4136 C.ar    
  24 C24            6.8846    -6.2317    -0.7078 C.ar    
  25 C25            7.6810    -5.2464    -1.2608 C.ar    
  26 C26            7.3973    -4.7549    -2.5213 C.ar    
  27 H27           -0.9443     2.7368    -1.9634 H       
  28 H28            1.7275     0.5333    -0.1454 H       
  29 H29            1.4561    -0.4892    -1.5795 H       
  30 H30            2.4472     3.1009    -0.8354 H       
  31 H31            3.1902     3.2308    -2.4511 H       
  32 H32            1.0637     3.0963    -3.5457 H       
  33 H33            0.8441     4.2472    -2.2101 H       
  34 H34            3.6448    -1.1913    -1.7196 H       
  35 H35            2.5804    -1.1871    -3.1463 H       
  36 H36            4.5474    -0.8279    -4.6127 H       
  37 H37            5.6118    -0.8320    -3.1860 H       
  38 H38            4.8910    -3.1444    -2.6550 H       
  39 H39            3.8266    -3.1402    -4.0816 H       
  40 H40            5.7936    -2.7809    -5.5481 H       
  41 H41            6.8580    -2.7851    -4.1214 H       
  42 H42            5.0410    -5.0978    -4.9333 H       
  43 H43            8.5770    -3.8955    -4.6499 H       
  44 H44           10.3436    -4.5803    -6.2226 H       
  45 H45            9.8394    -6.1916    -8.0150 H       
  46 H46            7.5688    -7.1188    -8.2341 H       
  47 H47            5.8043    -6.4404    -6.6562 H       
  48 H48            4.6703    -6.6117    -3.2238 H       
  49 H49            5.1800    -7.4925    -0.9816 H       
  50 H50            7.1078    -6.6176     0.2759 H       
  51 H51            8.5265    -4.8626    -0.7092 H       
  52 H52            8.0217    -3.9877    -2.9549 H       
@<TRIPOS>BOND
   1    1    2 am
   2    1    6 1
   3    1   27 1
   4    2    3 1
   5    2    7 2
   6    3    4 1
   7    3   28 1
   8    3   29 1
   9    4    5 1
  10    4    8 am
  11    5    6 1
  12    5   30 1
  13    5   31 1
  14    6   32 1
  15    6   33 1
  16    8    9 1
  17    8   14 2
  18    9   10 1
  19    9   34 1
  20    9   35 1
  21   10   11 1
  22   10   36 1
  23   10   37 1
  24   11   12 1
  25   11   38 1
  26   11   39 1
  27   12   13 1
  28   12   40 1
  29   12   41 1
  30   13   15 1
  31   13   21 1
  32   13   42 1
  33   15   16 ar
  34   15   20 ar
  35   16   17 ar
  36   16   43 1
  37   17   18 ar
  38   17   44 1
  39   18   19 ar
  40   18   45 1
  41   19   20 ar
  42   19   46 1
  43   20   47 1
  44   21   22 ar
  45   21   26 ar
  46   22   23 ar
  47   22   48 1
  48   23   24 ar
  49   23   49 1
  50   24   25 ar
  51   24   50 1
  52   25   26 ar
  53   25   51 1
  54   26   52 1

#	End of record

