#	Name: ASD00451020
#	Creating user name:	WinNT
#	Creation time:	15. 06. 2019 18:36

#	Modifying user name:	WinNT
#	Modification time:	15. 06. 2019 18:36

#	Program:	/corina/corina34_cracker 3.40 0067  02.08.2006

@<TRIPOS>MOLECULE
ASD00451020
  49   52    0    0    0
SMALL
NO_CHARGES


@<TRIPOS>ATOM
   1 C1            -0.0625     1.4582     0.0832 C.ar    
   2 C2            -0.0939     0.0730     0.1040 C.ar    
   3 N3             1.1679     2.1327     0.0495 N.am    
   4 C4            -1.2557     2.1816     0.0901 C.ar    
   5 C5            -1.3057    -0.5921     0.1368 C.ar    
   6 C6             2.2559     1.5247    -0.4634 C.2     
   7 C7            -2.4694     1.5110     0.1177 C.ar    
   8 C8            -2.4936     0.1245     0.1485 C.ar    
   9 O9             2.1905     0.3658    -0.8260 O.2     
  10 N10            3.4164     2.2010    -0.5743 N.am    
  11 O11           -3.6830    -0.5334     0.1751 O.3     
  12 C12            4.5766     1.5373    -0.9929 C.ar    
  13 C13           -4.0810    -1.0837     1.3510 C.ar    
  14 C14            4.6994     0.1676    -0.8075 C.ar    
  15 C15            5.6059     2.2485    -1.6005 C.ar    
  16 C16           -5.3300    -1.6876     1.4725 C.ar    
  17 C17           -3.2491    -1.0653     2.4682 C.ar    
  18 C18            5.8452    -0.4847    -1.2213 C.ar    
  19 C19            6.7494     1.5894    -2.0121 C.ar    
  20 N20           -6.3906    -1.8902     0.5918 N.am    
  21 C21           -5.7045    -2.2429     2.6963 C.ar    
  22 C22           -3.6887    -1.6354     3.6461 C.ar    
  23 C23            6.8696     0.2250    -1.8195 C.ar    
  24 C24           -7.3668    -2.5408     1.2536 C.2     
  25 N25           -6.9818    -2.7616     2.5243 N.am    
  26 N26           -4.8802    -2.1960     3.7320 N.ar    
  27 O27           -8.4366    -2.8718     0.7774 O.2     
  28 H28            1.2352     3.0365     0.3953 H       
  29 H29            3.4481     3.1475    -0.3643 H       
  30 H30           -6.4207    -1.6112    -0.3367 H       
  31 H31           -7.5062    -3.2123     3.2046 H       
  32 S32           -1.2205     3.9430     0.0643 S.3     
  33 F33            5.4882     3.5812    -1.7886 F       
  34 C34           -2.9794     4.3866     0.0834 C.3     
  35 C35            5.9784    -1.9722    -1.0198 C.3     
  36 F36            5.4736    -2.6416    -2.1398 F       
  37 F37            7.3275    -2.3008    -0.8491 F       
  38 F38            5.2578    -2.3553     0.1165 F       
  39 H39            0.8291    -0.4878     0.0942 H       
  40 H40           -1.3276    -1.6717     0.1529 H       
  41 H41           -3.3947     2.0680     0.1234 H       
  42 H42            3.9003    -0.3882    -0.3397 H       
  43 H43           -2.2710    -0.6105     2.4134 H       
  44 H44            7.5495     2.1403    -2.4841 H       
  45 H45           -3.0455    -1.6223     4.5135 H       
  46 H46            7.7639    -0.2878    -2.1414 H       
  47 H47           -3.4700     3.9645    -0.7937 H       
  48 H48           -3.4443     3.9900     0.9859 H       
  49 H49           -3.0806     5.4718     0.0693 H       
@<TRIPOS>BOND
   1    1    2 ar
   2    1    3 1
   3    1    4 ar
   4    2    5 ar
   5    2   39 1
   6    3   28 1
   7    3    6 am
   8    4   32 1
   9    4    7 ar
  10    5    8 ar
  11    5   40 1
  12    6    9 2
  13    6   10 am
  14    7    8 ar
  15    7   41 1
  16    8   11 1
  17   10   12 1
  18   10   29 1
  19   11   13 1
  20   12   14 ar
  21   12   15 ar
  22   13   16 ar
  23   13   17 ar
  24   14   18 ar
  25   14   42 1
  26   15   19 ar
  27   15   33 1
  28   16   20 1
  29   16   21 ar
  30   17   22 ar
  31   17   43 1
  32   18   23 ar
  33   18   35 1
  34   19   23 ar
  35   19   44 1
  36   20   30 1
  37   20   24 am
  38   21   26 ar
  39   21   25 1
  40   22   26 ar
  41   22   45 1
  42   23   46 1
  43   24   25 am
  44   24   27 2
  45   25   31 1
  46   32   34 1
  47   34   47 1
  48   34   48 1
  49   34   49 1
  50   35   36 1
  51   35   37 1
  52   35   38 1

#	End of record

