#	Name: ASD01410719
#	Creating user name:	WinNT
#	Creation time:	15. 06. 2019 19:18

#	Modifying user name:	WinNT
#	Modification time:	15. 06. 2019 19:18

#	Program:	/corina/corina34_cracker 3.40 0067  02.08.2006

@<TRIPOS>MOLECULE
ASD01410719
  80   86    0    0    0
SMALL
NO_CHARGES


@<TRIPOS>ATOM
   1 N1            -0.0255     1.8941    -0.0152 N.am    
   2 N2            -0.1410     4.3049     1.3631 N.3     
   3 N3            -0.0499     5.7646     4.2645 N.am    
   4 S4            -0.0082     0.2375    -0.1083 S.o2    
   5 O5             1.0495    -0.2105     0.7283 O.2     
   6 N6            -1.4431    -0.2388     0.6247 N.am    
   7 O7            -0.1164    -0.0982    -1.4848 O.2     
   8 C8            -1.3943    -0.3152     1.9770 C.2     
   9 O9            -0.3917    -0.7783     2.4858 O.2     
  10 C10           -2.4672     0.1228     2.8589 C.ar    
  11 C11           -3.7630    -0.3865     2.8324 C.ar    
  12 C12           -4.7728     0.1619     3.5802 C.ar    
  13 C13           -4.4622     1.2918     4.3526 C.ar    
  14 C14           -3.1204     1.7341     4.4973 C.ar    
  15 C15           -2.1058     1.1590     3.7584 C.ar    
  16 C16           -5.2534     2.2182     5.0387 C.2     
  17 C17           -4.4310     3.1459     5.6109 C.2     
  18 N18           -3.1223     2.7701     5.3986 N.pl3   
  19 C19           -6.7574     2.1965     5.1310 C.3     
  20 C20           -7.3271     3.4535     4.4706 C.3     
  21 C21           -7.2945     0.9559     4.4145 C.3     
  22 C22           -8.8214     0.9338     4.5082 C.3     
  23 C23           -9.3911     2.1909     3.8478 C.3     
  24 C24           -8.8541     3.4315     4.5643 C.3     
  25 C25           -4.9084     4.3617     6.2946 C.ar    
  26 C26           -4.1388     5.5191     6.4371 C.ar    
  27 C27           -2.7713     5.6690     5.9781 C.2     
  28 C28           -1.7993     4.8017     5.8148 C.2     
  29 C29           -1.9449     3.3215     6.0631 C.3     
  30 C30           -0.4847     5.2509     5.4208 C.2     
  31 O31            0.3683     5.1444     6.2825 O.2     
  32 C32           -6.2075     4.3195     6.8268 C.ar    
  33 C33           -6.7364     5.4067     7.4822 C.ar    
  34 C34           -5.9846     6.5706     7.6119 C.ar    
  35 C35           -4.7078     6.6313     7.0955 C.ar    
  36 O36           -6.5102     7.6496     8.2487 O.3     
  37 C37           -7.8383     7.5181     8.7595 C.3     
  38 C38           -0.1505     5.6944     1.8283 C.3     
  39 C39           -0.9875     5.7808     3.1133 C.3     
  40 C40           -1.1000     4.0859     0.2702 C.3     
  41 C41            1.2095     2.6727     0.0159 C.3     
  42 C42           -1.3259     2.5874     0.0568 C.3     
  43 C43            1.1919     3.8144     1.0181 C.3     
  44 H44            0.8504     6.1161     4.1809 H       
  45 H45           -2.2451    -0.4431     0.1188 H       
  46 H46           -3.9788    -1.2380     2.2042 H       
  47 H47           -5.7676    -0.2585     3.5749 H       
  48 H48           -1.0809     1.4837     3.8609 H       
  49 H49           -7.0568     2.1691     6.1788 H       
  50 H50           -6.9445     4.3374     4.9810 H       
  51 H51           -7.0277     3.4810     3.4229 H       
  52 H52           -6.9951     0.9833     3.3668 H       
  53 H53           -6.8886     0.0604     4.8850 H       
  54 H54           -9.2041     0.0500     3.9978 H       
  55 H55           -9.1208     0.9064     5.5560 H       
  56 H56           -9.0918     2.2183     2.8001 H       
  57 H57          -10.4790     2.1752     3.9145 H       
  58 H58           -9.1534     3.4041     5.6120 H       
  59 H59           -9.2599     4.3270     4.0938 H       
  60 H60           -2.5025     6.6833     5.7225 H       
  61 H61           -2.0297     3.1485     7.1359 H       
  62 H62           -1.0565     2.8105     5.6921 H       
  63 H63           -6.7987     3.4220     6.7196 H       
  64 H64           -7.7332     5.3575     7.8951 H       
  65 H65           -4.1353     7.5416     7.1953 H       
  66 H66           -8.5228     7.2997     7.9398 H       
  67 H67           -7.8696     6.7056     9.4854 H       
  68 H68           -8.1354     8.4488     9.2428 H       
  69 H69            0.8699     6.0175     2.0344 H       
  70 H70           -0.5902     6.3330     1.0622 H       
  71 H71           -1.6614     4.9263     3.1735 H       
  72 H72           -1.5624     6.7069     3.1182 H       
  73 H73           -2.0480     4.5618     0.5209 H       
  74 H74           -0.7089     4.5263    -0.6470 H       
  75 H75            2.0351     2.0055     0.2636 H       
  76 H76            1.3858     3.0849    -0.9776 H       
  77 H77           -1.8719     2.4319    -0.8738 H       
  78 H78           -1.9055     2.1860     0.8880 H       
  79 H79            1.7681     4.6431     0.6065 H       
  80 H80            1.6827     3.4787     1.9316 H       
@<TRIPOS>BOND
   1    1    4 am
   2    1   41 1
   3    1   42 1
   4    2   38 1
   5    2   40 1
   6    2   43 1
   7    3   30 am
   8    3   39 1
   9    3   44 1
  10    4    5 2
  11    4    6 am
  12    4    7 2
  13    6    8 am
  14    6   45 1
  15    8    9 2
  16    8   10 1
  17   10   11 ar
  18   10   15 ar
  19   11   12 ar
  20   11   46 1
  21   12   13 ar
  22   12   47 1
  23   13   14 ar
  24   13   16 1
  25   14   15 ar
  26   14   18 1
  27   15   48 1
  28   16   17 2
  29   16   19 1
  30   17   18 1
  31   17   25 1
  32   18   29 1
  33   19   20 1
  34   19   21 1
  35   19   49 1
  36   20   24 1
  37   20   50 1
  38   20   51 1
  39   21   22 1
  40   21   52 1
  41   21   53 1
  42   22   23 1
  43   22   54 1
  44   22   55 1
  45   23   24 1
  46   23   56 1
  47   23   57 1
  48   24   58 1
  49   24   59 1
  50   25   26 ar
  51   25   32 ar
  52   26   27 1
  53   26   35 ar
  54   27   28 2
  55   27   60 1
  56   28   29 1
  57   28   30 1
  58   29   61 1
  59   29   62 1
  60   30   31 2
  61   32   33 ar
  62   32   63 1
  63   33   34 ar
  64   33   64 1
  65   34   35 ar
  66   34   36 1
  67   35   65 1
  68   36   37 1
  69   37   66 1
  70   37   67 1
  71   37   68 1
  72   38   39 1
  73   38   69 1
  74   38   70 1
  75   39   71 1
  76   39   72 1
  77   40   42 1
  78   40   73 1
  79   40   74 1
  80   41   43 1
  81   41   75 1
  82   41   76 1
  83   42   77 1
  84   42   78 1
  85   43   79 1
  86   43   80 1

#	End of record

