#	Name: ASD01150055
#	Creating user name:	WinNT
#	Creation time:	15. 06. 2019 19:03

#	Modifying user name:	WinNT
#	Modification time:	15. 06. 2019 19:03

#	Program:	/corina/corina34_cracker 3.40 0067  02.08.2006

@<TRIPOS>MOLECULE
ASD01150055
  37   39    0    0    0
SMALL
NO_CHARGES


@<TRIPOS>ATOM
   1 C1            -0.0167     1.3793     0.0096 C.ar    
   2 C2             0.0021    -0.0041     0.0020 C.ar    
   3 C3             1.2098    -0.6789    -0.0131 C.ar    
   4 C4             2.3967     0.0292    -0.0207 C.ar    
   5 C5             2.3773     1.4115    -0.0131 C.ar    
   6 C6             1.1709     2.0863     0.0021 C.ar    
   7 Cl7           -1.4892    -0.8928     0.0121 Cl      
   8 C8             3.6719     2.1830    -0.0208 C.3     
   9 N9             4.0787     2.4404    -1.4044 N.am    
  10 C10            3.6637     3.5616    -2.0188 C.2     
  11 N11            4.0110     3.8414    -3.2891 N.am    
  12 C12            4.8161     2.9650    -3.9986 C.2     
  13 C13            5.2528     1.8023    -3.3760 C.2     
  14 C14            4.8688     1.5511    -2.0412 C.2     
  15 O15            5.2392     0.5391    -1.4736 O.2     
  16 O16            2.9564     4.3428    -1.4120 O.2     
  17 N17            5.3169     2.9632    -5.2365 N.2     
  18 C18            6.0318     1.8832    -5.4242 C.2     
  19 N19            6.0240     1.1330    -4.3051 N.pl3   
  20 C20            6.7050    -0.1495    -4.1108 C.3     
  21 C21            6.7540     1.5316    -6.6992 C.3     
  22 C22            8.1714     2.1063    -6.6576 C.3     
  23 H23           -0.9592     1.9066     0.0170 H       
  24 H24            1.2250    -1.7588    -0.0187 H       
  25 H25            3.3395    -0.4974    -0.0321 H       
  26 H26            1.1564     3.1662     0.0080 H       
  27 H27            3.5331     3.1307     0.4994 H       
  28 H28            4.4442     1.6017     0.4829 H       
  29 H29            3.6968     4.6577    -3.7084 H       
  30 H30            7.7093     0.0271    -3.7256 H       
  31 H31            6.1439    -0.7546    -3.3987 H       
  32 H32            6.7685    -0.6751    -5.0636 H       
  33 H33            6.8043     0.4476    -6.8013 H       
  34 H34            6.2164     1.9520    -7.5491 H       
  35 H35            8.1211     3.1903    -6.5555 H       
  36 H36            8.7090     1.6859    -5.8077 H       
  37 H37            8.6938     1.8520    -7.5798 H       
@<TRIPOS>BOND
   1    1    2 ar
   2    1    6 ar
   3    1   23 1
   4    2    3 ar
   5    2    7 1
   6    3    4 ar
   7    3   24 1
   8    4    5 ar
   9    4   25 1
  10    5    6 ar
  11    5    8 1
  12    6   26 1
  13    8    9 1
  14    8   27 1
  15    8   28 1
  16    9   10 am
  17    9   14 am
  18   10   11 am
  19   10   16 2
  20   11   12 1
  21   11   29 1
  22   12   13 2
  23   12   17 1
  24   13   14 1
  25   13   19 1
  26   14   15 2
  27   17   18 2
  28   18   19 1
  29   18   21 1
  30   19   20 1
  31   20   30 1
  32   20   31 1
  33   20   32 1
  34   21   22 1
  35   21   33 1
  36   21   34 1
  37   22   35 1
  38   22   36 1
  39   22   37 1

#	End of record

