#	Name: ASD04570027
#	Creating user name:	WinNT
#	Creation time:	15. 06. 2019 20:49

#	Modifying user name:	WinNT
#	Modification time:	15. 06. 2019 20:49

#	Program:	/corina/corina34_cracker 3.40 0067  02.08.2006

@<TRIPOS>MOLECULE
ASD04570027
 351  352    0    0    0
SMALL
NO_CHARGES


@<TRIPOS>ATOM
   1 C1            -0.0187     1.5258     0.0104 C.3     
   2 C2             0.0021    -0.0041     0.0020 C.3     
   3 C3             0.7182    -0.4975    -1.2568 C.3     
   4 C4             0.7390    -2.0273    -1.2652 C.3     
   5 C5             1.4551    -2.5207    -2.5240 C.3     
   6 C6             1.4758    -4.0506    -2.5324 C.3     
   7 C7             2.1920    -4.5440    -3.7912 C.3     
   8 C8             2.2127    -6.0738    -3.7996 C.3     
   9 C9             2.9289    -6.5673    -5.0584 C.3     
  10 C10            2.9496    -8.0971    -5.0668 C.3     
  11 C11            3.6658    -8.5905    -6.3257 C.3     
  12 C12            3.6865   -10.1203    -6.3341 C.3     
  13 C13            4.4026   -10.6138    -7.5929 C.3     
  14 C14            4.4234   -12.1436    -7.6013 C.3     
  15 C15            5.1395   -12.6370    -8.8601 C.3     
  16 C16            5.1600   -14.1439    -8.8684 C.2     
  17 N17            5.7430   -14.8043    -9.8884 N.am    
  18 O18            4.6518   -14.7622    -7.9572 O.2     
  19 C19            5.7628   -16.2691    -9.8964 C.3     
  20 H20            6.1494   -14.3097   -10.6171 H       
  21 C21            5.8800   -16.7621   -11.3157 C.2     
  22 C22            6.9591   -16.7674    -9.0831 C.3     
  23 C23            6.7781   -16.3732    -7.6159 C.3     
  24 S24            8.1964   -16.9640    -6.6516 S.3     
  25 C25            7.8051   -16.4102    -4.9691 C.3     
  26 N26            5.9170   -18.0854   -11.5685 N.am    
  27 O27            5.9408   -15.9681   -12.2304 O.2     
  28 C28            6.0309   -18.5647   -12.9482 C.3     
  29 C29            6.0513   -20.0715   -12.9565 C.2     
  30 N30            6.1511   -20.7377   -14.1238 N.am    
  31 O31            5.9780   -20.6847   -11.9127 O.2     
  32 C32            6.1709   -22.2026   -14.1319 C.3     
  33 C33            5.6791   -22.7043   -15.4651 C.2     
  34 O34            5.3449   -21.9159   -16.3240 O.2     
  35 N35            5.6107   -24.0291   -15.7030 N.am    
  36 C36            7.6006   -22.6945   -13.8977 C.3     
  37 C37            8.0483   -22.2973   -12.5146 C.ar    
  38 C38            7.8271   -23.1475   -11.4469 C.ar    
  39 C39            8.2365   -22.7857   -10.1781 C.ar    
  40 C40            8.8701   -21.5682    -9.9757 C.ar    
  41 C41            9.0909   -20.7170   -11.0487 C.ar    
  42 C42            8.6846   -21.0859   -12.3165 C.ar    
  43 O43            9.2734   -21.2098    -8.7284 O.3     
  44 C44            5.1326   -24.5169   -16.9991 C.3     
  45 C45            6.2953   -24.5471   -17.9931 C.3     
  46 C46            4.5735   -25.9070   -16.8375 C.2     
  47 O47            4.5744   -26.4380   -15.7471 O.2     
  48 N48            4.0726   -26.5601   -17.9047 N.am    
  49 C49            6.7820   -23.1199   -18.2522 C.3     
  50 C50            7.9272   -23.1497   -19.2313 C.2     
  51 O51            8.3159   -24.2082   -19.6778 O.2     
  52 N52            8.5195   -22.0000   -19.6106 N.am    
  53 C53            3.5291   -27.9115   -17.7477 C.3     
  54 C54            2.0687   -27.8250   -17.2997 C.3     
  55 C55            3.6084   -28.6409   -19.0640 C.2     
  56 C56            1.9990   -27.1962   -15.9066 C.3     
  57 C57            0.5386   -27.1097   -15.4586 C.3     
  58 C58            0.4689   -26.4810   -14.0655 C.3     
  59 N59           -0.9332   -26.3980   -13.6353 N.3     
  60 O60            4.0731   -28.0865   -20.0375 O.2     
  61 N61            3.1629   -29.9093   -19.1594 N.am    
  62 C62            3.2399   -30.6184   -20.4391 C.3     
  63 C63            3.2826   -32.1265   -20.1847 C.3     
  64 C64            2.0299   -30.2836   -21.2726 C.2     
  65 O65            1.0693   -29.7612   -20.7600 O.2     
  66 C66            2.0185   -30.6007   -22.7458 C.3     
  67 C67            4.5742   -32.4828   -19.4461 C.3     
  68 C68            4.6169   -33.9909   -19.1917 C.3     
  69 C69            5.9086   -34.3472   -18.4531 C.3     
  70 N70            5.9495   -35.7952   -18.2088 N.3     
  71 H71            1.0039     1.9031     0.0027 H       
  72 H72           -0.5459     1.8868    -0.8726 H       
  73 H73           -0.5289     1.8773     0.9072 H       
  74 H74            0.5293    -0.3651     0.8851 H       
  75 H75           -1.0205    -0.3814     0.0098 H       
  76 H76            0.1910    -0.1364    -2.1398 H       
  77 H77            1.7408    -0.1202    -1.2645 H       
  78 H78            1.2661    -2.3884    -0.3821 H       
  79 H79           -0.2836    -2.4046    -1.2575 H       
  80 H80            0.9279    -2.1597    -3.4071 H       
  81 H81            2.4777    -2.1435    -2.5317 H       
  82 H82            2.0030    -4.4117    -1.6494 H       
  83 H83            0.4533    -4.4279    -2.5247 H       
  84 H84            1.6648    -4.1829    -4.6743 H       
  85 H85            3.2146    -4.1667    -3.7990 H       
  86 H86            2.7399    -6.4349    -2.9166 H       
  87 H87            1.1901    -6.4511    -3.7919 H       
  88 H88            2.4017    -6.2062    -5.9415 H       
  89 H89            3.9515    -6.1900    -5.0662 H       
  90 H90            3.4768    -8.4582    -4.1838 H       
  91 H91            1.9270    -8.4744    -5.0591 H       
  92 H92            3.1386    -8.2294    -7.2087 H       
  93 H93            4.6884    -8.2132    -6.3334 H       
  94 H94            4.2137   -10.4814    -5.4510 H       
  95 H95            2.6639   -10.4976    -6.3263 H       
  96 H96            3.8755   -10.2527    -8.4759 H       
  97 H97            5.4252   -10.2365    -7.6006 H       
  98 H98            4.9506   -12.5047    -6.7182 H       
  99 H99            3.4008   -12.5209    -7.5935 H       
 100 H100           4.6123   -12.2759    -9.7431 H       
 101 H101           6.1621   -12.2597    -8.8678 H       
 102 H102           4.8407   -16.6474    -9.4553 H       
 103 H103           7.0256   -17.8525    -9.1622 H       
 104 H104           7.8739   -16.3182    -9.4698 H       
 105 H105           6.7116   -15.2881    -7.5368 H       
 106 H106           5.8634   -16.8224    -7.2292 H       
 107 H107           7.7129   -15.3242    -4.9562 H       
 108 H108           6.8646   -16.8585    -4.6486 H       
 109 H109           8.6025   -16.7152    -4.2915 H       
 110 H110           5.8684   -18.7205   -10.8369 H       
 111 H111           5.1786   -18.2097   -13.5276 H       
 112 H112           6.9531   -18.1864   -13.3893 H       
 113 H113           6.2097   -20.2473   -14.9587 H       
 114 H114           5.5229   -22.5791   -13.3405 H       
 115 H115           5.8780   -24.6597   -15.0161 H       
 116 H116           7.6314   -23.7800   -13.9918 H       
 117 H117           8.2647   -22.2468   -14.6371 H       
 118 H118           7.3334   -24.0950   -11.6049 H       
 119 H119           8.0631   -23.4499    -9.3443 H       
 120 H120           9.5840   -19.7687   -10.8937 H       
 121 H121           8.8566   -20.4238   -13.1522 H       
 122 H122          10.1729   -21.4898    -8.5103 H       
 123 H123           4.3529   -23.8528   -17.3720 H       
 124 H124           7.1113   -25.1399   -17.5798 H       
 125 H125           5.9608   -24.9926   -18.9300 H       
 126 H126           4.0719   -26.1354   -18.7768 H       
 127 H127           5.9659   -22.5272   -18.6655 H       
 128 H128           7.1164   -22.6744   -17.3153 H       
 129 H129           8.2087   -21.1534   -19.2535 H       
 130 H130           9.2567   -22.0192   -20.2408 H       
 131 H131           4.1078   -28.4509   -16.9979 H       
 132 H132           1.5084   -27.2103   -18.0042 H       
 133 H133           1.6384   -28.8259   -17.2685 H       
 134 H134           2.5594   -27.8109   -15.2021 H       
 135 H135           2.4294   -26.1953   -15.9377 H       
 136 H136          -0.0217   -26.4951   -16.1631 H       
 137 H137           0.1083   -28.1107   -15.4274 H       
 138 H138           1.0293   -27.0957   -13.3610 H       
 139 H139           0.8993   -25.4801   -14.0966 H       
 140 H140          -1.0060   -25.9858   -12.7172 H       
 141 H141          -1.4876   -25.8871   -14.3060 H       
 142 H142           2.7912   -30.3527   -18.3809 H       
 143 H143           4.1421   -30.3138   -20.9695 H       
 144 H144           2.4250   -32.4170   -19.5778 H       
 145 H145           3.2503   -32.6566   -21.1366 H       
 146 H146           2.9641   -31.0656   -23.0247 H       
 147 H147           1.1988   -31.2853   -22.9638 H       
 148 H148           1.8844   -29.6805   -23.3145 H       
 149 H149           5.4318   -32.1923   -20.0530 H       
 150 H150           4.6065   -31.9527   -18.4942 H       
 151 H151           3.7593   -34.2814   -18.5848 H       
 152 H152           4.5846   -34.5210   -20.1435 H       
 153 H153           6.7661   -34.0567   -19.0600 H       
 154 H154           5.9408   -33.8171   -17.5012 H       
 155 H155           6.7938   -36.0560   -17.7217 H       
 156 H156           5.1314   -36.0998   -17.7029 H       
 157 C157          17.1477    12.1863    10.6609 C.2     
 158 N158          17.7000    10.9575    10.6233 N.am    
 159 C159          19.1552    10.8107    10.5394 C.3     
 160 C160          19.7956    11.4611    11.7384 C.2     
 161 N161          21.0495    11.1231    12.0990 N.am    
 162 C162          21.6721    11.7554    13.2647 C.3     
 163 C163          23.1714    11.7128    13.1183 C.2     
 164 N164          23.9574    12.2398    14.0779 N.am    
 165 C165          25.4149    12.1984    13.9357 C.3     
 166 C166          26.0546    12.2561    15.2989 C.2     
 167 N167          27.3971    12.2311    15.4150 N.am    
 168 O168          25.3613    12.3250    16.2917 O.2     
 169 C169          28.0189    12.2872    16.7403 C.3     
 170 C170          29.4116    12.8499    16.6183 C.2     
 171 C171          28.0883    10.8776    17.3312 C.3     
 172 C172          26.6705    10.3549    17.5711 C.3     
 173 S173          26.7528     8.6836    18.2717 S.3     
 174 C174          25.0058     8.2429    18.4820 C.3     
 175 N175          30.1785    12.9948    17.7171 N.am    
 176 O176          29.8423    13.1722    15.5313 O.2     
 177 C177          31.5324    13.5418    17.5985 C.3     
 178 C178          32.3727    13.0574    18.7519 C.2     
 179 N179          33.7137    12.9988    18.6307 N.am    
 180 O180          31.8422    12.7202    19.7891 O.2     
 181 C181          34.5240    12.4455    19.7186 C.3     
 182 C182          35.7150    13.3364    19.9611 C.2     
 183 O183          35.8716    14.3352    19.2911 O.2     
 184 N184          36.6062    13.0233    20.9225 N.am    
 185 C185          37.7640    13.8894    21.1582 C.3     
 186 C186          37.3667    15.0264    22.1017 C.3     
 187 C187          38.8749    13.0843    21.7816 C.2     
 188 O188          38.7153    11.9033    22.0069 O.2     
 189 N189          40.0459    13.6766    22.0889 N.am    
 190 C190          41.1259    12.8939    22.6950 C.3     
 191 C191          40.9254    12.8364    24.2107 C.3     
 192 C192          42.4505    13.5435    22.3877 C.2     
 193 O193          42.4887    14.5601    21.7275 O.2     
 194 N194          43.5928    12.9947    22.8467 N.am    
 195 C195          44.8805    13.6262    22.5480 C.3     
 196 C196          45.1637    14.7198    23.5799 C.3     
 197 C197          45.9729    12.5895    22.6020 C.2     
 198 O198          45.7024    11.4366    22.8641 O.2     
 199 N199          47.2504    12.9434    22.3589 N.am    
 200 C200          44.1245    15.8340    23.4405 C.3     
 201 C201          44.4078    16.9276    24.4723 C.3     
 202 N202          43.4127    17.9945    24.3389 N.pl3   
 203 C203          43.4655    19.0912    25.1663 C.2     
 204 C204          31.4686    15.0703    17.6206 C.3     
 205 C205          30.6903    15.5660    16.4001 C.3     
 206 O206          32.7943    15.6028    17.5885 O.3     
 207 C207          35.0047    11.0446    19.3349 C.3     
 208 C208          33.8164    10.1311    19.1782 C.2     
 209 O209          34.0007     8.8350    18.8820 O.3     
 210 O210          32.6978    10.5654    19.3193 O.2     
 211 C211          36.3276    15.9171    21.4178 C.3     
 212 C212          35.9303    17.0541    22.3613 C.3     
 213 C213          34.8911    17.9448    21.6773 C.3     
 214 N214          34.5096    19.0365    22.5832 N.3     
 215 C215          39.6607    12.0784    24.5218 C.ar    
 216 C216          39.7144    10.7307    24.7033 C.ar    
 217 C217          38.4543    12.7688    24.6249 C.ar    
 218 C218          37.2943    12.1146    24.9050 C.ar    
 219 C219          37.3094    10.7220    25.0937 C.ar    
 220 C220          38.5369    10.0207    24.9939 C.ar    
 221 N221          42.5317    20.0924    25.0411 N.pl3   
 222 N222          44.4009    19.1817    26.0695 N.2     
 223 C223          25.8802    13.3946    13.1029 C.3     
 224 O224          25.6038    14.6045    13.8112 O.3     
 225 O225          23.6707    11.2043    12.1369 O.2     
 226 C226          21.2619    11.0036    14.5325 C.3     
 227 C227          19.7545    11.1522    14.7484 C.3     
 228 C228          19.3443    10.4005    16.0162 C.3     
 229 N229          17.9010    10.5428    16.2229 N.pl3   
 230 C230          17.2999     9.9481    17.3070 C.2     
 231 N231          15.9453    10.0817    17.5010 N.pl3   
 232 N232          18.0141     9.2578    18.1509 N.2     
 233 O233          19.1828    12.2888    12.3790 O.2     
 234 C234          19.6628    11.4833     9.2624 C.3     
 235 C235          19.1088    10.7450     8.0422 C.3     
 236 C236          19.4981    11.4996     6.7694 C.3     
 237 C237          19.6901     9.3306     7.9945 C.3     
 238 C238          48.3124    11.9356    22.4114 C.3     
 239 C239          48.7802    11.7724    23.8347 C.2     
 240 C240          49.4852    12.3845    21.5374 C.3     
 241 C241          49.0468    12.4146    20.0719 C.3     
 242 N242          49.7587    10.8925    24.1257 N.am    
 243 O243          48.2761    12.4330    24.7182 O.2     
 244 C244          50.1719    12.9983    19.2149 C.3     
 245 C245          48.7348    10.9918    19.6036 C.3     
 246 O246          17.8554    13.1706    10.6253 O.2     
 247 C247          15.6504    12.3373    10.7409 C.3     
 248 C248          38.5520     8.6281    25.1826 C.ar    
 249 C249          37.3912     7.9732    25.4578 C.ar    
 250 C250          36.1839     8.6629    25.5555 C.ar    
 251 C251          36.1318    10.0120    25.3839 C.ar    
 252 H252          17.1339    10.1703    10.6518 H       
 253 H253          19.4130     9.7518    10.5194 H       
 254 H254          21.5397    10.4611    11.5867 H       
 255 H255          21.3432    12.7922    13.3345 H       
 256 H256          23.5581    12.6464    14.8628 H       
 257 H257          25.7052    11.2736    13.4370 H       
 258 H258          27.9516    12.1760    14.6210 H       
 259 H259          27.4248    12.9262    17.3936 H       
 260 H260          28.6062    10.2172    16.6357 H       
 261 H261          28.6298    10.9063    18.2767 H       
 262 H262          26.1526    11.0153    18.2666 H       
 263 H263          26.1290    10.3262    16.6256 H       
 264 H264          24.9322     7.2406    18.9039 H       
 265 H265          24.5295     8.9561    19.1546 H       
 266 H266          24.5059     8.2671    17.5136 H       
 267 H267          29.8340    12.7370    18.5864 H       
 268 H268          31.9773    13.2102    16.6603 H       
 269 H269          34.1424    13.3230    17.8232 H       
 270 H270          33.9229    12.3875    20.6261 H       
 271 H271          36.4810    12.2245    21.4583 H       
 272 H272          38.1050    14.3060    20.2104 H       
 273 H273          36.9429    14.6092    23.0152 H       
 274 H274          38.2478    15.6191    22.3476 H       
 275 H275          40.1736    14.6211    21.9087 H       
 276 H276          41.1141    11.8827    22.2883 H       
 277 H277          41.7745    12.3308    24.6706 H       
 278 H278          40.8483    13.8494    24.6057 H       
 279 H279          43.5622    12.1816    23.3747 H       
 280 H280          44.8466    14.0668    21.5516 H       
 281 H281          45.1097    14.2959    24.5826 H       
 282 H282          46.1599    15.1289    23.4115 H       
 283 H283          47.4668    13.8655    22.1493 H       
 284 H284          44.1785    16.2578    22.4377 H       
 285 H285          43.1283    15.4249    23.6088 H       
 286 H286          44.3538    16.5037    25.4751 H       
 287 H287          45.4040    17.3367    24.3040 H       
 288 H288          42.7166    17.9271    23.6667 H       
 289 H289          30.9666    15.3999    18.5301 H       
 290 H290          29.6791    15.1598    16.4246 H       
 291 H291          30.6449    16.6549    16.4159 H       
 292 H292          31.1924    15.2364    15.4906 H       
 293 H293          33.3373    15.3523    18.3485 H       
 294 H294          35.5520    11.0935    18.3935 H       
 295 H295          35.6594    10.6584    20.1161 H       
 296 H296          33.2082     8.2883    18.7915 H       
 297 H297          36.7514    16.3343    20.5043 H       
 298 H298          35.4465    15.3244    21.1718 H       
 299 H299          35.5064    16.6369    23.2747 H       
 300 H300          36.8114    17.6468    22.6072 H       
 301 H301          35.3149    18.3620    20.7639 H       
 302 H302          34.0100    17.3521    21.4314 H       
 303 H303          35.3193    19.5619    22.8773 H       
 304 H304          33.8236    19.6393    22.1542 H       
 305 H305          40.6570    10.2095    24.6241 H       
 306 H306          38.4400    13.8390    24.4806 H       
 307 H307          36.3670    12.6628    24.9822 H       
 308 H308          41.8356    20.0250    24.3689 H       
 309 H309          42.5690    20.8662    25.6249 H       
 310 H310          44.4382    19.9554    26.6533 H       
 311 H311          26.9523    13.3163    12.9220 H       
 312 H312          25.3506    13.4021    12.1503 H       
 313 H313          25.8731    15.4056    13.3414 H       
 314 H314          21.5114     9.9480    14.4257 H       
 315 H315          21.7942    11.4179    15.3888 H       
 316 H316          19.5051    12.2079    14.8552 H       
 317 H317          19.2223    10.7380    13.8921 H       
 318 H318          19.5938     9.3448    15.9094 H       
 319 H319          19.8766    10.8148    16.8725 H       
 320 H320          17.3694    11.0565    15.5949 H       
 321 H321          15.4138    10.5954    16.8729 H       
 322 H322          15.5212     9.6621    18.2659 H       
 323 H323          17.5900     8.8383    18.9158 H       
 324 H324          19.3299    12.5210     9.2413 H       
 325 H325          20.7522    11.4508     9.2430 H       
 326 H326          18.0225    10.6892     8.1136 H       
 327 H327          20.5817    11.4813     6.6532 H       
 328 H328          19.0321    11.0224     5.9072 H       
 329 H329          19.1577    12.5326     6.8409 H       
 330 H330          19.4127     8.7930     8.9013 H       
 331 H331          19.2953     8.8046     7.1253 H       
 332 H332          20.7763     9.3864     7.9231 H       
 333 H333          47.9287    10.9839    22.0437 H       
 334 H334          49.8044    13.3813    21.8417 H       
 335 H335          50.3138    11.6861    21.6545 H       
 336 H336          48.1553    13.0337    19.9719 H       
 337 H337          50.1618    10.3642    23.4191 H       
 338 H338          50.0598    10.7875    25.0418 H       
 339 H339          51.0352    12.3336    19.2468 H       
 340 H340          49.8291    13.0995    18.1851 H       
 341 H341          50.4529    13.9776    19.6022 H       
 342 H342          47.9333    10.5759    20.2141 H       
 343 H343          48.4225    11.0132    18.5595 H       
 344 H344          49.6263    10.3726    19.7036 H       
 345 H345          15.3436    12.3667    11.7865 H       
 346 H346          15.3517    13.2628    10.2485 H       
 347 H347          15.1729    11.4918    10.2458 H       
 348 H348          39.4799     8.0804    25.1092 H       
 349 H349          37.4056     6.9031    25.6023 H       
 350 H350          35.2769     8.1191    25.7746 H       
 351 H351          35.1892    10.5332    25.4628 H       
@<TRIPOS>BOND
   1    1    2 1
   2    1   71 1
   3    1   72 1
   4    1   73 1
   5    2    3 1
   6    2   74 1
   7    2   75 1
   8    3    4 1
   9    3   76 1
  10    3   77 1
  11    4    5 1
  12    4   78 1
  13    4   79 1
  14    5    6 1
  15    5   80 1
  16    5   81 1
  17    6    7 1
  18    6   82 1
  19    6   83 1
  20    7    8 1
  21    7   84 1
  22    7   85 1
  23    8    9 1
  24    8   86 1
  25    8   87 1
  26    9   10 1
  27    9   88 1
  28    9   89 1
  29   10   11 1
  30   10   90 1
  31   10   91 1
  32   11   12 1
  33   11   92 1
  34   11   93 1
  35   12   13 1
  36   12   94 1
  37   12   95 1
  38   13   14 1
  39   13   96 1
  40   13   97 1
  41   14   15 1
  42   14   98 1
  43   14   99 1
  44   15   16 1
  45   15  100 1
  46   15  101 1
  47   16   17 am
  48   16   18 2
  49   17   19 1
  50   17   20 1
  51   19   21 1
  52   19   22 1
  53   19  102 1
  54   21   26 am
  55   21   27 2
  56   22   23 1
  57   22  103 1
  58   22  104 1
  59   23   24 1
  60   23  105 1
  61   23  106 1
  62   24   25 1
  63   25  107 1
  64   25  108 1
  65   25  109 1
  66   26   28 1
  67   26  110 1
  68   28   29 1
  69   28  111 1
  70   28  112 1
  71   29   30 am
  72   29   31 2
  73   30   32 1
  74   30  113 1
  75   32   33 1
  76   32   36 1
  77   32  114 1
  78   33   34 2
  79   33   35 am
  80   35   44 1
  81   35  115 1
  82   36   37 1
  83   36  116 1
  84   36  117 1
  85   37   38 ar
  86   37   42 ar
  87   38   39 ar
  88   38  118 1
  89   39   40 ar
  90   39  119 1
  91   40   41 ar
  92   40   43 1
  93   41   42 ar
  94   41  120 1
  95   42  121 1
  96   43  122 1
  97   44   45 1
  98   44   46 1
  99   44  123 1
 100   45   49 1
 101   45  124 1
 102   45  125 1
 103   46   47 2
 104   46   48 am
 105   48   53 1
 106   48  126 1
 107   49   50 1
 108   49  127 1
 109   49  128 1
 110   50   51 2
 111   50   52 am
 112   52  129 1
 113   52  130 1
 114   53   54 1
 115   53   55 1
 116   53  131 1
 117   54   56 1
 118   54  132 1
 119   54  133 1
 120   55   60 2
 121   55   61 am
 122   56   57 1
 123   56  134 1
 124   56  135 1
 125   57   58 1
 126   57  136 1
 127   57  137 1
 128   58   59 1
 129   58  138 1
 130   58  139 1
 131   59  140 1
 132   59  141 1
 133   61   62 1
 134   61  142 1
 135   62   63 1
 136   62   64 1
 137   62  143 1
 138   63   67 1
 139   63  144 1
 140   63  145 1
 141   64   65 2
 142   64   66 1
 143   66  146 1
 144   66  147 1
 145   66  148 1
 146   67   68 1
 147   67  149 1
 148   67  150 1
 149   68   69 1
 150   68  151 1
 151   68  152 1
 152   69   70 1
 153   69  153 1
 154   69  154 1
 155   70  155 1
 156   70  156 1
 157  157  158 am
 158  157  246 2
 159  157  247 1
 160  158  159 1
 161  158  252 1
 162  159  160 1
 163  159  234 1
 164  159  253 1
 165  160  161 am
 166  160  233 2
 167  161  162 1
 168  161  254 1
 169  162  163 1
 170  162  226 1
 171  162  255 1
 172  163  164 am
 173  163  225 2
 174  164  165 1
 175  164  256 1
 176  165  166 1
 177  165  223 1
 178  165  257 1
 179  166  167 am
 180  166  168 2
 181  167  169 1
 182  167  258 1
 183  169  170 1
 184  169  171 1
 185  169  259 1
 186  170  175 am
 187  170  176 2
 188  171  172 1
 189  171  260 1
 190  171  261 1
 191  172  173 1
 192  172  262 1
 193  172  263 1
 194  173  174 1
 195  174  264 1
 196  174  265 1
 197  174  266 1
 198  175  177 1
 199  175  267 1
 200  177  178 1
 201  177  204 1
 202  177  268 1
 203  178  179 am
 204  178  180 2
 205  179  181 1
 206  179  269 1
 207  181  182 1
 208  181  207 1
 209  181  270 1
 210  182  183 2
 211  182  184 am
 212  184  185 1
 213  184  271 1
 214  185  186 1
 215  185  187 1
 216  185  272 1
 217  186  211 1
 218  186  273 1
 219  186  274 1
 220  187  188 2
 221  187  189 am
 222  189  190 1
 223  189  275 1
 224  190  191 1
 225  190  192 1
 226  190  276 1
 227  191  215 1
 228  191  277 1
 229  191  278 1
 230  192  193 2
 231  192  194 am
 232  194  195 1
 233  194  279 1
 234  195  196 1
 235  195  197 1
 236  195  280 1
 237  196  200 1
 238  196  281 1
 239  196  282 1
 240  197  198 2
 241  197  199 am
 242  199  238 1
 243  199  283 1
 244  200  201 1
 245  200  284 1
 246  200  285 1
 247  201  202 1
 248  201  286 1
 249  201  287 1
 250  202  203 1
 251  202  288 1
 252  203  221 1
 253  203  222 2
 254  204  205 1
 255  204  206 1
 256  204  289 1
 257  205  290 1
 258  205  291 1
 259  205  292 1
 260  206  293 1
 261  207  208 1
 262  207  294 1
 263  207  295 1
 264  208  209 1
 265  208  210 2
 266  209  296 1
 267  211  212 1
 268  211  297 1
 269  211  298 1
 270  212  213 1
 271  212  299 1
 272  212  300 1
 273  213  214 1
 274  213  301 1
 275  213  302 1
 276  214  303 1
 277  214  304 1
 278  215  216 ar
 279  215  217 ar
 280  216  220 ar
 281  216  305 1
 282  217  218 ar
 283  217  306 1
 284  218  219 ar
 285  218  307 1
 286  219  220 ar
 287  219  251 ar
 288  220  248 ar
 289  221  308 1
 290  221  309 1
 291  222  310 1
 292  223  224 1
 293  223  311 1
 294  223  312 1
 295  224  313 1
 296  226  227 1
 297  226  314 1
 298  226  315 1
 299  227  228 1
 300  227  316 1
 301  227  317 1
 302  228  229 1
 303  228  318 1
 304  228  319 1
 305  229  230 1
 306  229  320 1
 307  230  231 1
 308  230  232 2
 309  231  321 1
 310  231  322 1
 311  232  323 1
 312  234  235 1
 313  234  324 1
 314  234  325 1
 315  235  236 1
 316  235  237 1
 317  235  326 1
 318  236  327 1
 319  236  328 1
 320  236  329 1
 321  237  330 1
 322  237  331 1
 323  237  332 1
 324  238  239 1
 325  238  240 1
 326  238  333 1
 327  239  242 am
 328  239  243 2
 329  240  241 1
 330  240  334 1
 331  240  335 1
 332  241  244 1
 333  241  245 1
 334  241  336 1
 335  242  337 1
 336  242  338 1
 337  244  339 1
 338  244  340 1
 339  244  341 1
 340  245  342 1
 341  245  343 1
 342  245  344 1
 343  247  345 1
 344  247  346 1
 345  247  347 1
 346  248  249 ar
 347  248  348 1
 348  249  250 ar
 349  249  349 1
 350  250  251 ar
 351  250  350 1
 352  251  351 1

#	End of record

