#	Name: ASD01812596
#	Creating user name:	WinNT
#	Creation time:	15. 06. 2019 19:28

#	Modifying user name:	WinNT
#	Modification time:	15. 06. 2019 19:28

#	Program:	/corina/corina34_cracker 3.40 0067  02.08.2006

@<TRIPOS>MOLECULE
ASD01812596
  44   48    0    0    0
SMALL
NO_CHARGES


@<TRIPOS>ATOM
   1 F1             0.0021    -0.0041     0.0020 F       
   2 C2            -0.0162     1.3468     0.0094 C.ar    
   3 C3            -1.2228     2.0207     0.0303 C.ar    
   4 C4            -1.2389     3.4141     0.0380 C.ar    
   5 C5            -0.0377     4.1202     0.0245 C.ar    
   6 C6             1.1621     3.4378     0.0036 C.ar    
   7 C7             1.1747     2.0552     0.0019 C.ar    
   8 C8             2.4879     1.3161    -0.0146 C.3     
   9 N9             2.7829     0.8749    -1.3801 N.am    
  10 C10            2.3759    -0.4046    -1.9715 C.3     
  11 C11            2.9052    -0.4056    -3.3853 C.ar    
  12 N12            2.8433    -1.2791    -4.3652 N.ar    
  13 C13            3.3986    -1.0451    -5.5402 C.ar    
  14 C14            4.0728     0.1366    -5.7890 C.ar    
  15 C15            4.1657     1.0891    -4.7884 C.ar    
  16 C16            3.5672     0.8124    -3.5552 C.ar    
  17 C17            3.4661     1.5782    -2.3000 C.2     
  18 O18            3.9350     2.6853    -2.1214 O.2     
  19 C19           -2.5307     4.1433     0.0599 C.ar    
  20 C20           -3.7423     3.4347     0.0788 C.ar    
  21 N21           -4.8967     4.0515     0.0984 N.ar    
  22 C22           -4.9796     5.3862     0.1012 C.ar    
  23 C23           -6.2287     6.0310     0.1229 C.ar    
  24 C24           -6.2880     7.3906     0.1257 C.ar    
  25 C25           -5.1273     8.1616     0.1076 C.ar    
  26 C26           -3.8995     7.5741     0.0864 C.ar    
  27 C27           -3.8001     6.1725     0.0828 C.ar    
  28 C28           -2.5499     5.5303     0.0675 C.ar    
  29 H29           -2.1510     1.4687     0.0404 H       
  30 H30           -0.0454     5.2001     0.0299 H       
  31 H31            2.0931     3.9851    -0.0072 H       
  32 H32            3.2815     1.9776     0.3328 H       
  33 H33            2.4248     0.4483     0.6419 H       
  34 H34            2.8092    -1.2316    -1.4090 H       
  35 H35            1.2889    -0.4848    -1.9786 H       
  36 H36            3.3253    -1.7890    -6.3198 H       
  37 H37            4.5228     0.3146    -6.7545 H       
  38 H38            4.6866     2.0203    -4.9556 H       
  39 H39           -3.7216     2.3549     0.0769 H       
  40 H40           -7.1384     5.4491     0.1368 H       
  41 H41           -7.2505     7.8802     0.1420 H       
  42 H42           -5.2028     9.2390     0.1099 H       
  43 H43           -3.0068     8.1819     0.0721 H       
  44 H44           -1.6321     6.0994     0.0578 H       
@<TRIPOS>BOND
   1    1    2 1
   2    2    7 ar
   3    2    3 ar
   4    3    4 ar
   5    3   29 1
   6    4    5 ar
   7    4   19 1
   8    5    6 ar
   9    5   30 1
  10    6    7 ar
  11    6   31 1
  12    7    8 1
  13    8    9 1
  14    8   32 1
  15    8   33 1
  16    9   17 am
  17    9   10 1
  18   10   11 1
  19   10   34 1
  20   10   35 1
  21   11   16 ar
  22   11   12 ar
  23   12   13 ar
  24   13   14 ar
  25   13   36 1
  26   14   15 ar
  27   14   37 1
  28   15   16 ar
  29   15   38 1
  30   16   17 1
  31   17   18 2
  32   19   28 ar
  33   19   20 ar
  34   20   21 ar
  35   20   39 1
  36   21   22 ar
  37   22   27 ar
  38   22   23 ar
  39   23   24 ar
  40   23   40 1
  41   24   25 ar
  42   24   41 1
  43   25   26 ar
  44   25   42 1
  45   26   27 ar
  46   26   43 1
  47   27   28 ar
  48   28   44 1

#	End of record

