#	Name: ASD03330615
#	Creating user name:	WinNT
#	Creation time:	15. 06. 2019 20:37

#	Modifying user name:	WinNT
#	Modification time:	15. 06. 2019 20:37

#	Program:	/corina/corina34_cracker 3.40 0067  02.08.2006

@<TRIPOS>MOLECULE
ASD03330615
  64   66    0    0    0
SMALL
NO_CHARGES


@<TRIPOS>ATOM
   1 C1            -0.3250     1.1700     0.8428 C.2     
   2 N2            -0.3553    -0.1693     1.0763 N.pl3   
   3 C3             0.9801     1.5553     0.8907 C.2     
   4 N4             1.7263     0.4552     1.1333 N.2     
   5 C5             0.9336    -0.5856     1.2403 C.2     
   6 C6             1.3653    -1.9766     1.4965 C.ar    
   7 C7             1.4880     2.9267     0.7100 C.2     
   8 O8             0.7128     3.8389     0.4952 O.2     
   9 C9             3.3165     4.5336     0.6030 C.3     
  10 N10            2.8116     3.1702     0.7827 N.am    
  11 C11            3.4948     4.8189    -0.8896 C.3     
  12 C12            2.1286     4.8046    -1.5783 C.3     
  13 C13            4.1437     6.1923    -1.0724 C.3     
  14 C14            4.3903     3.7450    -1.5106 C.3     
  15 C15            4.6435     4.6743     1.3033 C.2     
  16 N16            5.1806     5.8961     1.4903 N.am    
  17 O17            5.2281     3.6879     1.6986 O.2     
  18 C18            6.5033     6.0284     2.1061 C.3     
  19 C19           -1.5658    -0.9921     1.1487 C.3     
  20 C20           -2.4706    -0.6604    -0.0422 C.3     
  21 C21           -3.3820     0.5100     0.3128 C.3     
  22 N22           -2.7061     1.4518     1.2073 N.3     
  23 C23           -1.5220     2.0422     0.5658 C.3     
  24 C24           -3.6308     2.4960     1.6683 C.3     
  25 C25            0.5193    -2.8585     2.1698 C.ar    
  26 C26            0.9244    -4.1551     2.4074 C.ar    
  27 C27            2.1722    -4.5844     1.9779 C.ar    
  28 C28            3.0194    -3.7089     1.3067 C.ar    
  29 C29            2.6179    -2.4120     1.0601 C.ar    
  30 F30            4.2336    -4.1304     0.8905 F       
  31 O31            2.5676    -5.8629     2.2141 O.3     
  32 C32            1.6485    -6.7083     2.9089 C.3     
  33 H33            2.6054     5.2431     1.0261 H       
  34 H34            3.4299     2.4427     0.9540 H       
  35 H35            1.4907     5.5697    -1.1358 H       
  36 H36            2.2557     5.0078    -2.6416 H       
  37 H37            1.6663     3.8261    -1.4481 H       
  38 H38            5.1025     6.2130    -0.5542 H       
  39 H39            4.3005     6.3817    -2.1343 H       
  40 H40            3.4906     6.9607    -0.6588 H       
  41 H41            3.9280     2.7665    -1.3804 H       
  42 H42            4.5173     3.9482    -2.5740 H       
  43 H43            5.3636     3.7552    -1.0200 H       
  44 H44            4.6914     6.6880     1.2172 H       
  45 H45            7.2415     5.5067     1.4970 H       
  46 H46            6.7685     7.0835     2.1741 H       
  47 H47            6.4840     5.5935     3.1054 H       
  48 H48           -1.2921    -2.0466     1.1156 H       
  49 H49           -2.0948    -0.7810     2.0780 H       
  50 H50           -1.8554    -0.3931    -0.9014 H       
  51 H51           -3.0782    -1.5309    -0.2893 H       
  52 H52           -3.6700     1.0290    -0.6014 H       
  53 H53           -4.2774     0.1297     0.8044 H       
  54 H54           -1.3476     3.0394     0.9700 H       
  55 H55           -1.6846     2.1071    -0.5101 H       
  56 H56           -4.4593     2.0358     2.2067 H       
  57 H57           -3.1031     3.1819     2.3310 H       
  58 H58           -4.0162     3.0452     0.8092 H       
  59 H59           -0.4519    -2.5258     2.5050 H       
  60 H60            0.2696    -4.8375     2.9290 H       
  61 H61            3.2755    -1.7320     0.5389 H       
  62 H62            1.4329    -6.2827     3.8889 H       
  63 H63            0.7245    -6.7885     2.3363 H       
  64 H64            2.0872    -7.6986     3.0313 H       
@<TRIPOS>BOND
   1    1    2 1
   2    1    3 2
   3    1   23 1
   4    2   19 1
   5    2    5 1
   6    3    4 1
   7    3    7 1
   8    4    5 2
   9    5    6 1
  10    6   25 ar
  11    6   29 ar
  12    7    8 2
  13    7   10 am
  14    9   10 1
  15    9   11 1
  16    9   15 1
  17    9   33 1
  18   10   34 1
  19   11   12 1
  20   11   13 1
  21   11   14 1
  22   12   35 1
  23   12   36 1
  24   12   37 1
  25   13   38 1
  26   13   39 1
  27   13   40 1
  28   14   41 1
  29   14   42 1
  30   14   43 1
  31   15   16 am
  32   15   17 2
  33   16   18 1
  34   16   44 1
  35   18   45 1
  36   18   46 1
  37   18   47 1
  38   19   20 1
  39   19   48 1
  40   19   49 1
  41   20   21 1
  42   20   50 1
  43   20   51 1
  44   21   22 1
  45   21   52 1
  46   21   53 1
  47   22   23 1
  48   22   24 1
  49   23   54 1
  50   23   55 1
  51   24   56 1
  52   24   57 1
  53   24   58 1
  54   25   26 ar
  55   25   59 1
  56   26   27 ar
  57   26   60 1
  58   27   28 ar
  59   27   31 1
  60   28   29 ar
  61   28   30 1
  62   29   61 1
  63   31   32 1
  64   32   62 1
  65   32   63 1
  66   32   64 1

#	End of record

