#	Name: ASD06020172
#	Creating user name:	WinNT
#	Creation time:	15. 06. 2019 21:04

#	Modifying user name:	WinNT
#	Modification time:	15. 06. 2019 21:04

#	Program:	/corina/corina34_cracker 3.40 0067  02.08.2006

@<TRIPOS>MOLECULE
ASD06020172
  24   26    0    0    0
SMALL
NO_CHARGES


@<TRIPOS>ATOM
   1 C1             0.0021    -0.0041     0.0020 C.1     
   2 C2            -0.0173     1.4278     0.0099 C.ar    
   3 C3             1.1903     2.1531     0.0023 C.ar    
   4 C4             1.1548     3.5483     0.0096 C.ar    
   5 C5            -0.0611     4.2081     0.0243 C.ar    
   6 C6            -1.2462     3.4934     0.0318 C.ar    
   7 C7            -1.2315     2.1128     0.0193 C.ar    
   8 N8             0.0175    -1.1399    -0.0042 N.1     
   9 C9             5.4542    -1.0626    -0.0532 C.ar    
  10 C10            4.4221    -0.1297    -0.0393 C.ar    
  11 C11            4.7264     1.2396    -0.0354 C.ar    
  12 C12            6.0987     1.5937    -0.0463 C.ar    
  13 C13            7.0423     0.6102    -0.0598 C.ar    
  14 N14            6.7104    -0.6702    -0.0626 N.ar    
  15 S15            2.6710    -0.3066    -0.0235 S.3     
  16 C16            2.4843     1.4424    -0.0129 C.2     
  17 N17            3.6430     2.0165    -0.0211 N.2     
  18 F18            6.4679     2.8933    -0.0438 F       
  19 F19            2.3068     4.2540     0.0028 F       
  20 H20           -0.0857     5.2878     0.0303 H       
  21 H21           -2.1894     4.0194     0.0436 H       
  22 H22           -2.1612     1.5632     0.0207 H       
  23 H23            5.2226    -2.1174    -0.0518 H       
  24 H24            8.0872     0.8832    -0.0681 H       
@<TRIPOS>BOND
   1    1    2 1
   2    1    8 3
   3    2    3 ar
   4    2    7 ar
   5    3    4 ar
   6    3   16 1
   7    4    5 ar
   8    4   19 1
   9    5    6 ar
  10    5   20 1
  11    6    7 ar
  12    6   21 1
  13    7   22 1
  14    9   10 ar
  15    9   14 ar
  16    9   23 1
  17   10   11 ar
  18   10   15 1
  19   11   12 ar
  20   11   17 1
  21   12   13 ar
  22   12   18 1
  23   13   14 ar
  24   13   24 1
  25   15   16 1
  26   16   17 2

#	End of record

