#	Name: ASD01410859
#	Creating user name:	WinNT
#	Creation time:	15. 06. 2019 19:18

#	Modifying user name:	WinNT
#	Modification time:	15. 06. 2019 19:18

#	Program:	/corina/corina34_cracker 3.40 0067  02.08.2006

@<TRIPOS>MOLECULE
ASD01410859
 115  122    0    0    0
SMALL
NO_CHARGES


@<TRIPOS>ATOM
   1 N1             3.4911     1.4198    -1.7941 N.3     
   2 C2             3.9445    -2.2169    -0.7977 C.3     
   3 C3             3.5421    -1.0099    -1.6756 C.3     
   4 N4             4.5876    -0.9614    -2.7219 N.am    
   5 C5             5.0986    -2.3186    -2.9302 C.3     
   6 C6             4.4262    -3.2267    -1.8762 C.3     
   7 O7             5.0062    -1.8723     0.0945 O.3     
   8 C8             4.7447    -2.7928    -4.3162 C.2     
   9 O9             4.1235    -2.0684    -5.0647 O.2     
  10 N10            5.1185    -4.0218    -4.7239 N.am    
  11 C11            3.6628     0.2905    -0.8748 C.3     
  12 C12            4.5156     1.5135    -2.8255 C.3     
  13 C13            4.9972     0.1765    -3.3058 C.2     
  14 O14            5.7702     0.1221    -4.2387 O.2     
  15 C15            3.9447     2.2865    -4.0161 C.3     
  16 C16            2.8470     1.4562    -4.6842 C.3     
  17 C17            3.3563     3.6121    -3.5287 C.3     
  18 C18            4.7009    -4.5160    -6.0383 C.3     
  19 C19            3.2171    -4.7074    -6.2192 C.2     
  20 N20            2.3846    -4.5510    -5.1709 N.am    
  21 O21            2.7720    -5.0023    -7.3082 O.2     
  22 S22            0.7699    -4.8774    -5.3399 S.o2    
  23 C23            0.7002    -6.6607    -5.6647 C.3     
  24 C24            5.5075    -4.0570    -7.2546 C.3     
  25 C25            5.6321    -5.4976    -6.7525 C.3     
  26 C26           -0.6669    -7.2671    -5.9874 C.3     
  27 C27            0.3789    -7.1067    -7.0925 C.3     
  28 O28            0.2171    -4.5807    -4.0649 O.2     
  29 O29            0.3832    -4.1448    -6.4945 O.2     
  30 C30            4.7575    -3.8314    -8.5421 C.2     
  31 C31            4.7635    -2.6485    -9.1051 C.2     
  32 C32            5.1262    -2.6130     1.2239 C.ar    
  33 C33            6.1389    -2.3361     2.1718 C.ar    
  34 C34            4.2596    -3.6559     1.4849 C.ar    
  35 C35            4.4071    -4.4010     2.6565 C.ar    
  36 N36            5.3574    -4.1359     3.5291 N.ar    
  37 C37            6.2259    -3.1357     3.3368 C.ar    
  38 N38            3.5245    -5.4536     2.9097 N.pl3   
  39 C39            3.5354    -6.2625     4.0014 C.2     
  40 C40            7.2343    -2.8665     4.2776 C.ar    
  41 C41            8.1147    -1.8313     4.0540 C.ar    
  42 C42            8.0161    -1.0458     2.9023 C.ar    
  43 C43            7.0507    -1.2889     1.9741 C.ar    
  44 Cl44           7.3693    -3.8329     5.7134 Cl      
  45 O45            9.0897    -1.5703     4.9636 O.3     
  46 C46            9.9719    -0.4837     4.6754 C.3     
  47 N47            2.4663    -5.8598     2.0864 N.2     
  48 C48            1.8691    -6.8740     2.6572 C.2     
  49 C49            2.5223    -7.1483     3.8644 C.2     
  50 C50            0.6781    -7.6179     2.1101 C.3     
  51 C51            1.1563    -8.8501     1.3395 C.3     
  52 C52           -0.2235    -8.0571     3.2656 C.3     
  53 C53           10.9947    -0.3439     5.8046 C.3     
  54 N54           11.8489    -1.5385     5.8423 N.3     
  55 C55           12.9881    -1.3432     6.7508 C.3     
  56 C56            5.0600     2.5643    -5.0260 C.3     
  57 C57           13.8165    -2.6295     6.8057 C.3     
  58 O58           14.2327    -2.9793     5.4829 O.3     
  59 C59           13.1483    -3.1777     4.5718 C.3     
  60 C60           12.3131    -1.8970     4.4943 C.3     
  61 H61            2.5677     1.4177    -2.2009 H       
  62 H62            3.0864    -2.6069    -0.2502 H       
  63 H63            2.5487    -1.1399    -2.1049 H       
  64 H64            6.1802    -2.3325    -2.7958 H       
  65 H65            5.1477    -3.9262    -1.4540 H       
  66 H66            3.5802    -3.7594    -2.3103 H       
  67 H67            5.6641    -4.5790    -4.1472 H       
  68 H68            4.6468     0.3437    -0.4089 H       
  69 H69            2.8889     0.3215    -0.1078 H       
  70 H70            5.3646     2.0683    -2.4260 H       
  71 H71            2.0524     1.2583    -3.9647 H       
  72 H72            2.4402     2.0069    -5.5324 H       
  73 H73            3.2662     0.5119    -5.0314 H       
  74 H74            4.1384     4.2036    -3.0527 H       
  75 H75            2.9496     4.1628    -4.3768 H       
  76 H76            2.5618     3.4142    -2.8092 H       
  77 H77            2.7313    -4.2471    -4.3175 H       
  78 H78            1.3987    -7.2706    -5.0917 H       
  79 H79            6.3489    -3.3872    -7.0770 H       
  80 H80            6.5557    -5.7755    -6.2447 H       
  81 H81            5.1717    -6.2817    -7.3535 H       
  82 H82           -0.8678    -8.2760    -5.6271 H       
  83 H83           -1.5245    -6.5944    -6.0046 H       
  84 H84            0.2095    -6.3286    -7.8368 H       
  85 H85            0.8662    -8.0101    -7.4592 H       
  86 H86            4.2150    -4.6449    -9.0007 H       
  87 H87            4.2260    -2.4869   -10.0277 H       
  88 H88            5.3059    -1.8350    -8.6465 H       
  89 H89            3.4712    -3.8939     0.7862 H       
  90 H90            4.2278    -6.2085     4.8284 H       
  91 H91            8.7159    -0.2383     2.7455 H       
  92 H92            6.9851    -0.6745     1.0882 H       
  93 H93           10.4912    -0.6766     3.7366 H       
  94 H94            9.3968     0.4383     4.5898 H       
  95 H95            2.2634    -7.9300     4.5632 H       
  96 H96            0.1183    -6.9651     1.4404 H       
  97 H97            1.7161    -9.5029     2.0093 H       
  98 H98            0.2948    -9.3881     0.9439 H       
  99 H99            1.7986    -8.5371     0.5164 H       
 100 H100          -0.5642    -7.1792     3.8146 H       
 101 H101          -1.0850    -8.5951     2.8699 H       
 102 H102           0.3363    -8.7099     3.9354 H       
 103 H103          11.6109     0.5380     5.6295 H       
 104 H104          10.4734    -0.2398     6.7562 H       
 105 H105          13.6092    -0.5255     6.3851 H       
 106 H106          12.6208    -1.1039     7.7488 H       
 107 H107           5.3625     1.6302    -5.4994 H       
 108 H108           4.6977     3.2563    -5.7862 H       
 109 H109           5.9145     3.0043    -4.5118 H       
 110 H110          14.6935    -2.4711     7.4333 H       
 111 H111          13.2111    -3.4348     7.2218 H       
 112 H112          13.5421    -3.4158     3.5837 H       
 113 H113          12.5235    -3.9990     4.9229 H       
 114 H114          11.4532    -2.0619     3.8450 H       
 115 H115          12.9235    -1.0882     4.0925 H       
@<TRIPOS>BOND
   1    1   11 1
   2    1   12 1
   3    1   61 1
   4    2    3 1
   5    2    7 1
   6    2    6 1
   7    2   62 1
   8    3    4 1
   9    3   11 1
  10    3   63 1
  11    4    5 1
  12    4   13 am
  13    5    6 1
  14    5    8 1
  15    5   64 1
  16    6   65 1
  17    6   66 1
  18    7   32 1
  19    8    9 2
  20    8   10 am
  21   10   18 1
  22   10   67 1
  23   11   68 1
  24   11   69 1
  25   12   13 1
  26   12   15 1
  27   12   70 1
  28   13   14 2
  29   15   16 1
  30   15   17 1
  31   15   56 1
  32   16   71 1
  33   16   72 1
  34   16   73 1
  35   17   74 1
  36   17   75 1
  37   17   76 1
  38   18   19 1
  39   18   24 1
  40   18   25 1
  41   19   20 am
  42   19   21 2
  43   20   22 am
  44   20   77 1
  45   22   23 1
  46   22   28 2
  47   22   29 2
  48   23   26 1
  49   23   27 1
  50   23   78 1
  51   24   25 1
  52   24   30 1
  53   24   79 1
  54   25   80 1
  55   25   81 1
  56   26   27 1
  57   26   82 1
  58   26   83 1
  59   27   84 1
  60   27   85 1
  61   30   31 2
  62   30   86 1
  63   31   87 1
  64   31   88 1
  65   32   33 ar
  66   32   34 ar
  67   33   37 ar
  68   33   43 ar
  69   34   35 ar
  70   34   89 1
  71   35   36 ar
  72   35   38 1
  73   36   37 ar
  74   37   40 ar
  75   38   47 1
  76   38   39 1
  77   39   49 2
  78   39   90 1
  79   40   41 ar
  80   40   44 1
  81   41   42 ar
  82   41   45 1
  83   42   43 ar
  84   42   91 1
  85   43   92 1
  86   45   46 1
  87   46   53 1
  88   46   93 1
  89   46   94 1
  90   47   48 2
  91   48   49 1
  92   48   50 1
  93   49   95 1
  94   50   51 1
  95   50   52 1
  96   50   96 1
  97   51   97 1
  98   51   98 1
  99   51   99 1
 100   52  100 1
 101   52  101 1
 102   52  102 1
 103   53   54 1
 104   53  103 1
 105   53  104 1
 106   54   55 1
 107   54   60 1
 108   55   57 1
 109   55  105 1
 110   55  106 1
 111   56  107 1
 112   56  108 1
 113   56  109 1
 114   57   58 1
 115   57  110 1
 116   57  111 1
 117   58   59 1
 118   59   60 1
 119   59  112 1
 120   59  113 1
 121   60  114 1
 122   60  115 1

#	End of record

