#	Name: ASD01209238
#	Creating user name:	WinNT
#	Creation time:	15. 06. 2019 19:11

#	Modifying user name:	WinNT
#	Modification time:	15. 06. 2019 19:11

#	Program:	/corina/corina34_cracker 3.40 0067  02.08.2006

@<TRIPOS>MOLECULE
ASD01209238
  71   74    0    0    0
SMALL
NO_CHARGES


@<TRIPOS>ATOM
   1 O1            -1.5535     6.3111    -1.5525 O.3     
   2 O2             0.4534     5.6763     0.0229 O.3     
   3 C3             7.2675     8.4887     4.5501 C.ar    
   4 C4             8.6359     8.6425     4.3774 C.ar    
   5 C5             9.1655     8.7952     3.1045 C.ar    
   6 C6             8.3297     8.7947     1.9997 C.ar    
   7 C7             6.9534     8.6403     2.1686 C.ar    
   8 C8             6.4252     8.4818     3.4505 C.ar    
   9 O9            10.5062     8.9459     2.9410 O.3     
  10 C10            6.0578     8.6396     0.9926 C.2     
  11 N11            4.7285     8.4903     1.1580 N.am    
  12 O12            6.5201     8.7736    -0.1236 O.2     
  13 C13            3.8870     8.4897     0.0530 C.2     
  14 P14            0.0321     6.4620    -1.3178 P.3     
  15 O15            0.7586     5.8903    -2.4736 O.2     
  16 C16            0.4558     8.2268    -1.1463 C.3     
  17 N17            2.5986     8.3537     0.1009 N.2     
  18 S18            4.3986     8.6754    -1.5677 S.3     
  19 C19            2.7311     8.5424    -2.1204 C.2     
  20 C20            1.9522     8.3771    -1.0496 C.2     
  21 O21            6.7538     8.3391     5.7993 O.3     
  22 C22            6.4133     9.4602     6.4875 C.ar    
  23 C23            5.9871     9.3646     7.8045 C.ar    
  24 C24            5.6414    10.5058     8.5019 C.ar    
  25 C25            6.4965    10.7031     5.8763 C.ar    
  26 C26           11.3090     8.9375     4.1232 C.3     
  27 C27           12.7576     9.1156     3.7480 C.2     
  28 N28           13.4115    10.2717     3.6326 N.2     
  29 N29           13.6166     8.1635     3.4783 N.2     
  30 N30           14.7480     8.7164     3.2038 N.pl3   
  31 N31           14.6258     9.9951     3.2967 N.2     
  32 C32           15.9774     8.0041     2.8468 C.3     
  33 C33            5.7199    11.7426     7.8887 C.ar    
  34 C34            6.1497    11.8412     6.5781 C.ar    
  35 S35            5.2783    13.1963     8.7811 S.o2    
  36 O36            4.8780    14.1169     7.7753 O.2     
  37 O37            4.3589    12.7389     9.7632 O.2     
  38 C38            6.8249    13.7369     9.5597 C.3     
  39 C39            0.3466     4.2579     0.1597 C.3     
  40 C40            0.8285     3.8421     1.5511 C.3     
  41 C41           -2.1839     5.0583    -1.8268 C.3     
  42 C42           -3.6896     5.2712    -1.9957 C.3     
  43 H43            9.2903     8.6438     5.2365 H       
  44 H44            8.7429     8.9139     1.0090 H       
  45 H45            5.3605     8.3616     3.5857 H       
  46 H46            4.3596     8.3834     2.0487 H       
  47 H47            0.0911     8.7741    -2.0156 H       
  48 H48           -0.0085     8.6260    -0.2446 H       
  49 H49            2.3972     8.5902    -3.1464 H       
  50 H50            5.9253     8.3988     8.2838 H       
  51 H51            5.3093    10.4320     9.5269 H       
  52 H52            6.8326    10.7807     4.8528 H       
  53 H53           11.0003     9.7526     4.7777 H       
  54 H54           11.1822     7.9872     4.6417 H       
  55 H55           16.0198     7.8717     1.7657 H       
  56 H56           16.8409     8.5820     3.1762 H       
  57 H57           15.9863     7.0285     3.3330 H       
  58 H58            6.2105    12.8085     6.1016 H       
  59 H59            7.5674    13.9426     8.7886 H       
  60 H60            6.6430    14.6418    10.1394 H       
  61 H61            7.1938    12.9511    10.2189 H       
  62 H62           -0.6932     3.9576     0.0306 H       
  63 H63            0.9618     3.7724    -0.5979 H       
  64 H64            0.2133     4.3275     2.3087 H       
  65 H65            0.7471     2.7601     1.6555 H       
  66 H66            1.8683     4.1423     1.6802 H       
  67 H67           -1.7714     4.6370    -2.7436 H       
  68 H68           -2.0046     4.3724    -0.9989 H       
  69 H69           -4.1704     4.3157    -2.2049 H       
  70 H70           -4.1020     5.6925    -1.0789 H       
  71 H71           -3.8689     5.9572    -2.8236 H       
@<TRIPOS>BOND
   1    1   41 1
   2    1   14 1
   3    2   39 1
   4    2   14 1
   5    3    4 ar
   6    3   21 1
   7    3    8 ar
   8    4    5 ar
   9    4   43 1
  10    5    6 ar
  11    5    9 1
  12    6    7 ar
  13    6   44 1
  14    7    8 ar
  15    7   10 1
  16    8   45 1
  17    9   26 1
  18   10   11 am
  19   10   12 2
  20   11   13 1
  21   11   46 1
  22   13   17 2
  23   13   18 1
  24   14   15 2
  25   14   16 1
  26   16   20 1
  27   16   47 1
  28   16   48 1
  29   17   20 1
  30   18   19 1
  31   19   20 2
  32   19   49 1
  33   21   22 1
  34   22   23 ar
  35   22   25 ar
  36   23   24 ar
  37   23   50 1
  38   24   33 ar
  39   24   51 1
  40   25   34 ar
  41   25   52 1
  42   26   27 1
  43   26   53 1
  44   26   54 1
  45   27   28 1
  46   27   29 2
  47   28   31 2
  48   29   30 1
  49   30   31 1
  50   30   32 1
  51   32   55 1
  52   32   56 1
  53   32   57 1
  54   33   34 ar
  55   33   35 1
  56   34   58 1
  57   35   36 2
  58   35   37 2
  59   35   38 1
  60   38   59 1
  61   38   60 1
  62   38   61 1
  63   39   40 1
  64   39   62 1
  65   39   63 1
  66   40   64 1
  67   40   65 1
  68   40   66 1
  69   41   42 1
  70   41   67 1
  71   41   68 1
  72   42   69 1
  73   42   70 1
  74   42   71 1

#	End of record

