#	Name: ASD01916858
#	Creating user name:	WinNT
#	Creation time:	15. 06. 2019 20:08

#	Modifying user name:	WinNT
#	Modification time:	15. 06. 2019 20:08

#	Program:	/corina/corina34_cracker 3.40 0067  02.08.2006

@<TRIPOS>MOLECULE
ASD01916858
  58   62    0    0    0
SMALL
NO_CHARGES


@<TRIPOS>ATOM
   1 C1            -0.0158     1.3119     0.0093 C.2     
   2 N2             0.0021    -0.0041     0.0020 N.2     
   3 N3            -1.3350    -0.4332     0.0125 N.pl3   
   4 C4            -2.0984     0.6948     0.0258 C.2     
   5 N5            -1.2836     1.7335     0.0294 N.2     
   6 C6             1.1819     2.1882     0.0025 C.ar    
   7 C7             1.0339     3.5737     0.0114 C.ar    
   8 C8             2.4576     1.6278    -0.0068 C.ar    
   9 C9             3.5684     2.4462    -0.0126 C.ar    
  10 C10            3.4167     3.8234    -0.0086 C.ar    
  11 C11            2.1501     4.3847     0.0056 C.ar    
  12 F12            4.5070     4.6211    -0.0138 F       
  13 C13           -1.8135    -1.8178     0.0092 C.3     
  14 C14           -1.9644    -2.3005     1.4288 C.2     
  15 N15           -2.3948    -3.5543     1.6720 N.am    
  16 O16           -1.6985    -1.5608     2.3523 O.2     
  17 C17           -2.5492    -4.0455     3.0498 C.3     
  18 C18           -3.9520    -4.6438     3.1990 C.3     
  19 N19           -4.1646    -5.6525     2.1525 N.3     
  20 C20           -4.1187    -5.0493     0.8138 C.3     
  21 C21           -2.7285    -4.4657     0.5669 C.3     
  22 C22           -5.3604    -6.3326     2.3517 C.ar    
  23 N23           -6.1263    -6.0238     3.3866 N.ar    
  24 C24           -7.2687    -6.6450     3.6117 C.ar    
  25 C25           -7.7079    -7.6465     2.7696 C.ar    
  26 C26           -6.9338    -8.0008     1.6723 C.ar    
  27 C27           -5.7445    -7.3280     1.4587 C.ar    
  28 C28           -3.5294     0.7451     0.0393 C.1     
  29 C29           -4.7027     0.7863     0.0504 C.1     
  30 C30           -6.1337     0.8365     0.0639 C.ar    
  31 C31           -6.7932     2.0689     0.0768 C.ar    
  32 C32           -8.1716     2.1092     0.0893 C.ar    
  33 C33           -8.9018     0.9337     0.0890 C.ar    
  34 C34           -8.2559    -0.2902     0.0767 C.ar    
  35 C35           -6.8781    -0.3466     0.0583 C.ar    
  36 H36            0.0470     4.0121     0.0224 H       
  37 H37            2.5767     0.5544    -0.0092 H       
  38 H38            4.5576     2.0127    -0.0198 H       
  39 H39            2.0363     5.4587     0.0086 H       
  40 H40           -2.7780    -1.8678    -0.4961 H       
  41 H41           -1.0957    -2.4490    -0.5148 H       
  42 H42           -1.8009    -4.8121     3.2512 H       
  43 H43           -2.4275    -3.2184     3.7492 H       
  44 H44           -4.0457    -5.1113     4.1792 H       
  45 H45           -4.6967    -3.8540     3.0996 H       
  46 H46           -4.3333    -5.8110     0.0642 H       
  47 H47           -4.8611    -4.2539     0.7476 H       
  48 H48           -2.7234    -3.9181    -0.3756 H       
  49 H49           -1.9947    -5.2708     0.5299 H       
  50 H50           -7.8675    -6.3663     4.4662 H       
  51 H51           -8.6438    -8.1498     2.9623 H       
  52 H52           -7.2553    -8.7814     0.9987 H       
  53 H53           -5.1183    -7.5778     0.6149 H       
  54 H54           -6.2247     2.9872     0.0774 H       
  55 H55           -8.6826     3.0607     0.0997 H       
  56 H56           -9.9811     0.9715     0.0989 H       
  57 H57           -8.8324    -1.2035     0.0769 H       
  58 H58           -6.3755    -1.3025     0.0484 H       
@<TRIPOS>BOND
   1    1    2 2
   2    1    6 1
   3    1    5 1
   4    2    3 1
   5    3    4 1
   6    3   13 1
   7    4    5 2
   8    4   28 1
   9    6    7 ar
  10    6    8 ar
  11    7   11 ar
  12    7   36 1
  13    8    9 ar
  14    8   37 1
  15    9   10 ar
  16    9   38 1
  17   10   11 ar
  18   10   12 1
  19   11   39 1
  20   13   14 1
  21   13   40 1
  22   13   41 1
  23   14   15 am
  24   14   16 2
  25   15   17 1
  26   15   21 1
  27   17   18 1
  28   17   42 1
  29   17   43 1
  30   18   19 1
  31   18   44 1
  32   18   45 1
  33   19   20 1
  34   19   22 1
  35   20   21 1
  36   20   46 1
  37   20   47 1
  38   21   48 1
  39   21   49 1
  40   22   23 ar
  41   22   27 ar
  42   23   24 ar
  43   24   25 ar
  44   24   50 1
  45   25   26 ar
  46   25   51 1
  47   26   27 ar
  48   26   52 1
  49   27   53 1
  50   28   29 3
  51   29   30 1
  52   30   31 ar
  53   30   35 ar
  54   31   32 ar
  55   31   54 1
  56   32   33 ar
  57   32   55 1
  58   33   34 ar
  59   33   56 1
  60   34   35 ar
  61   34   57 1
  62   35   58 1

#	End of record

