#	Name: ASD00171057
#	Creating user name:	WinNT
#	Creation time:	15. 06. 2019 18:32

#	Modifying user name:	WinNT
#	Modification time:	15. 06. 2019 18:32

#	Program:	/corina/corina34_cracker 3.40 0067  02.08.2006

@<TRIPOS>MOLECULE
ASD00171057
  62   65    0    0    0
SMALL
NO_CHARGES


@<TRIPOS>ATOM
   1 C1            -0.1411     1.4824     0.0025 C.ar    
   2 C2            -0.0595     0.0923     0.0012 C.ar    
   3 C3            -1.1971    -0.6633     0.0100 C.ar    
   4 C4            -2.4518    -0.0417     0.0200 C.ar    
   5 C5            -2.5367     1.3571     0.0213 C.ar    
   6 C6            -1.3857     2.1115     0.0182 C.ar    
   7 Cl7           -1.4831     3.8448     0.0205 Cl      
   8 C8            -3.6756    -0.8535     0.0285 C.2     
   9 C9            -4.8853    -0.2519     0.0381 C.2     
  10 C10           -6.1032    -1.0599     0.0466 C.2     
  11 N11           -7.3065    -0.4638     0.1615 N.am    
  12 O12           -6.0307    -2.2712    -0.0500 O.2     
  13 C13           -7.4049     0.9839     0.3946 C.3     
  14 C14           -8.2832     1.5983    -0.7023 C.3     
  15 N15           -9.5205     0.8123    -0.8085 N.am    
  16 C16           -9.4221    -0.6354    -1.0417 C.3     
  17 C17           -8.5438    -1.2489     0.0497 C.3     
  18 S18            1.3320     2.4491    -0.0084 S.3     
  19 C19            2.6028     1.2367     0.1327 C.ar    
  20 C20          -10.7238     1.4084    -0.6937 C.2     
  21 C21          -11.9840     0.5895    -0.8048 C.3     
  22 O22          -10.7924     2.6038    -0.5010 O.2     
  23 C23            3.2205     0.7501    -1.0048 C.ar    
  24 C24            4.2268    -0.2106    -0.8854 C.ar    
  25 C25            4.6063    -0.6775     0.3857 C.ar    
  26 C26            3.9734    -0.1755     1.5186 C.ar    
  27 C27            2.9863     0.7750     1.3918 C.ar    
  28 C28            5.0695    -0.9246    -1.8479 C.2     
  29 C29            5.8687    -1.7397    -1.1417 C.2     
  30 N30            5.6074    -1.6067     0.1945 N.pl3   
  31 C31            6.2893    -2.3413     1.2629 C.3     
  32 C32            5.4715    -3.5805     1.6322 C.3     
  33 O33            6.1367    -4.2971     2.6743 O.3     
  34 C34            5.4523    -5.4786     3.0958 C.3     
  35 H35            0.9068    -0.3900    -0.0072 H       
  36 H36           -1.1290    -1.7411     0.0089 H       
  37 H37           -3.5020     1.8413     0.0290 H       
  38 H38           -3.6086    -1.9314     0.0271 H       
  39 H39           -4.9523     0.8260     0.0396 H       
  40 H40           -7.8556     1.1675     1.3699 H       
  41 H41           -6.4104     1.4286     0.3589 H       
  42 H42           -8.5256     2.6288    -0.4425 H       
  43 H43           -7.7514     1.5737    -1.6534 H       
  44 H44          -10.4166    -1.0801    -1.0059 H       
  45 H45           -8.9713    -0.8190    -2.0170 H       
  46 H46           -8.3022    -2.2792    -0.2114 H       
  47 H47           -9.0734    -1.2248     1.0021 H       
  48 H48          -11.9921    -0.1724    -0.0254 H       
  49 H49          -12.8511     1.2393    -0.6868 H       
  50 H50          -12.0202     0.1093    -1.7827 H       
  51 H51            2.9263     1.1107    -1.9794 H       
  52 H52            4.2592    -0.5295     2.4981 H       
  53 H53            2.4985     1.1609     2.2747 H       
  54 H54            5.0509    -0.8159    -2.9223 H       
  55 H55            6.6086    -2.4025    -1.5656 H       
  56 H56            7.2777    -2.6472     0.9199 H       
  57 H57            6.3910    -1.6991     2.1377 H       
  58 H58            4.4832    -3.2746     1.9752 H       
  59 H59            5.3698    -4.2227     0.7573 H       
  60 H60            4.4636    -5.2121     3.4692 H       
  61 H61            5.3502    -6.1602     2.2513 H       
  62 H62            6.0211    -5.9648     3.8884 H       
@<TRIPOS>BOND
   1    1    2 ar
   2    1   18 1
   3    1    6 ar
   4    2    3 ar
   5    2   35 1
   6    3    4 ar
   7    3   36 1
   8    4    5 ar
   9    4    8 1
  10    5    6 ar
  11    5   37 1
  12    6    7 1
  13    8    9 2
  14    8   38 1
  15    9   10 1
  16    9   39 1
  17   10   11 am
  18   10   12 2
  19   11   13 1
  20   11   17 1
  21   13   14 1
  22   13   40 1
  23   13   41 1
  24   14   15 1
  25   14   42 1
  26   14   43 1
  27   15   16 1
  28   15   20 am
  29   16   17 1
  30   16   44 1
  31   16   45 1
  32   17   46 1
  33   17   47 1
  34   18   19 1
  35   19   23 ar
  36   19   27 ar
  37   20   21 1
  38   20   22 2
  39   21   48 1
  40   21   49 1
  41   21   50 1
  42   23   24 ar
  43   23   51 1
  44   24   25 ar
  45   24   28 1
  46   25   26 ar
  47   25   30 1
  48   26   27 ar
  49   26   52 1
  50   27   53 1
  51   28   29 2
  52   28   54 1
  53   29   30 1
  54   29   55 1
  55   30   31 1
  56   31   32 1
  57   31   56 1
  58   31   57 1
  59   32   33 1
  60   32   58 1
  61   32   59 1
  62   33   34 1
  63   34   60 1
  64   34   61 1
  65   34   62 1

#	End of record

