#	Name: ASD08150740
#	Creating user name:	WinNT
#	Creation time:	15. 06. 2019 21:16

#	Modifying user name:	WinNT
#	Modification time:	15. 06. 2019 21:16

#	Program:	/corina/corina34_cracker 3.40 0067  02.08.2006

@<TRIPOS>MOLECULE
ASD08150740
  45   49    0    0    0
SMALL
NO_CHARGES


@<TRIPOS>ATOM
   1 C1            -0.0158     1.3173     0.0093 C.2     
   2 N2             0.0021    -0.0041     0.0020 N.2     
   3 C3             1.1378    -0.6845    -0.0125 C.2     
   4 C4             2.3426     0.0136    -0.0203 C.2     
   5 C5             2.3159     1.4209    -0.0125 C.2     
   6 N6             1.1165     2.0732     0.0025 N.am    
   7 S7            -1.3644     2.4678     0.0210 S.3     
   8 C8             0.9177     3.4317     0.0113 C.2     
   9 C9            -0.3185     3.8985     0.0239 C.2     
  10 O10            3.3585     2.0542    -0.0191 O.2     
  11 C11            5.6881    -1.3124    -1.1050 C.ar    
  12 C12            4.4972    -0.6187    -1.1321 C.ar    
  13 C13            3.6317    -0.7131    -0.0361 C.ar    
  14 C14            4.0194    -1.5135     1.0449 C.ar    
  15 C15            5.2289    -2.1725     0.9886 C.ar    
  16 N16            6.0156    -2.0565    -0.0650 N.ar    
  17 C17            1.1267    -2.1915    -0.0200 C.3     
  18 C18            0.5261    -2.7036     1.2907 C.3     
  19 N19            0.3199    -2.6683    -1.1460 N.pl3   
  20 N20           -1.2296    -3.8945    -3.5011 N.2     
  21 C21           -1.5807    -4.7651    -4.4024 C.2     
  22 N22           -0.8059    -5.8819    -4.2978 N.pl3   
  23 C23            0.0739    -5.6769    -3.2653 C.ar    
  24 N24            1.0469    -6.3887    -2.7061 N.ar    
  25 C25            1.7373    -5.9039    -1.6955 C.ar    
  26 N26            1.5065    -4.7064    -1.1891 N.ar    
  27 C27            0.5538    -3.9221    -1.6830 C.ar    
  28 C28           -0.2102    -4.3957    -2.7629 C.ar    
  29 C29            2.0918     4.3764     0.0056 C.3     
  30 H30           -0.6266     4.9336     0.0302 H       
  31 H31            6.3605    -1.2495    -1.9478 H       
  32 H32            4.2359    -0.0115    -1.9862 H       
  33 H33            3.3807    -1.6130     1.9101 H       
  34 H34            5.5368    -2.7924     1.8176 H       
  35 H35            2.1468    -2.5618    -0.1214 H       
  36 H36           -0.4940    -2.3332     1.3921 H       
  37 H37            0.5181    -3.7935     1.2853 H       
  38 H38            1.1264    -2.3488     2.1285 H       
  39 H39           -0.3783    -2.1052    -1.5152 H       
  40 H40           -2.3698    -4.6240    -5.1261 H       
  41 H41           -0.8659    -6.6760    -4.8517 H       
  42 H42            2.5214    -6.5084    -1.2641 H       
  43 H43            2.3657     4.6095    -1.0233 H       
  44 H44            1.8216     5.2949     0.5267 H       
  45 H45            2.9374     3.9082     0.5095 H       
@<TRIPOS>BOND
   1    1    2 2
   2    1    6 1
   3    1    7 1
   4    2    3 1
   5    3    4 2
   6    3   17 1
   7    4    5 1
   8    4   13 1
   9    5    6 am
  10    5   10 2
  11    6    8 1
  12    7    9 1
  13    8    9 2
  14    8   29 1
  15    9   30 1
  16   11   12 ar
  17   11   16 ar
  18   11   31 1
  19   12   13 ar
  20   12   32 1
  21   13   14 ar
  22   14   15 ar
  23   14   33 1
  24   15   16 ar
  25   15   34 1
  26   17   18 1
  27   17   19 1
  28   17   35 1
  29   18   36 1
  30   18   37 1
  31   18   38 1
  32   19   27 1
  33   19   39 1
  34   20   21 2
  35   20   28 1
  36   21   22 1
  37   21   40 1
  38   22   23 1
  39   22   41 1
  40   23   24 ar
  41   23   28 ar
  42   24   25 ar
  43   25   26 ar
  44   25   42 1
  45   26   27 ar
  46   27   28 ar
  47   29   43 1
  48   29   44 1
  49   29   45 1

#	End of record

