#	Name: ASD01885499
#	Creating user name:	WinNT
#	Creation time:	15. 06. 2019 19:49

#	Modifying user name:	WinNT
#	Modification time:	15. 06. 2019 19:49

#	Program:	/corina/corina34_cracker 3.40 0067  02.08.2006

@<TRIPOS>MOLECULE
ASD01885499
  37   39    0    0    0
SMALL
NO_CHARGES


@<TRIPOS>ATOM
   1 C1            -0.0387     1.4168     0.0072 C.ar    
   2 C2            -0.0161     0.0212     0.0397 C.ar    
   3 N3            -1.1306    -0.7506     0.0521 N.2     
   4 C4            -2.1918    -0.5674    -0.6472 C.2     
   5 C5            -2.3338     0.6068    -1.5797 C.3     
   6 C6            -2.2856     1.8691    -0.7564 C.2     
   7 N7            -1.2068     2.1681    -0.0336 N.am    
   8 C8             1.1629     2.1196     0.0093 C.ar    
   9 C9             2.3795     1.4403     0.0380 C.ar    
  10 C10            2.3930     0.0417     0.0649 C.ar    
  11 C11            1.2211    -0.6503     0.0658 C.ar    
  12 C12           -3.2991    -1.5311    -0.5349 C.ar    
  13 O13           -3.2378     2.6204    -0.7534 O.2     
  14 C14           -3.1341    -2.7061     0.2064 C.ar    
  15 C15           -4.1718    -3.6102     0.3121 C.ar    
  16 C16           -5.3785    -3.3629    -0.3120 C.ar    
  17 C17           -5.5584    -2.1933    -1.0561 C.ar    
  18 C18           -4.5187    -1.2724    -1.1630 C.ar    
  19 C19            3.6479     2.1931     0.0395 C.2     
  20 O20            3.6334     3.4079     0.0157 O.2     
  21 O21            4.8227     1.5337     0.0673 O.3     
  22 C22            6.0309     2.3391     0.0670 C.3     
  23 C23           -6.8107    -1.9398    -1.7026 C.1     
  24 N24           -7.8042    -1.7386    -2.2154 N.1     
  25 H25           -1.5155     0.6058    -2.2998 H       
  26 H26           -3.2870     0.5464    -2.1050 H       
  27 H27           -1.2399     2.9716     0.5088 H       
  28 H28            1.1523     3.1994    -0.0119 H       
  29 H29            3.3335    -0.4889     0.0850 H       
  30 H30            1.2405    -1.7299     0.0865 H       
  31 H31           -2.1928    -2.9064     0.6965 H       
  32 H32           -4.0391    -4.5157     0.8855 H       
  33 H33           -6.1855    -4.0753    -0.2252 H       
  34 H34           -4.6524    -0.3671    -1.7367 H       
  35 H35            6.0596     2.9508    -0.8347 H       
  36 H36            6.0369     2.9854     0.9447 H       
  37 H37            6.9031     1.6858     0.0908 H       
@<TRIPOS>BOND
   1    1    2 ar
   2    1    8 ar
   3    1    7 1
   4    2    3 1
   5    2   11 ar
   6    3    4 2
   7    4    5 1
   8    4   12 1
   9    5    6 1
  10    5   25 1
  11    5   26 1
  12    6    7 am
  13    6   13 2
  14    7   27 1
  15    8    9 ar
  16    8   28 1
  17    9   10 ar
  18    9   19 1
  19   10   11 ar
  20   10   29 1
  21   11   30 1
  22   12   14 ar
  23   12   18 ar
  24   14   15 ar
  25   14   31 1
  26   15   16 ar
  27   15   32 1
  28   16   17 ar
  29   16   33 1
  30   17   23 1
  31   17   18 ar
  32   18   34 1
  33   19   20 2
  34   19   21 1
  35   21   22 1
  36   22   35 1
  37   22   36 1
  38   22   37 1
  39   23   24 3

#	End of record

