#	Name: ASD08070060
#	Creating user name:	WinNT
#	Creation time:	15. 06. 2019 21:14

#	Modifying user name:	WinNT
#	Modification time:	15. 06. 2019 21:14

#	Program:	/corina/corina34_cracker 3.40 0067  02.08.2006

@<TRIPOS>MOLECULE
ASD08070060
  41   41    0    0    0
SMALL
NO_CHARGES


@<TRIPOS>ATOM
   1 C1            -0.0166     1.3718     0.0096 C.ar    
   2 C2             0.0021    -0.0041     0.0020 C.ar    
   3 C3             1.1837     2.0868     0.0020 C.ar    
   4 C4             2.4030     1.4051    -0.0133 C.ar    
   5 C5             2.4221     0.0292    -0.0213 C.ar    
   6 C6             1.2216    -0.6862    -0.0133 C.ar    
   7 C7             1.2419    -2.1629    -0.0214 C.2     
   8 O8             2.3029    -2.7562    -0.0350 O.2     
   9 C9            -1.2021    -4.8422    -0.6212 C.3     
  10 C10            0.1041    -4.3176    -0.0216 C.3     
  11 N11            0.0841    -2.8527    -0.0136 N.am    
  12 C12            0.2488    -4.8257     1.3897 C.2     
  13 O13            0.3272    -4.0444     2.3081 O.2     
  14 C14            1.1634     3.5633     0.0096 C.2     
  15 C15           -1.2896    -4.4306    -2.0921 C.3     
  16 C16           -0.1758    -5.1207    -2.8821 C.3     
  17 O17            0.2907    -6.1463     1.6266 O.3     
  18 C18            0.4314    -6.5637     3.0102 C.3     
  19 C19            2.3033     4.2425     0.0023 C.2     
  20 C20           -2.6490    -4.8462    -2.6580 C.3     
  21 H21           -0.9591     1.8990     0.0169 H       
  22 H22           -0.9258    -0.5568     0.0082 H       
  23 H23            3.3308     1.9580    -0.0192 H       
  24 H24            3.3647    -0.4978    -0.0335 H       
  25 H25           -1.2254    -5.9294    -0.5461 H       
  26 H26           -2.0469    -4.4221    -0.0754 H       
  27 H27            0.9450    -4.6661    -0.6213 H       
  28 H28           -0.7625    -2.3793    -0.0027 H       
  29 H29            0.2209     4.0904     0.0210 H       
  30 H30           -1.1771    -3.3495    -2.1742 H       
  31 H31            0.7927    -4.8245    -2.4789 H       
  32 H32           -0.2883    -6.2017    -2.8000 H       
  33 H33           -0.2382    -4.8274    -3.9300 H       
  34 H34            1.3597    -6.1634     3.4178 H       
  35 H35           -0.4117    -6.1886     3.5904 H       
  36 H36            0.4519    -7.6523     3.0610 H       
  37 H37            3.2458     3.7154    -0.0091 H       
  38 H38            2.2885     5.3224     0.0079 H       
  39 H39           -3.4425    -4.3546    -2.0953 H       
  40 H40           -2.7114    -4.5529    -3.7060 H       
  41 H41           -2.7615    -5.9273    -2.5760 H       
@<TRIPOS>BOND
   1    1    2 ar
   2    1    3 ar
   3    1   21 1
   4    2    6 ar
   5    2   22 1
   6    3    4 ar
   7    3   14 1
   8    4    5 ar
   9    4   23 1
  10    5    6 ar
  11    5   24 1
  12    6    7 1
  13    7    8 2
  14    7   11 am
  15    9   15 1
  16    9   10 1
  17    9   25 1
  18    9   26 1
  19   10   12 1
  20   10   11 1
  21   10   27 1
  22   11   28 1
  23   12   13 2
  24   12   17 1
  25   14   19 2
  26   14   29 1
  27   15   16 1
  28   15   20 1
  29   15   30 1
  30   16   31 1
  31   16   32 1
  32   16   33 1
  33   17   18 1
  34   18   34 1
  35   18   35 1
  36   18   36 1
  37   19   37 1
  38   19   38 1
  39   20   39 1
  40   20   40 1
  41   20   41 1

#	End of record

