#	Name: ASD08070679
#	Creating user name:	WinNT
#	Creation time:	15. 06. 2019 21:15

#	Modifying user name:	WinNT
#	Modification time:	15. 06. 2019 21:15

#	Program:	/corina/corina34_cracker 3.40 0067  02.08.2006

@<TRIPOS>MOLECULE
ASD08070679
  41   42    0    0    0
SMALL
NO_CHARGES


@<TRIPOS>ATOM
   1 C1             0.5995     1.0294     0.3695 C.ar    
   2 C2             0.7858    -0.3361     0.4573 C.ar    
   3 C3             2.0779    -0.8636     0.4805 C.ar    
   4 C4             3.1759    -0.0168     0.4155 C.ar    
   5 C5             2.9961     1.3467     0.3283 C.ar    
   6 C6             1.7058     1.8808     0.3041 C.ar    
   7 O7            -0.1065    -1.3668     0.5320 O.3     
   8 C8             0.6421    -2.5479     0.1890 C.3     
   9 O9             1.9914    -2.2215     0.5703 O.3     
  10 C10            1.5111     3.3410     0.2102 C.2     
  11 N11            2.5792     4.1606     0.1478 N.am    
  12 O12            0.3872     3.8043     0.1892 O.2     
  13 C13            2.3860     5.6098     0.0546 C.3     
  14 C14            2.2059     6.1916     1.4582 C.3     
  15 C15            3.6096     6.2459    -0.6080 C.3     
  16 C16            3.7289     5.7430    -2.0480 C.3     
  17 C17            2.5347     6.2429    -2.8634 C.3     
  18 C18            5.0253     6.2700    -2.6665 C.3     
  19 O19            3.4124     6.0182     2.2041 O.3     
  20 C20            3.3505     6.5302     3.5368 C.3     
  21 H21           -0.3998     1.4384     0.3470 H       
  22 H22            4.1745    -0.4278     0.4336 H       
  23 H23            3.8529     2.0023     0.2783 H       
  24 H24            0.2817    -3.4073     0.7543 H       
  25 H25            0.5830    -2.7409    -0.8822 H       
  26 H26            3.4758     3.7909     0.1646 H       
  27 H27            1.4988     5.8204    -0.5425 H       
  28 H28            1.9740     7.2541     1.3841 H       
  29 H29            1.3893     5.6758     1.9633 H       
  30 H30            3.4992     7.3303    -0.6098 H       
  31 H31            4.5067     5.9730    -0.0523 H       
  32 H32            3.7411     4.6531    -2.0524 H       
  33 H33            2.5225     7.3328    -2.8591 H       
  34 H34            2.6197     5.8846    -3.8894 H       
  35 H35            1.6112     5.8675    -2.4228 H       
  36 H36            4.9765     7.3563    -2.7420 H       
  37 H37            5.8693     5.9870    -2.0375 H       
  38 H38            5.1537     5.8421    -3.6608 H       
  39 H39            4.3044     6.3600     4.0361 H       
  40 H40            3.1424     7.5997     3.5058 H       
  41 H41            2.5576     6.0215     4.0850 H       
@<TRIPOS>BOND
   1    1    2 ar
   2    1    6 ar
   3    1   21 1
   4    2    3 ar
   5    2    7 1
   6    3    4 ar
   7    3    9 1
   8    4    5 ar
   9    4   22 1
  10    5    6 ar
  11    5   23 1
  12    6   10 1
  13    7    8 1
  14    8    9 1
  15    8   24 1
  16    8   25 1
  17   10   11 am
  18   10   12 2
  19   11   13 1
  20   11   26 1
  21   13   14 1
  22   13   15 1
  23   13   27 1
  24   14   19 1
  25   14   28 1
  26   14   29 1
  27   15   16 1
  28   15   30 1
  29   15   31 1
  30   16   17 1
  31   16   18 1
  32   16   32 1
  33   17   33 1
  34   17   34 1
  35   17   35 1
  36   18   36 1
  37   18   37 1
  38   18   38 1
  39   19   20 1
  40   20   39 1
  41   20   40 1
  42   20   41 1

#	End of record

