#	Name: ASD09610061
#	Creating user name:	WinNT
#	Creation time:	15. 06. 2019 21:22

#	Modifying user name:	WinNT
#	Modification time:	15. 06. 2019 21:22

#	Program:	/corina/corina34_cracker 3.40 0067  02.08.2006

@<TRIPOS>MOLECULE
ASD09610061
  47   49    0    0    0
SMALL
NO_CHARGES


@<TRIPOS>ATOM
   1 C1            -2.3526     1.4712     0.0236 C.2     
   2 C2            -2.3324    -0.0356     0.0126 C.3     
   3 O3            -3.4107     2.0633     0.0417 O.2     
   4 N4            -1.1945     2.1607     0.0190 N.am    
   5 C5            -3.7462    -0.5571     0.0273 C.ar    
   6 C6            -4.4103    -0.7877    -1.1629 C.ar    
   7 C7            -5.7072    -1.2660    -1.1494 C.ar    
   8 C8            -6.3398    -1.5141     0.0544 C.ar    
   9 C9            -5.6754    -1.2843     1.2446 C.ar    
  10 C10           -4.3770    -0.8102     1.2310 C.ar    
  11 C11           -1.2116     3.5470    -0.0778 C.2     
  12 C12           -2.4901     4.2572    -0.2899 C.ar    
  13 C13           -2.9448     4.5131    -1.5861 C.ar    
  14 C14           -4.1429     5.1786    -1.7766 C.ar    
  15 C15           -4.8916     5.5913    -0.6866 C.ar    
  16 C16           -4.4493     5.3428     0.5990 C.ar    
  17 C17           -3.2549     4.6721     0.8067 C.ar    
  18 F18           -4.5835     5.4271    -3.0293 F       
  19 F19           -2.2162     4.1120    -2.6508 F       
  20 O20           -2.8246     4.4227     2.0705 O.3     
  21 C21           -3.6569     4.8753     3.1403 C.3     
  22 F22           -3.8047     6.2642     3.0607 F       
  23 F23           -4.9127     4.2664     3.0438 F       
  24 N24           -0.1022     4.2194     0.0182 N.2     
  25 O25            1.1069     3.5501     0.3270 O.3     
  26 C26            2.2452     4.4108     0.4007 C.3     
  27 C27            3.4881     3.5849     0.7383 C.3     
  28 C28            4.8361     4.3085     0.7472 C.3     
  29 C29            4.1910     3.8765     2.0656 C.3     
  30 H30           -1.8254    -0.3856    -0.8866 H       
  31 H31           -1.8021    -0.3984     0.8931 H       
  32 H32           -0.3492     1.6894     0.0833 H       
  33 H33           -3.9160    -0.5939    -2.1034 H       
  34 H34           -6.2262    -1.4455    -2.0793 H       
  35 H35           -7.3533    -1.8871     0.0649 H       
  36 H36           -6.1698    -1.4778     2.1851 H       
  37 H37           -3.8567    -0.6342     2.1609 H       
  38 H38           -5.8258     6.1103    -0.8423 H       
  39 H39           -5.0383     5.6683     1.4437 H       
  40 H40           -3.1982     4.6128     4.0936 H       
  41 H41            2.3883     4.9069    -0.5593 H       
  42 H42            2.0849     5.1597     1.1763 H       
  43 H43            3.4739     2.5514     0.3923 H       
  44 H44            5.7089     3.7509     0.4075 H       
  45 H45            4.8375     5.3730     0.5126 H       
  46 H46            3.7679     4.6567     2.6983 H       
  47 H47            4.6393     3.0347     2.5932 H       
@<TRIPOS>BOND
   1    1    2 1
   2    1    3 2
   3    1    4 am
   4    2    5 1
   5    2   30 1
   6    2   31 1
   7    4   11 1
   8    4   32 1
   9    5    6 ar
  10    5   10 ar
  11    6    7 ar
  12    6   33 1
  13    7    8 ar
  14    7   34 1
  15    8    9 ar
  16    8   35 1
  17    9   10 ar
  18    9   36 1
  19   10   37 1
  20   11   12 1
  21   11   24 2
  22   12   13 ar
  23   12   17 ar
  24   13   14 ar
  25   13   19 1
  26   14   15 ar
  27   14   18 1
  28   15   16 ar
  29   15   38 1
  30   16   17 ar
  31   16   39 1
  32   17   20 1
  33   20   21 1
  34   21   22 1
  35   21   23 1
  36   21   40 1
  37   24   25 1
  38   25   26 1
  39   26   27 1
  40   26   41 1
  41   26   42 1
  42   27   28 1
  43   27   29 1
  44   27   43 1
  45   28   29 1
  46   28   44 1
  47   28   45 1
  48   29   46 1
  49   29   47 1

#	End of record

