#	Name: ASD01911915
#	Creating user name:	WinNT
#	Creation time:	15. 06. 2019 19:58

#	Modifying user name:	WinNT
#	Modification time:	15. 06. 2019 19:58

#	Program:	/corina/corina34_cracker 3.40 0067  02.08.2006

@<TRIPOS>MOLECULE
ASD01911915
  36   38    0    0    0
SMALL
NO_CHARGES


@<TRIPOS>ATOM
   1 C1            -1.0508    -0.5005    -2.0854 C.ar    
   2 C2            -1.0554     0.0493    -0.8075 C.ar    
   3 C3            -1.0157     1.4346    -0.6857 C.ar    
   4 N4            -0.9753     2.1745    -1.7815 N.ar    
   5 C5            -0.9724     1.6158    -2.9751 C.ar    
   6 N6            -1.0092     0.3078    -3.1318 N.ar    
   7 O7            -1.0980    -0.7463     0.2935 O.3     
   8 C8            -1.1390    -2.0917     0.1071 C.ar    
   9 C9             0.0164    -2.7807    -0.2344 C.ar    
  10 C10           -0.0242    -4.1509    -0.4244 C.ar    
  11 C11           -1.2167    -4.8370    -0.2744 C.ar    
  12 C12           -2.3747    -4.1509     0.0677 C.ar    
  13 C13           -2.3337    -2.7771     0.2636 C.ar    
  14 N14           -3.5799    -4.8438     0.2188 N.am    
  15 C15           -4.7454    -4.2454    -0.0973 C.2     
  16 C16           -6.0258    -4.9381     0.1606 C.ar    
  17 O17           -4.7439    -3.1361    -0.5945 O.2     
  18 C18           -6.0289    -6.2125     0.7316 C.ar    
  19 F19            1.1016    -4.8196    -0.7572 F       
  20 C20           -7.2260    -6.8620     0.9735 C.ar    
  21 C21           -8.4256    -6.2544     0.6518 C.ar    
  22 C22           -8.4346    -4.9795     0.0800 C.ar    
  23 C23           -7.2317    -4.3183    -0.1605 C.ar    
  24 C24           -9.6776    -4.3514    -0.2533 C.1     
  25 N25          -10.6637    -3.8532    -0.5176 N.1     
  26 F26           -7.2230    -8.0949     1.5258 F       
  27 H27           -1.0764    -1.5716    -2.2211 H       
  28 H28           -1.0182     1.8991     0.2893 H       
  29 H29           -0.9393     2.2481    -3.8500 H       
  30 H30            0.9479    -2.2471    -0.3522 H       
  31 H31           -1.2469    -5.9062    -0.4238 H       
  32 H32           -3.2332    -2.2419     0.5300 H       
  33 H33           -3.5770    -5.7550     0.5512 H       
  34 H34           -5.0949    -6.6920     0.9846 H       
  35 H35           -9.3573    -6.7662     0.8424 H       
  36 H36           -7.2338    -3.3328    -0.6023 H       
@<TRIPOS>BOND
   1    1    2 ar
   2    1    6 ar
   3    1   27 1
   4    2    3 ar
   5    2    7 1
   6    3    4 ar
   7    3   28 1
   8    4    5 ar
   9    5    6 ar
  10    5   29 1
  11    7    8 1
  12    8    9 ar
  13    8   13 ar
  14    9   10 ar
  15    9   30 1
  16   10   11 ar
  17   10   19 1
  18   11   12 ar
  19   11   31 1
  20   12   13 ar
  21   12   14 1
  22   13   32 1
  23   14   15 am
  24   14   33 1
  25   15   16 1
  26   15   17 2
  27   16   18 ar
  28   16   23 ar
  29   18   20 ar
  30   18   34 1
  31   20   21 ar
  32   20   26 1
  33   21   22 ar
  34   21   35 1
  35   22   23 ar
  36   22   24 1
  37   23   36 1
  38   24   25 3

#	End of record

