#	Name: ASD01811669
#	Creating user name:	WinNT
#	Creation time:	15. 06. 2019 19:27

#	Modifying user name:	WinNT
#	Modification time:	15. 06. 2019 19:27

#	Program:	/corina/corina34_cracker 3.40 0067  02.08.2006

@<TRIPOS>MOLECULE
ASD01811669
  58   62    0    0    0
SMALL
NO_CHARGES


@<TRIPOS>ATOM
   1 C1            -0.0166     1.3742     0.0096 C.ar    
   2 C2             0.0021    -0.0041     0.0020 C.ar    
   3 C3             1.2111    -0.6896    -0.0127 C.ar    
   4 C4             2.4080    -0.0038    -0.0205 C.ar    
   5 C5             1.1888     2.0821     0.0019 C.ar    
   6 C6             1.5317     3.5068     0.0058 C.2     
   7 C7             2.4113     1.3875    -0.0135 C.ar    
   8 N8             3.4144     2.3309    -0.0177 N.pl3   
   9 C9             2.8710     3.5880    -0.0068 C.2     
  10 C10            4.8490     2.0341    -0.0314 C.3     
  11 C11            5.3037     1.8177    -1.4517 C.ar    
  12 S12            0.3999     4.8572     0.0237 S.o2    
  13 O13           -0.4779     4.5645     1.1021 O.2     
  14 O14            1.2303     6.0101     0.0472 O.2     
  15 C15           -0.4752     4.7353    -1.5606 C.3     
  16 C16           -1.4834     5.8506    -1.6647 C.2     
  17 C17           -2.3466     5.9737    -2.8938 C.3     
  18 O18           -1.5995     6.6456    -0.7632 O.2     
  19 C19           -3.2620     7.1619    -2.7478 C.2     
  20 C20            5.2688     0.5540    -2.0105 C.ar    
  21 C21            5.7559     2.8864    -2.2130 C.ar    
  22 C22            6.1641     2.6456    -3.5132 C.ar    
  23 C23            6.1073     1.3454    -4.0107 C.ar    
  24 N24            5.6637     0.3518    -3.2515 N.ar    
  25 C25            6.5407     1.0708    -5.4025 C.2     
  26 C26            7.1190     1.9971    -6.2930 C.2     
  27 N27            7.3624     1.3798    -7.4183 N.2     
  28 N28            6.9531     0.0468    -7.2927 N.pl3   
  29 C29            6.4576    -0.1271    -6.0522 C.2     
  30 C30           -3.3953     8.2440    -3.6479 C.2     
  31 N31           -4.0907     7.3925    -1.7708 N.2     
  32 O32           -4.6920     8.4290    -1.9322 O.3     
  33 C33           -4.3311     9.0357    -3.0717 C.2     
  34 C34           -4.8640    10.3395    -3.6077 C.3     
  35 C35            7.0518    -0.9830    -8.3300 C.3     
  36 F36           -1.1936     2.0374     0.0188 F       
  37 F37            1.2140    -2.0406    -0.0191 F       
  38 H38           -0.9274    -0.5541     0.0079 H       
  39 H39            3.3417    -0.5464    -0.0316 H       
  40 H40            3.4365     4.5081    -0.0076 H       
  41 H41            5.3972     2.8706     0.4022 H       
  42 H42            5.0392     1.1334     0.5523 H       
  43 H43            0.2410     4.8154    -2.3784 H       
  44 H44           -0.9881     3.7753    -1.6195 H       
  45 H45           -1.7132     6.1086    -3.7706 H       
  46 H46           -2.9422     5.0685    -3.0117 H       
  47 H47            4.9135    -0.2790    -1.4221 H       
  48 H48            5.7883     3.8838    -1.8000 H       
  49 H49            6.5213     3.4542    -4.1336 H       
  50 H50            7.3247     3.0362    -6.0822 H       
  51 H51            6.0640    -1.0471    -5.6458 H       
  52 H52           -2.8719     8.4027    -4.5792 H       
  53 H53           -5.7315    10.1455    -4.2385 H       
  54 H54           -5.1555    10.9819    -2.7768 H       
  55 H55           -4.0906    10.8340    -4.1954 H       
  56 H56            8.0111    -1.4935    -8.2450 H       
  57 H57            6.2441    -1.7040    -8.2042 H       
  58 H58            6.9737    -0.5176    -9.3126 H       
@<TRIPOS>BOND
   1    1    2 ar
   2    1    5 ar
   3    1   36 1
   4    2    3 ar
   5    2   38 1
   6    3    4 ar
   7    3   37 1
   8    4    7 ar
   9    4   39 1
  10    5    7 ar
  11    5    6 1
  12    6    9 2
  13    6   12 1
  14    7    8 1
  15    8    9 1
  16    8   10 1
  17    9   40 1
  18   10   11 1
  19   10   41 1
  20   10   42 1
  21   11   21 ar
  22   11   20 ar
  23   12   13 2
  24   12   14 2
  25   12   15 1
  26   15   16 1
  27   15   43 1
  28   15   44 1
  29   16   17 1
  30   16   18 2
  31   17   19 1
  32   17   45 1
  33   17   46 1
  34   19   31 2
  35   19   30 1
  36   20   24 ar
  37   20   47 1
  38   21   22 ar
  39   21   48 1
  40   22   23 ar
  41   22   49 1
  42   23   24 ar
  43   23   25 1
  44   25   26 1
  45   25   29 2
  46   26   27 2
  47   26   50 1
  48   27   28 1
  49   28   29 1
  50   28   35 1
  51   29   51 1
  52   30   33 2
  53   30   52 1
  54   31   32 1
  55   32   33 1
  56   33   34 1
  57   34   53 1
  58   34   54 1
  59   34   55 1
  60   35   56 1
  61   35   57 1
  62   35   58 1

#	End of record

