#	Name: ASD02508243
#	Creating user name:	WinNT
#	Creation time:	15. 06. 2019 20:24

#	Modifying user name:	WinNT
#	Modification time:	15. 06. 2019 20:24

#	Program:	/corina/corina34_cracker 3.40 0067  02.08.2006

@<TRIPOS>MOLECULE
ASD02508243
  38   41    0    0    0
SMALL
NO_CHARGES


@<TRIPOS>ATOM
   1 C1             0.2514     0.6096    -0.3400 C.ar    
   2 C2             0.0030    -0.7477    -0.5425 C.ar    
   3 C3            -1.2909    -1.2332    -0.4349 C.ar    
   4 C4            -2.3265    -0.3721    -0.1283 C.ar    
   5 C5            -2.0789     0.9749     0.0721 C.ar    
   6 C6            -0.7920     1.4668    -0.0276 C.ar    
   7 S7            -3.9705    -0.9913     0.0080 S.o2    
   8 N8            -4.2470    -1.2990     1.6115 N.am    
   9 C9            -3.4674    -2.2406     2.2863 C.ar    
  10 N10            1.6231     0.7937    -0.5124 N.am    
  11 C11            2.1595    -0.4078    -0.8046 C.2     
  12 O12            1.1909    -1.3369    -0.8239 O.3     
  13 O13           -4.8334     0.0795    -0.3498 O.2     
  14 O14           -3.9807    -2.2508    -0.6499 O.2     
  15 C15            2.3483     2.0613    -0.3970 C.3     
  16 O16            3.3381    -0.6175    -1.0177 O.2     
  17 C17           -2.9511    -1.9369     3.5274 C.ar    
  18 C18           -3.2217    -3.4873     1.6990 C.ar    
  19 C19           -2.4665    -4.4231     2.3328 C.ar    
  20 C20           -1.9188    -4.1454     3.5978 C.ar    
  21 C21           -2.1685    -2.8870     4.2005 C.ar    
  22 C22           -1.6173    -2.6151     5.4675 C.ar    
  23 N23           -1.1729    -5.0519     4.2377 N.ar    
  24 C24           -0.6580    -4.8019     5.4168 C.ar    
  25 C25           -0.8610    -3.5840     6.0627 C.ar    
  26 H26           -1.4892    -2.2833    -0.5910 H       
  27 H27           -2.8936     1.6424     0.3109 H       
  28 H28           -0.6006     2.5180     0.1294 H       
  29 H29           -4.9506    -0.8251     2.0820 H       
  30 H30            2.6777     2.1989     0.6329 H       
  31 H31            3.2157     2.0450    -1.0568 H       
  32 H32            1.6910     2.8831    -0.6811 H       
  33 H33           -3.1470    -0.9752     3.9781 H       
  34 H34           -3.6387    -3.7091     0.7277 H       
  35 H35           -2.2874    -5.3799     1.8649 H       
  36 H36           -1.7875    -1.6665     5.9549 H       
  37 H37           -0.0613    -5.5606     5.9013 H       
  38 H38           -0.4230    -3.4076     7.0340 H       
@<TRIPOS>BOND
   1    1    2 ar
   2    1   10 1
   3    1    6 ar
   4    2    3 ar
   5    2   12 1
   6    3    4 ar
   7    3   26 1
   8    4    5 ar
   9    4    7 1
  10    5    6 ar
  11    5   27 1
  12    6   28 1
  13    7    8 am
  14    7   13 2
  15    7   14 2
  16    8    9 1
  17    8   29 1
  18    9   17 ar
  19    9   18 ar
  20   10   11 am
  21   10   15 1
  22   11   12 1
  23   11   16 2
  24   15   30 1
  25   15   31 1
  26   15   32 1
  27   17   21 ar
  28   17   33 1
  29   18   19 ar
  30   18   34 1
  31   19   20 ar
  32   19   35 1
  33   20   21 ar
  34   20   23 ar
  35   21   22 ar
  36   22   25 ar
  37   22   36 1
  38   23   24 ar
  39   24   25 ar
  40   24   37 1
  41   25   38 1

#	End of record

