#	Name: ASD01908005
#	Creating user name:	WinNT
#	Creation time:	15. 06. 2019 19:54

#	Modifying user name:	WinNT
#	Modification time:	15. 06. 2019 19:54

#	Program:	/corina/corina34_cracker 3.40 0067  02.08.2006

@<TRIPOS>MOLECULE
ASD01908005
  17   18    0    0    0
SMALL
NO_CHARGES


@<TRIPOS>ATOM
   1 S1            -0.0210     1.6951     0.0114 S.3     
   2 N2             0.0021    -0.0041     0.0020 N.2     
   3 C3             1.2677    -0.3405    -0.0119 C.2     
   4 N4             2.1563     0.6345    -0.0151 N.2     
   5 C5             1.6938     1.8588    -0.0041 C.2     
   6 N6             2.9172    -3.5748    -0.0437 N.pl3   
   7 N7             1.5713    -3.9604    -0.0332 N.2     
   8 C8             0.8309    -2.8838    -0.0209 C.2     
   9 C9             1.6863    -1.7647    -0.0230 C.2     
  10 C10            2.9697    -2.2278    -0.0373 C.2     
  11 C11           -0.6755    -2.8460    -0.0072 C.3     
  12 F12           -1.1737    -4.1484     0.1058 F       
  13 F13           -1.1130    -2.0833     1.0809 F       
  14 F14           -1.1384    -2.2711    -1.1957 F       
  15 Cl15           2.6118     3.3322    -0.0061 Cl      
  16 H16            3.6802    -4.1737    -0.0502 H       
  17 H17            3.8655    -1.6244    -0.0419 H       
@<TRIPOS>BOND
   1    1    2 1
   2    1    5 1
   3    2    3 2
   4    3    4 1
   5    3    9 1
   6    4    5 2
   7    5   15 1
   8    6    7 1
   9    6   10 1
  10    6   16 1
  11    7    8 2
  12    8    9 1
  13    8   11 1
  14    9   10 2
  15   10   17 1
  16   11   12 1
  17   11   13 1
  18   11   14 1

#	End of record

