#	Name: ASD01140486
#	Creating user name:	WinNT
#	Creation time:	15. 06. 2019 19:00

#	Modifying user name:	WinNT
#	Modification time:	15. 06. 2019 19:00

#	Program:	/corina/corina34_cracker 3.40 0067  02.08.2006

@<TRIPOS>MOLECULE
ASD01140486
  45   48    0    0    0
SMALL
NO_CHARGES


@<TRIPOS>ATOM
   1 C1            -0.0450     1.3764    -0.3217 C.ar    
   2 C2            -0.0091    -0.0129    -0.1310 C.ar    
   3 C3             2.3593     0.1272    -0.5379 C.ar    
   4 N4             2.2059     1.4324    -0.6975 N.ar    
   5 N5             1.0701     2.0176    -0.5947 N.ar    
   6 C6            -0.9631    -1.0094     0.1659 C.2     
   7 N7            -0.3560    -2.1615     0.2297 N.2     
   8 N8             1.0126    -1.9895    -0.0183 N.pl3   
   9 C9             1.2393    -0.6603    -0.2434 C.ar    
  10 C10            1.9798    -3.0028    -0.0323 C.ar    
  11 C11            3.1783    -2.8295     0.6474 C.ar    
  12 C12            4.1305    -3.8296     0.6323 C.ar    
  13 C13            3.8909    -5.0046    -0.0604 C.ar    
  14 C14            2.6966    -5.1793    -0.7393 C.ar    
  15 C15            1.7391    -4.1843    -0.7212 C.ar    
  16 C16           -1.3488     2.1253    -0.2210 C.3     
  17 S17            3.9521    -0.6097    -0.6944 S.3     
  18 C18            5.0218     0.8063    -1.0700 C.3     
  19 C19            6.4427     0.3325    -1.2356 C.2     
  20 N20            7.4191     1.2168    -1.5207 N.am    
  21 O21            6.7077    -0.8446    -1.1124 O.2     
  22 C22            7.1229     2.6506    -1.6688 C.3     
  23 C23            8.8137     0.7779    -1.6870 C.3     
  24 C24            9.3475     1.3520    -3.0043 C.3     
  25 O25            9.1186     2.7629    -3.0299 O.3     
  26 C26            7.7356     3.1372    -2.9870 C.3     
  27 F27            4.8239    -5.9817    -0.0743 F       
  28 H28           -2.0200    -0.8451     0.3154 H       
  29 H29            3.3658    -1.9130     1.1872 H       
  30 H30            5.0627    -3.6952     1.1608 H       
  31 H31            2.5120    -6.0961    -1.2795 H       
  32 H32            0.8078    -4.3209    -1.2507 H       
  33 H33           -1.5039     2.4480     0.8086 H       
  34 H34           -1.3184     2.9972    -0.8744 H       
  35 H35           -2.1672     1.4724    -0.5243 H       
  36 H36            4.6868     1.2800    -1.9928 H       
  37 H37            4.9717     1.5263    -0.2531 H       
  38 H38            6.0437     2.8025    -1.6875 H       
  39 H39            7.5575     3.2032    -0.8358 H       
  40 H40            9.4157     1.1451    -0.8558 H       
  41 H41            8.8548    -0.3109    -1.7176 H       
  42 H42           10.4169     1.1552    -3.0805 H       
  43 H43            8.8299     0.8840    -3.8417 H       
  44 H44            7.2093     2.6789    -3.8243 H       
  45 H45            7.6480     4.2218    -3.0507 H       
@<TRIPOS>BOND
   1    1    2 ar
   2    1    5 ar
   3    1   16 1
   4    2    6 1
   5    2    9 ar
   6    3    4 ar
   7    3   17 1
   8    3    9 ar
   9    4    5 ar
  10    6    7 2
  11    6   28 1
  12    7    8 1
  13    8    9 1
  14    8   10 1
  15   10   11 ar
  16   10   15 ar
  17   11   12 ar
  18   11   29 1
  19   12   13 ar
  20   12   30 1
  21   13   14 ar
  22   13   27 1
  23   14   15 ar
  24   14   31 1
  25   15   32 1
  26   16   33 1
  27   16   34 1
  28   16   35 1
  29   17   18 1
  30   18   19 1
  31   18   36 1
  32   18   37 1
  33   19   20 am
  34   19   21 2
  35   20   23 1
  36   20   22 1
  37   22   26 1
  38   22   38 1
  39   22   39 1
  40   23   24 1
  41   23   40 1
  42   23   41 1
  43   24   25 1
  44   24   42 1
  45   24   43 1
  46   25   26 1
  47   26   44 1
  48   26   45 1

#	End of record

