#	Name: ASD01150732
#	Creating user name:	WinNT
#	Creation time:	15. 06. 2019 19:04

#	Modifying user name:	WinNT
#	Modification time:	15. 06. 2019 19:04

#	Program:	/corina/corina34_cracker 3.40 0067  02.08.2006

@<TRIPOS>MOLECULE
ASD01150732
  44   46    0    0    0
SMALL
NO_CHARGES


@<TRIPOS>ATOM
   1 C1            -0.1939     0.9850    -0.1969 C.2     
   2 C2            -0.5724     0.2044    -1.4291 C.3     
   3 N3             3.2926     2.2188    -0.0762 N.ar    
   4 C4             2.2570     1.4215    -0.0481 C.ar    
   5 C5             0.9485     1.9043    -0.2333 C.ar    
   6 C6             0.7490     3.2792    -0.4541 C.ar    
   7 C7             1.8926     4.1147    -0.4785 C.ar    
   8 C8             1.7786     5.4950    -0.6923 C.ar    
   9 C9             2.9011     6.2700    -0.7090 C.ar    
  10 C10            4.1596     5.7050    -0.5164 C.ar    
  11 C11            4.3040     4.3667    -0.3067 C.ar    
  12 C12            3.1710     3.5372    -0.2819 C.ar    
  13 C13           -0.6064     3.8325    -0.6543 C.ar    
  14 C14           -1.1456     4.7222     0.2775 C.ar    
  15 C15           -2.4112     5.2353     0.0842 C.ar    
  16 C16           -3.1464     4.8704    -1.0299 C.ar    
  17 C17           -2.6186     3.9890    -1.9570 C.ar    
  18 C18           -1.3519     3.4727    -1.7791 C.ar    
  19 C19            2.4700    -0.0516     0.1879 C.3     
  20 C20            2.5889    -0.3154     1.6903 C.3     
  21 C21            1.2552     0.0001     2.3706 C.3     
  22 C22            2.9452    -1.7850     1.9235 C.3     
  23 Br23           2.7468     8.1325    -0.9976 Br      
  24 O24           -0.8371     0.8569     0.8237 O.2     
  25 H25            0.0606     0.5107    -2.2619 H       
  26 H26           -0.4353    -0.8605    -1.2409 H       
  27 H27           -1.6163     0.3983    -1.6756 H       
  28 H28            0.8074     5.9427    -0.8434 H       
  29 H29            5.0347     6.3377    -0.5340 H       
  30 H30            5.2872     3.9447    -0.1598 H       
  31 H31           -0.5729     5.0075     1.1477 H       
  32 H32           -2.8295     5.9231     0.8041 H       
  33 H33           -4.1370     5.2751    -1.1764 H       
  34 H34           -3.1980     3.7081    -2.8241 H       
  35 H35           -0.9394     2.7884    -2.5057 H       
  36 H36            1.6242    -0.6099    -0.2132 H       
  37 H37            3.3853    -0.3708    -0.3105 H       
  38 H38            3.3698     0.3188     2.1099 H       
  39 H39            1.3324    -0.2112     3.4371 H       
  40 H40            1.0134     1.0530     2.2254 H       
  41 H41            0.4697    -0.6167     1.9339 H       
  42 H42            3.8953    -2.0097     1.4388 H       
  43 H43            3.0299    -1.9729     2.9938 H       
  44 H44            2.1643    -2.4192     1.5039 H       
@<TRIPOS>BOND
   1    1    2 1
   2    1    5 1
   3    1   24 2
   4    2   25 1
   5    2   26 1
   6    2   27 1
   7    3    4 ar
   8    3   12 ar
   9    4    5 ar
  10    4   19 1
  11    5    6 ar
  12    6    7 ar
  13    6   13 1
  14    7    8 ar
  15    7   12 ar
  16    8    9 ar
  17    8   28 1
  18    9   10 ar
  19    9   23 1
  20   10   11 ar
  21   10   29 1
  22   11   12 ar
  23   11   30 1
  24   13   14 ar
  25   13   18 ar
  26   14   15 ar
  27   14   31 1
  28   15   16 ar
  29   15   32 1
  30   16   17 ar
  31   16   33 1
  32   17   18 ar
  33   17   34 1
  34   18   35 1
  35   19   20 1
  36   19   36 1
  37   19   37 1
  38   20   21 1
  39   20   22 1
  40   20   38 1
  41   21   39 1
  42   21   40 1
  43   21   41 1
  44   22   42 1
  45   22   43 1
  46   22   44 1

#	End of record

