#	Name: ASD00190014
#	Creating user name:	WinNT
#	Creation time:	15. 06. 2019 18:33

#	Modifying user name:	WinNT
#	Modification time:	15. 06. 2019 18:33

#	Program:	/corina/corina34_cracker 3.40 0067  02.08.2006

@<TRIPOS>MOLECULE
ASD00190014
  39   43    0    0    0
SMALL
NO_CHARGES


@<TRIPOS>ATOM
   1 C1            -0.0154     1.3889     0.0327 C.ar    
   2 C2             0.0026    -0.0011     0.0112 C.ar    
   3 C3             1.1802    -0.6878    -0.0109 C.ar    
   4 C4             2.3964     0.0124    -0.0121 C.ar    
   5 C5             2.3716     1.4268     0.0098 C.ar    
   6 C6             1.1499     2.1010     0.0322 C.ar    
   7 N7             3.5675    -0.6411    -0.0332 N.ar    
   8 C8             4.7279    -0.0206    -0.0347 C.ar    
   9 C9             4.8205     1.3790    -0.0136 C.ar    
  10 C10            3.6484     2.1453     0.0082 C.ar    
  11 N11            5.8670     2.2787    -0.0099 N.pl3   
  12 C12            5.3187     3.5321     0.0145 C.2     
  13 N13            4.0046     3.4347     0.0248 N.2     
  14 N14            5.8939    -0.7726    -0.0572 N.pl3   
  15 C15            6.0772     4.7911     0.0264 C.2     
  16 C16            5.8293    -2.1657     0.0415 C.ar    
  17 C17            6.7404    -2.9550    -0.6484 C.ar    
  18 C18            6.6747    -4.3312    -0.5496 C.ar    
  19 C19            5.7022    -4.9242     0.2355 C.ar    
  20 C20            4.7920    -4.1400     0.9249 C.ar    
  21 C21            4.8573    -2.7626     0.8343 C.ar    
  22 Cl22           3.5726    -4.8878     1.9087 Cl      
  23 Cl23           5.6221    -6.6542     0.3564 Cl      
  24 O24            7.4204     4.9064     0.0149 O.3     
  25 C25            7.7562     6.2052     0.0316 C.2     
  26 C26            6.6276     6.9444     0.0543 C.2     
  27 C27            5.5453     6.0464     0.0452 C.2     
  28 H28           -0.9608     1.9109     0.0455 H       
  29 H29           -0.9304    -0.5451     0.0124 H       
  30 H30            1.1770    -1.7676    -0.0270 H       
  31 H31            1.1261     3.1806     0.0487 H       
  32 H32            6.8127     2.0632    -0.0221 H       
  33 H33            6.7538    -0.3317    -0.1414 H       
  34 H34            7.4995    -2.4929    -1.2622 H       
  35 H35            7.3832    -4.9449    -1.0861 H       
  36 H36            4.1476    -2.1512     1.3718 H       
  37 H37            8.7635     6.5947     0.0276 H       
  38 H38            6.5669     8.0225     0.0721 H       
  39 H39            4.4959     6.3016     0.0580 H       
@<TRIPOS>BOND
   1    1    2 ar
   2    1    6 ar
   3    1   28 1
   4    2    3 ar
   5    2   29 1
   6    3    4 ar
   7    3   30 1
   8    4    5 ar
   9    4    7 ar
  10    5    6 ar
  11    5   10 ar
  12    6   31 1
  13    7    8 ar
  14    8    9 ar
  15    8   14 1
  16    9   10 ar
  17    9   11 1
  18   10   13 1
  19   11   12 1
  20   11   32 1
  21   12   13 2
  22   12   15 1
  23   14   16 1
  24   14   33 1
  25   15   24 1
  26   15   27 2
  27   16   17 ar
  28   16   21 ar
  29   17   18 ar
  30   17   34 1
  31   18   19 ar
  32   18   35 1
  33   19   20 ar
  34   19   23 1
  35   20   21 ar
  36   20   22 1
  37   21   36 1
  38   24   25 1
  39   25   26 2
  40   25   37 1
  41   26   27 1
  42   26   38 1
  43   27   39 1

#	End of record

