#	Name: ASD00431143
#	Creating user name:	WinNT
#	Creation time:	15. 06. 2019 18:35

#	Modifying user name:	WinNT
#	Modification time:	15. 06. 2019 18:35

#	Program:	/corina/corina34_cracker 3.40 0067  02.08.2006

@<TRIPOS>MOLECULE
ASD00431143
  50   52    0    0    0
SMALL
NO_CHARGES


@<TRIPOS>ATOM
   1 N1             0.1416     1.4079    -0.0479 N.am    
   2 C2             0.1959     0.0612    -0.0398 C.2     
   3 O3             1.2706    -0.5043    -0.0994 O.2     
   4 N4            -0.9412    -0.6586     0.0342 N.am    
   5 C5            -0.8823    -2.1224     0.0430 C.3     
   6 C6             1.3776     2.1903    -0.1284 C.3     
   7 C7             1.7892     2.3443    -1.5939 C.3     
   8 C8             1.1502     3.5522     0.4753 C.2     
   9 C9             2.0250     4.2079     1.2443 C.2     
  10 C10            1.6030     5.4434     1.6872 C.2     
  11 C11            0.3674     5.7987     1.2731 C.2     
  12 S12           -0.3029     4.5206     0.2677 S.3     
  13 S13           -1.9225     7.5482     1.0778 S.3     
  14 C14           -0.3104     7.0620     1.6062 C.2     
  15 N15            0.1734     8.0228     2.3457 N.2     
  16 N16           -0.5490     9.0401     2.5285 N.2     
  17 C17           -1.7231     9.0590     1.9677 C.2     
  18 O18           -2.6319    10.0610     2.0524 O.3     
  19 C19           -2.3718    11.0882     2.9042 C.ar    
  20 C20           -1.2879    11.0164     3.7671 C.ar    
  21 C21           -1.0238    12.0600     4.6325 C.ar    
  22 C22           -1.8426    13.1796     4.6392 C.ar    
  23 C23           -2.9264    13.2516     3.7764 C.ar    
  24 C24           -3.1870    12.2108     2.9067 C.ar    
  25 O25           -1.5830    14.2066     5.4918 O.3     
  26 C26           -2.4042    15.3702     5.3748 C.3     
  27 C27           -2.4145    16.1231     6.7067 C.3     
  28 C28           -1.8459    16.2803     4.2789 C.3     
  29 H29           -0.7160     1.8590    -0.0045 H       
  30 H30           -1.7986    -0.2074     0.0817 H       
  31 H31           -1.8926    -2.5263     0.1068 H       
  32 H32           -0.4083    -2.4724    -0.8741 H       
  33 H33           -0.3020    -2.4575     0.9027 H       
  34 H34            2.1685     1.6776     0.4191 H       
  35 H35            0.9983     2.8570    -2.1414 H       
  36 H36            2.7088     2.9264    -1.6538 H       
  37 H37            1.9537     1.3592    -2.0306 H       
  38 H38            2.9915     3.7996     1.5003 H       
  39 H39            2.2118     6.0767     2.3155 H       
  40 H40           -0.6508    10.1443     3.7625 H       
  41 H41           -0.1800    12.0041     5.3043 H       
  42 H42           -3.5638    14.1234     3.7817 H       
  43 H43           -4.0280    12.2689     2.2316 H       
  44 H44           -3.4208    15.0731     5.1174 H       
  45 H45           -1.3979    16.4202     6.9640 H       
  46 H46           -3.0409    17.0107     6.6174 H       
  47 H47           -2.8123    15.4748     7.4874 H       
  48 H48           -1.8385    15.7439     3.3300 H       
  49 H49           -2.4722    17.1679     4.1896 H       
  50 H50           -0.8292    16.5774     4.5362 H       
@<TRIPOS>BOND
   1    1    2 am
   2    1    6 1
   3    1   29 1
   4    2    3 2
   5    2    4 am
   6    4    5 1
   7    4   30 1
   8    5   31 1
   9    5   32 1
  10    5   33 1
  11    6    7 1
  12    6    8 1
  13    6   34 1
  14    7   35 1
  15    7   36 1
  16    7   37 1
  17    8    9 2
  18    8   12 1
  19    9   10 1
  20    9   38 1
  21   10   11 2
  22   10   39 1
  23   11   12 1
  24   11   14 1
  25   13   14 1
  26   13   17 1
  27   14   15 2
  28   15   16 1
  29   16   17 2
  30   17   18 1
  31   18   19 1
  32   19   20 ar
  33   19   24 ar
  34   20   21 ar
  35   20   40 1
  36   21   22 ar
  37   21   41 1
  38   22   23 ar
  39   22   25 1
  40   23   24 ar
  41   23   42 1
  42   24   43 1
  43   25   26 1
  44   26   27 1
  45   26   28 1
  46   26   44 1
  47   27   45 1
  48   27   46 1
  49   27   47 1
  50   28   48 1
  51   28   49 1
  52   28   50 1

#	End of record

