#	Name: ASD03090332
#	Creating user name:	WinNT
#	Creation time:	15. 06. 2019 20:28

#	Modifying user name:	WinNT
#	Modification time:	15. 06. 2019 20:28

#	Program:	/corina/corina34_cracker 3.40 0067  02.08.2006

@<TRIPOS>MOLECULE
ASD03090332
  52   54    0    0    0
SMALL
NO_CHARGES


@<TRIPOS>ATOM
   1 N1             0.4446     1.5097     1.4735 N.ar    
   2 C2             0.4078     0.1913     1.4397 C.ar    
   3 C3             1.5346    -0.5411     1.1281 C.ar    
   4 C4             2.7267     0.1350     0.8459 C.ar    
   5 C5             2.7199     1.5330     0.8934 C.ar    
   6 C6             1.5471     2.1858     1.2142 C.ar    
   7 C7             3.9608    -0.6085     0.5070 C.2     
   8 N8             5.7409    -3.4560    -0.5308 N.pl3   
   9 C9             4.8147    -4.4456    -0.8756 C.ar    
  10 C10            3.5985    -4.0912    -1.4449 C.ar    
  11 C11            2.6831    -5.0688    -1.7862 C.ar    
  12 C12            2.9755    -6.4018    -1.5615 C.ar    
  13 C13            4.1912    -6.7613    -0.9921 C.ar    
  14 C14            5.1127    -5.7837    -0.6544 C.ar    
  15 N15            4.0257    -1.8643     0.1126 N.2     
  16 C16            5.2972    -2.2028    -0.1042 C.2     
  17 N17            6.0651    -1.1674     0.1485 N.2     
  18 N18            5.2196    -0.1174     0.5419 N.pl3   
  19 C19            5.6228     1.2383     0.9236 C.3     
  20 C20            5.7274     2.1109    -0.3287 C.3     
  21 C21            6.1421     3.5055     0.0640 C.2     
  22 N22            6.2986     4.4534    -0.8813 N.am    
  23 C23            6.7018     5.8091    -0.4995 C.3     
  24 O24            6.3351     3.7749     1.2307 O.2     
  25 C25            6.0655     4.1280    -2.2905 C.3     
  26 F26            2.0784    -7.3552    -1.8954 F       
  27 C27           -0.8826    -0.5242     1.7462 C.3     
  28 O28            4.4780    -8.0718    -0.7715 O.3     
  29 C29            5.7460    -8.3682    -0.1831 C.3     
  30 H30            1.4972    -1.6202     1.1026 H       
  31 H31            3.6189     2.0930     0.6826 H       
  32 H32            1.5316     3.2650     1.2531 H       
  33 H33            6.6915    -3.6403    -0.5880 H       
  34 H34            3.3678    -3.0509    -1.6206 H       
  35 H35            1.7378    -4.7914    -2.2288 H       
  36 H36            6.0579    -6.0612    -0.2118 H       
  37 H37            4.8802     1.6612     1.6002 H       
  38 H38            6.5909     1.2023     1.4233 H       
  39 H39            6.4700     1.6880    -1.0053 H       
  40 H40            4.7593     2.1469    -0.8284 H       
  41 H41            7.7894     5.8803    -0.5070 H       
  42 H42            6.2859     6.5250    -1.2084 H       
  43 H43            6.3300     6.0305     0.5009 H       
  44 H44            5.0201     4.3122    -2.5379 H       
  45 H45            6.7026     4.7517    -2.9176 H       
  46 H46            6.3005     3.0780    -2.4646 H       
  47 H47           -1.4481    -0.6642     0.8249 H       
  48 H48           -0.6630    -1.4958     2.1888 H       
  49 H49           -1.4700     0.0697     2.4465 H       
  50 H50            5.8471    -9.4468    -0.0620 H       
  51 H51            6.5419    -7.9991    -0.8300 H       
  52 H52            5.8163    -7.8850     0.7914 H       
@<TRIPOS>BOND
   1    1    2 ar
   2    1    6 ar
   3    2    3 ar
   4    2   27 1
   5    3    4 ar
   6    3   30 1
   7    4    5 ar
   8    4    7 1
   9    5    6 ar
  10    5   31 1
  11    6   32 1
  12    7   15 2
  13    7   18 1
  14    8    9 1
  15    8   16 1
  16    8   33 1
  17    9   10 ar
  18    9   14 ar
  19   10   11 ar
  20   10   34 1
  21   11   12 ar
  22   11   35 1
  23   12   13 ar
  24   12   26 1
  25   13   14 ar
  26   13   28 1
  27   14   36 1
  28   15   16 1
  29   16   17 2
  30   17   18 1
  31   18   19 1
  32   19   20 1
  33   19   37 1
  34   19   38 1
  35   20   21 1
  36   20   39 1
  37   20   40 1
  38   21   22 am
  39   21   24 2
  40   22   23 1
  41   22   25 1
  42   23   41 1
  43   23   42 1
  44   23   43 1
  45   25   44 1
  46   25   45 1
  47   25   46 1
  48   27   47 1
  49   27   48 1
  50   27   49 1
  51   28   29 1
  52   29   50 1
  53   29   51 1
  54   29   52 1

#	End of record

