#	Name: ASD01000115
#	Creating user name:	WinNT
#	Creation time:	15. 06. 2019 18:54

#	Modifying user name:	WinNT
#	Modification time:	15. 06. 2019 18:54

#	Program:	/corina/corina34_cracker 3.40 0067  02.08.2006

@<TRIPOS>MOLECULE
ASD01000115
  32   34    0    0    0
SMALL
NO_CHARGES


@<TRIPOS>ATOM
   1 C1            -0.0167     1.3781     0.0096 C.ar    
   2 C2             0.0021    -0.0041     0.0020 C.ar    
   3 C3             1.2084    -0.6789    -0.0132 C.ar    
   4 C4             2.3960     0.0285    -0.0212 C.ar    
   5 C5             2.3773     1.4107    -0.0145 C.ar    
   6 C6             1.1709     2.0855     0.0021 C.ar    
   7 O7             4.1142    -0.9338    -1.3889 O.3     
   8 C8             3.7112    -0.7071    -0.0368 C.3     
   9 C9             5.2882    -1.5906    -1.5808 C.ar    
  10 C10            6.0346    -2.0071    -0.4745 C.ar    
  11 C11            7.2136    -2.6662    -0.6345 C.ar    
  12 C12            7.6920    -2.9349    -1.9285 C.ar    
  13 C13            6.9366    -2.5139    -3.0520 C.ar    
  14 C14            5.7209    -1.8402    -2.8523 C.ar    
  15 C15            8.9062    -3.6130    -2.1301 C.ar    
  16 C16            9.3398    -3.8562    -3.3970 C.ar    
  17 C17            8.5975    -3.4421    -4.5017 C.ar    
  18 C18            7.4170    -2.7833    -4.3454 C.ar    
  19 H19           -0.9592     1.9054     0.0170 H       
  20 H20           -0.9258    -0.5567     0.0083 H       
  21 H21            1.2231    -1.7588    -0.0184 H       
  22 H22            3.3051     1.9634    -0.0201 H       
  23 H23            1.1563     3.1654     0.0077 H       
  24 H24            4.4676    -0.1100     0.4726 H       
  25 H25            3.5986    -1.6635     0.4740 H       
  26 H26            5.6700    -1.8024     0.5213 H       
  27 H27            7.7801    -2.9815     0.2293 H       
  28 H28            5.1354    -1.5139    -3.6991 H       
  29 H29            9.4925    -3.9394    -1.2839 H       
  30 H30           10.2733    -4.3776    -3.5488 H       
  31 H31            8.9644    -3.6475    -5.4964 H       
  32 H32            6.8527    -2.4681    -5.2106 H       
@<TRIPOS>BOND
   1    1    2 ar
   2    1    6 ar
   3    1   19 1
   4    2    3 ar
   5    2   20 1
   6    3    4 ar
   7    3   21 1
   8    4    5 ar
   9    4    8 1
  10    5    6 ar
  11    5   22 1
  12    6   23 1
  13    7    8 1
  14    7    9 1
  15    8   24 1
  16    8   25 1
  17    9   10 ar
  18    9   14 ar
  19   10   11 ar
  20   10   26 1
  21   11   12 ar
  22   11   27 1
  23   12   13 ar
  24   12   15 ar
  25   13   14 ar
  26   13   18 ar
  27   14   28 1
  28   15   16 ar
  29   15   29 1
  30   16   17 ar
  31   16   30 1
  32   17   18 ar
  33   17   31 1
  34   18   32 1

#	End of record

