#	Name: ASD01900397
#	Creating user name:	WinNT
#	Creation time:	15. 06. 2019 19:51

#	Modifying user name:	WinNT
#	Modification time:	15. 06. 2019 19:51

#	Program:	/corina/corina34_cracker 3.40 0067  02.08.2006

@<TRIPOS>MOLECULE
ASD01900397
  38   41    0    0    0
SMALL
NO_CHARGES


@<TRIPOS>ATOM
   1 C1             0.3986     3.7754     0.8332 C.ar    
   2 C2             0.8360     4.5626     1.9155 C.ar    
   3 C3             2.2041     4.7594     2.1001 C.ar    
   4 C4             3.0756     4.1688     1.2063 C.ar    
   5 C5             2.5738     3.4046     0.1608 C.ar    
   6 N6             1.2818     3.2290     0.0010 N.ar    
   7 N7            -1.4179     4.4740     1.9431 N.2     
   8 N8            -0.2835     4.9824     2.5842 N.pl3   
   9 C9            -1.0644     3.7629     0.9054 C.2     
  10 N10           -1.9276     3.1016     0.0265 N.pl3   
  11 C11           -4.1752     2.2341    -0.1877 C.ar    
  12 C12           -3.3126     3.2668     0.1487 C.ar    
  13 C13           -3.8415     4.4713     0.6104 C.ar    
  14 C14           -5.2162     4.5899     0.7157 C.ar    
  15 C15           -6.0191     3.5104     0.3596 C.ar    
  16 N16           -5.4817     2.3819    -0.0749 N.ar    
  17 O17          -10.0649     2.9873    -0.1797 O.3     
  18 C18           -9.5137     2.5296     1.0580 C.3     
  19 C19           -8.0015     2.3492     0.9014 C.3     
  20 N20           -7.4047     3.6189     0.4621 N.3     
  21 C21           -7.9943     4.0589    -0.8107 C.3     
  22 C22           -9.5066     4.2221    -0.6369 C.3     
  23 Cl23          -5.9301     6.0663     1.2852 Cl      
  24 H24            2.5723     5.3580     2.9201 H       
  25 H25            4.1415     4.3009     1.3194 H       
  26 H26            3.2600     2.9454    -0.5353 H       
  27 H27           -0.2886     5.5423     3.3763 H       
  28 H28           -1.5670     2.5282    -0.6678 H       
  29 H29           -3.7731     1.2997    -0.5503 H       
  30 H30           -3.1936     5.2922     0.8799 H       
  31 H31           -9.7138     3.2631     1.8390 H       
  32 H32           -9.9679     1.5762     1.3282 H       
  33 H33           -7.5690     2.0553     1.8578 H       
  34 H34           -7.8021     1.5770     0.1584 H       
  35 H35           -7.5566     5.0131    -1.1040 H       
  36 H36           -7.7948     3.3141    -1.5810 H       
  37 H37           -9.9557     4.4930    -1.5924 H       
  38 H38           -9.7065     5.0049     0.0948 H       
@<TRIPOS>BOND
   1    1    2 ar
   2    1    6 ar
   3    1    9 1
   4    2    3 ar
   5    2    8 1
   6    3    4 ar
   7    3   24 1
   8    4    5 ar
   9    4   25 1
  10    5    6 ar
  11    5   26 1
  12    7    8 1
  13    7    9 2
  14    8   27 1
  15    9   10 1
  16   10   12 1
  17   10   28 1
  18   11   12 ar
  19   11   16 ar
  20   11   29 1
  21   12   13 ar
  22   13   14 ar
  23   13   30 1
  24   14   15 ar
  25   14   23 1
  26   15   16 ar
  27   15   20 1
  28   17   18 1
  29   17   22 1
  30   18   19 1
  31   18   31 1
  32   18   32 1
  33   19   20 1
  34   19   33 1
  35   19   34 1
  36   20   21 1
  37   21   22 1
  38   21   35 1
  39   21   36 1
  40   22   37 1
  41   22   38 1

#	End of record

