#	Name: ASD05720118
#	Creating user name:	WinNT
#	Creation time:	15. 06. 2019 21:01

#	Modifying user name:	WinNT
#	Modification time:	15. 06. 2019 21:01

#	Program:	/corina/corina34_cracker 3.40 0067  02.08.2006

@<TRIPOS>MOLECULE
ASD05720118
  25   25    0    0    0
SMALL
NO_CHARGES


@<TRIPOS>ATOM
   1 C1            -0.0180     1.4728     0.0101 C.2     
   2 C2             0.0021    -0.0041     0.0020 C.ar    
   3 C3             0.0232    -0.7136     1.2074 C.ar    
   4 C4             0.0413    -2.0951     1.1914 C.ar    
   5 C5             0.0387    -2.7770    -0.0132 C.ar    
   6 C6             0.0179    -2.0822    -1.2103 C.ar    
   7 C7            -0.0058    -0.7007    -1.2111 C.ar    
   8 O8             1.0281     2.0959     0.0035 O.2     
   9 N9            -1.1935     2.1304     0.0193 N.2     
  10 F10           -0.0318    -0.0244    -2.3803 F       
  11 F11            0.0262    -0.0498     2.3841 F       
  12 C12           -1.2113     3.4416     0.0265 C.2     
  13 N13           -2.3901     4.1010     0.0357 N.pl3   
  14 C14           -3.6487     3.3513     0.0376 C.3     
  15 C15           -2.4099     5.5658     0.0437 C.3     
  16 Br16           0.0643    -4.6678    -0.0236 Br      
  17 H17            0.0580    -2.6444     2.1212 H       
  18 H18            0.0164    -2.6215    -2.1460 H       
  19 H19           -0.2834     3.9943     0.0251 H       
  20 H20           -3.9560     3.1598     1.0657 H       
  21 H21           -4.4187     3.9328    -0.4695 H       
  22 H22           -3.5079     2.4036    -0.4821 H       
  23 H23           -1.3873     5.9431     0.0409 H       
  24 H24           -2.9329     5.9270    -0.8418 H       
  25 H25           -2.9244     5.9173     0.9381 H       
@<TRIPOS>BOND
   1    1    2 1
   2    1    8 2
   3    1    9 1
   4    2    3 ar
   5    2    7 ar
   6    3    4 ar
   7    3   11 1
   8    4    5 ar
   9    4   17 1
  10    5    6 ar
  11    5   16 1
  12    6    7 ar
  13    6   18 1
  14    7   10 1
  15    9   12 2
  16   12   13 1
  17   12   19 1
  18   13   14 1
  19   13   15 1
  20   14   20 1
  21   14   21 1
  22   14   22 1
  23   15   23 1
  24   15   24 1
  25   15   25 1

#	End of record

