#	Name: ASD01948053
#	Creating user name:	WinNT
#	Creation time:	15. 06. 2019 20:13

#	Modifying user name:	WinNT
#	Modification time:	15. 06. 2019 20:13

#	Program:	/corina/corina34_cracker 3.40 0067  02.08.2006

@<TRIPOS>MOLECULE
ASD01948053
  61   65    0    0    0
SMALL
NO_CHARGES


@<TRIPOS>ATOM
   1 C1            -0.0204     1.5230    -1.8967 C.3     
   2 C2            -0.2451     0.0157    -2.0324 C.3     
   3 C3            -0.9618     0.9840    -2.9756 C.3     
   4 S4            -0.7705     2.3567    -0.4708 S.o2    
   5 O5            -2.1852     2.3893    -0.5998 O.2     
   6 O6            -0.1546     1.9305     0.7368 O.2     
   7 N7            -0.3095     3.9394    -0.6280 N.am    
   8 C8             2.0017     3.3158    -0.3737 C.2     
   9 C9             1.0500     4.2927    -0.5088 C.2     
  10 C10            1.4275     5.6460    -0.5291 C.2     
  11 C11            2.7719     5.9748    -0.4069 C.2     
  12 C12            3.7083     4.9517    -0.2738 C.2     
  13 N13            3.3187     3.6640    -0.2686 N.am    
  14 O14            1.8352     1.9679    -0.3168 O.3     
  15 C15            4.1102     2.4213    -0.1684 C.3     
  16 C16            3.0962     1.3459    -0.6209 C.3     
  17 O17            4.8940     5.2265    -0.1613 O.2     
  18 C18            3.2108     7.4164    -0.4187 C.3     
  19 N19            0.4711     6.6401    -0.6696 N.pl3   
  20 C20           -0.3230     6.6892    -1.8204 C.ar    
  21 C21           -1.3653     7.6064    -1.9097 C.ar    
  22 C22           -2.1476     7.6517    -3.0485 C.ar    
  23 C23           -1.8942     6.7860    -4.0979 C.ar    
  24 C24           -0.8590     5.8732    -4.0109 C.ar    
  25 C25           -0.0692     5.8268    -2.8780 C.ar    
  26 I26           -3.0821     6.8577    -5.8221 I       
  27 F27           -1.6128     8.4512    -0.8848 F       
  28 C28            0.8980    -0.8196    -2.6125 C.3     
  29 O29            0.5527    -2.2050    -2.5544 O.3     
  30 C30            1.5582    -3.0770    -3.0745 C.3     
  31 C31            1.0908    -4.5054    -2.9638 C.ar    
  32 C32            0.3814    -5.0827    -4.0003 C.ar    
  33 C33           -0.0475    -6.3929    -3.8988 C.ar    
  34 C34            0.2334    -7.1259    -2.7609 C.ar    
  35 C35            0.9436    -6.5488    -1.7248 C.ar    
  36 C36            1.3762    -5.2400    -1.8282 C.ar    
  37 H37            0.9418     1.9196    -2.2207 H       
  38 H38           -0.8437    -0.4750    -1.2649 H       
  39 H39           -2.0319     1.1303    -2.8286 H       
  40 H40           -0.6189     1.0260    -4.0094 H       
  41 H41           -0.9749     4.6234    -0.8021 H       
  42 H42            4.9677     2.4526    -0.8404 H       
  43 H43            4.4281     2.2461     0.8594 H       
  44 H44            3.2236     0.4271    -0.0484 H       
  45 H45            3.1860     1.1536    -1.6901 H       
  46 H46            3.2961     7.7786     0.6058 H       
  47 H47            4.1780     7.4977    -0.9146 H       
  48 H48            2.4756     8.0156    -0.9559 H       
  49 H49            0.3527     7.3015     0.0300 H       
  50 H50           -2.9573     8.3629    -3.1191 H       
  51 H51           -0.6646     5.1986    -4.8316 H       
  52 H52            0.7422     5.1170    -2.8136 H       
  53 H53            1.0689    -0.5309    -3.6496 H       
  54 H54            1.8048    -0.6465    -2.0330 H       
  55 H55            1.7428    -2.8352    -4.1212 H       
  56 H56            2.4788    -2.9508    -2.5046 H       
  57 H57            0.1619    -4.5101    -4.8893 H       
  58 H58           -0.6023    -6.8438    -4.7083 H       
  59 H59           -0.1022    -8.1493    -2.6813 H       
  60 H60            1.1628    -7.1214    -0.8357 H       
  61 H61            1.9342    -4.7903    -1.0202 H       
@<TRIPOS>BOND
   1    1    2 1
   2    1    3 1
   3    1    4 1
   4    1   37 1
   5    2    3 1
   6    2   28 1
   7    2   38 1
   8    3   39 1
   9    3   40 1
  10    4    5 2
  11    4    6 2
  12    4    7 am
  13    7    9 1
  14    7   41 1
  15    8    9 2
  16    8   13 1
  17    8   14 1
  18    9   10 1
  19   10   11 2
  20   10   19 1
  21   11   12 1
  22   11   18 1
  23   12   13 am
  24   12   17 2
  25   13   15 1
  26   14   16 1
  27   15   16 1
  28   15   42 1
  29   15   43 1
  30   16   44 1
  31   16   45 1
  32   18   46 1
  33   18   47 1
  34   18   48 1
  35   19   20 1
  36   19   49 1
  37   20   21 ar
  38   20   25 ar
  39   21   22 ar
  40   21   27 1
  41   22   23 ar
  42   22   50 1
  43   23   24 ar
  44   23   26 1
  45   24   25 ar
  46   24   51 1
  47   25   52 1
  48   28   29 1
  49   28   53 1
  50   28   54 1
  51   29   30 1
  52   30   31 1
  53   30   55 1
  54   30   56 1
  55   31   32 ar
  56   31   36 ar
  57   32   33 ar
  58   32   57 1
  59   33   34 ar
  60   33   58 1
  61   34   35 ar
  62   34   59 1
  63   35   36 ar
  64   35   60 1
  65   36   61 1

#	End of record

