#	Name: ASD03180044
#	Creating user name:	WinNT
#	Creation time:	15. 06. 2019 20:33

#	Modifying user name:	WinNT
#	Modification time:	15. 06. 2019 20:33

#	Program:	/corina/corina34_cracker 3.40 0067  02.08.2006

@<TRIPOS>MOLECULE
ASD03180044
  38   40    0    0    0
SMALL
NO_CHARGES


@<TRIPOS>ATOM
   1 C1             0.3999     1.0199    -1.4902 C.ar    
   2 C2             0.0895    -0.0496    -0.6699 C.ar    
   3 C3             0.9364    -0.3993     0.3656 C.ar    
   4 C4             2.0957     0.3189     0.5842 C.ar    
   5 C5             2.4107     1.3932    -0.2379 C.ar    
   6 C6             1.5575     1.7419    -1.2776 C.ar    
   7 N7             3.5828     2.1224    -0.0193 N.pl3   
   8 C8             3.5673     3.5051    -0.1168 C.2     
   9 C9             4.4025     5.5838    -0.1611 C.2     
  10 N10            4.6106     4.2726    -0.0456 N.2     
  11 S11            2.1292     4.4905    -0.3641 S.3     
  12 C12            3.1194     5.9477    -0.3415 C.2     
  13 C13            5.5038     6.5692    -0.0981 C.2     
  14 S14            5.3414     8.3182    -0.2373 S.3     
  15 C15            7.0306     8.5002    -0.0485 C.2     
  16 N16            7.5933     7.3481     0.0975 N.2     
  17 C17            6.8124     6.2894     0.0821 C.2     
  18 C18            7.7595     9.8192    -0.0524 C.3     
  19 C19            7.3340     4.8851     0.2470 C.3     
  20 C20            3.0176    -0.0623     1.7137 C.3     
  21 C21           -0.5233     1.3938    -2.6212 C.3     
  22 H22           -0.8166    -0.6126    -0.8385 H       
  23 H23            0.6909    -1.2347     1.0045 H       
  24 H24            1.7995     2.5767    -1.9187 H       
  25 H25            4.4072     1.6609     0.2007 H       
  26 H26            2.7587     6.9594    -0.4544 H       
  27 H27            7.8139    10.2073     0.9647 H       
  28 H28            8.7677     9.6760    -0.4411 H       
  29 H29            7.2240    10.5283    -0.6837 H       
  30 H30            7.5841     4.4733    -0.7307 H       
  31 H31            8.2255     4.9000     0.8740 H       
  32 H32            6.5695     4.2665     0.7170 H       
  33 H33            3.7501    -0.7862     1.3564 H       
  34 H34            3.5330     0.8264     2.0779 H       
  35 H35            2.4367    -0.5031     2.5239 H       
  36 H36           -1.2596     2.1147    -2.2659 H       
  37 H37            0.0559     1.8356    -3.4320 H       
  38 H38           -1.0338     0.5015    -2.9836 H       
@<TRIPOS>BOND
   1    1    2 ar
   2    1    6 ar
   3    1   21 1
   4    2    3 ar
   5    2   22 1
   6    3    4 ar
   7    3   23 1
   8    4    5 ar
   9    4   20 1
  10    5    6 ar
  11    5    7 1
  12    6   24 1
  13    7    8 1
  14    7   25 1
  15    8   11 1
  16    8   10 2
  17    9   10 1
  18    9   12 2
  19    9   13 1
  20   11   12 1
  21   12   26 1
  22   13   14 1
  23   13   17 2
  24   14   15 1
  25   15   16 2
  26   15   18 1
  27   16   17 1
  28   17   19 1
  29   18   27 1
  30   18   28 1
  31   18   29 1
  32   19   30 1
  33   19   31 1
  34   19   32 1
  35   20   33 1
  36   20   34 1
  37   20   35 1
  38   21   36 1
  39   21   37 1
  40   21   38 1

#	End of record

