#	Name: ASD09740679
#	Creating user name:	WinNT
#	Creation time:	15. 06. 2019 21:23

#	Modifying user name:	WinNT
#	Modification time:	15. 06. 2019 21:23

#	Program:	/corina/corina34_cracker 3.40 0067  02.08.2006

@<TRIPOS>MOLECULE
ASD09740679
  75   78    0    0    0
SMALL
NO_CHARGES


@<TRIPOS>ATOM
   1 C1             0.0032     0.0606     0.4290 C.1     
   2 C2            -0.0174     1.4292     0.0083 C.ar    
   3 C3             1.1860     2.1185    -0.2050 C.ar    
   4 C4             1.1630     3.4443    -0.6131 C.ar    
   5 C5            -0.0390     4.0893    -0.8105 C.ar    
   6 C6            -1.2440     3.4126    -0.6007 C.ar    
   7 C7            -1.2330     2.0800    -0.1965 C.ar    
   8 N8             0.0195    -1.0251     0.7628 N.1     
   9 O9             2.3719     1.4887    -0.0117 O.3     
  10 C10            3.5546     2.2821    -0.1293 C.3     
  11 C11            4.6796     1.6450     0.6889 C.3     
  12 C12            3.9732     2.3589    -1.5989 C.3     
  13 S13           -2.7305     5.7854    -1.3291 S.3     
  14 C14           -2.5298     4.1097    -0.8136 C.2     
  15 N15           -3.7196     3.5946    -0.6543 N.2     
  16 N16           -4.7136     4.3365    -0.8819 N.2     
  17 C17           -4.4798     5.5642    -1.2599 C.2     
  18 C18           -9.1929     6.6551    -1.5904 C.3     
  19 C19           -8.9936     5.3820    -0.7409 C.3     
  20 C20           -7.5417     4.9828    -1.0800 C.3     
  21 C21           -6.8586     6.2741    -1.4759 C.ar    
  22 C22           -5.4995     6.5875    -1.5731 C.ar    
  23 C23           -5.1071     7.8668    -1.9655 C.ar    
  24 C24           -6.0637     8.8178    -2.2561 C.ar    
  25 C25           -7.4060     8.5032    -2.1581 C.ar    
  26 C26           -7.8052     7.2337    -1.7687 C.ar    
  27 N27          -10.0562     7.6101    -0.8829 N.3     
  28 C28          -10.7331     8.5082    -1.8279 C.3     
  29 C29          -11.6211     9.4859    -1.0556 C.3     
  30 O30          -10.8039    10.3345    -0.2468 O.3     
  31 Si31         -11.6429    11.4256     0.6283 Si      
  32 C32          -12.6135    12.5273    -0.5184 C.3     
  33 C33          -12.8131    10.5359     1.7728 C.3     
  34 C34          -10.4606    12.4596     1.6301 C.3     
  35 C35           -9.4996    13.1903     0.6901 C.3     
  36 C36          -11.2477    13.4831     2.4510 C.3     
  37 C37           -9.6636    11.5548     2.5718 C.3     
  38 H38            2.0904     3.9731    -0.7763 H       
  39 H39           -0.0499     5.1214    -1.1283 H       
  40 H40           -2.1628     1.5539    -0.0381 H       
  41 H41            3.3570     3.2865     0.2452 H       
  42 H42            4.8772     0.6406     0.3145 H       
  43 H43            5.5817     2.2502     0.5992 H       
  44 H44            4.3813     1.5903     1.7359 H       
  45 H45            4.1708     1.3545    -1.9733 H       
  46 H46            3.1717     2.8128    -2.1817 H       
  47 H47            4.8753     2.9641    -1.6886 H       
  48 H48           -9.6236     6.4001    -2.5587 H       
  49 H49           -9.0963     5.6047     0.3212 H       
  50 H50           -9.6911     4.6010    -1.0435 H       
  51 H51           -7.0546     4.5496    -0.2064 H       
  52 H52           -7.5275     4.2772    -1.9108 H       
  53 H53           -4.0582     8.1125    -2.0414 H       
  54 H54           -5.7632     9.8095    -2.5603 H       
  55 H55           -8.1498     9.2522    -2.3862 H       
  56 H56          -10.7242     7.1297    -0.2989 H       
  57 H57           -9.9886     9.0651    -2.3967 H       
  58 H58          -11.3474     7.9211    -2.5107 H       
  59 H59          -12.1906    10.0931    -1.7592 H       
  60 H60          -12.3074     8.9280    -0.4186 H       
  61 H61          -13.3052    11.9223    -1.1046 H       
  62 H62          -13.1742    13.2565     0.0664 H       
  63 H63          -11.9288    13.0478    -1.1881 H       
  64 H64          -12.2453     9.8913     2.4438 H       
  65 H65          -13.3739    11.2651     2.3577 H       
  66 H66          -13.5049     9.9309     1.1867 H       
  67 H67          -10.0674    13.8349     0.0192 H       
  68 H68           -8.8078    13.7953     1.2762 H       
  69 H69           -8.9388    12.4611     0.1053 H       
  70 H70          -11.9324    12.9626     3.1206 H       
  71 H71          -10.5560    14.0881     3.0371 H       
  72 H72          -11.8155    14.1277     1.7801 H       
  73 H73           -9.1028    10.8257     1.9870 H       
  74 H74           -8.9718    12.1598     3.1580 H       
  75 H75          -10.3482    11.0343     3.2415 H       
@<TRIPOS>BOND
   1    1    2 1
   2    1    8 3
   3    2    3 ar
   4    2    7 ar
   5    3    4 ar
   6    3    9 1
   7    4    5 ar
   8    4   38 1
   9    5    6 ar
  10    5   39 1
  11    6    7 ar
  12    6   14 1
  13    7   40 1
  14    9   10 1
  15   10   11 1
  16   10   12 1
  17   10   41 1
  18   11   42 1
  19   11   43 1
  20   11   44 1
  21   12   45 1
  22   12   46 1
  23   12   47 1
  24   13   14 1
  25   13   17 1
  26   14   15 2
  27   15   16 1
  28   16   17 2
  29   17   22 1
  30   18   19 1
  31   18   26 1
  32   18   27 1
  33   18   48 1
  34   19   20 1
  35   19   49 1
  36   19   50 1
  37   20   21 1
  38   20   51 1
  39   20   52 1
  40   21   22 ar
  41   21   26 ar
  42   22   23 ar
  43   23   24 ar
  44   23   53 1
  45   24   25 ar
  46   24   54 1
  47   25   26 ar
  48   25   55 1
  49   27   28 1
  50   27   56 1
  51   28   29 1
  52   28   57 1
  53   28   58 1
  54   29   30 1
  55   29   59 1
  56   29   60 1
  57   30   31 1
  58   31   32 1
  59   31   33 1
  60   31   34 1
  61   32   61 1
  62   32   62 1
  63   32   63 1
  64   33   64 1
  65   33   65 1
  66   33   66 1
  67   34   35 1
  68   34   37 1
  69   34   36 1
  70   35   67 1
  71   35   68 1
  72   35   69 1
  73   36   70 1
  74   36   71 1
  75   36   72 1
  76   37   73 1
  77   37   74 1
  78   37   75 1

#	End of record

