#	Name: ASD06020105
#	Creating user name:	WinNT
#	Creation time:	15. 06. 2019 21:04

#	Modifying user name:	WinNT
#	Modification time:	15. 06. 2019 21:04

#	Program:	/corina/corina34_cracker 3.40 0067  02.08.2006

@<TRIPOS>MOLECULE
ASD06020105
  38   41    0    0    0
SMALL
NO_CHARGES


@<TRIPOS>ATOM
   1 C1             0.0027    -0.0072     0.0093 C.1     
   2 C2            -0.0172     1.4245     0.0312 C.ar    
   3 C3             1.1902     2.1503     0.0274 C.ar    
   4 C4             1.1543     3.5453     0.0485 C.ar    
   5 C5            -0.0618     4.2045     0.0729 C.ar    
   6 C6            -1.2466     3.4894     0.0771 C.ar    
   7 C7            -1.2316     2.1090     0.0507 C.ar    
   8 N8             0.0185    -1.1430    -0.0081 N.1     
   9 C9             6.1983     0.2751    -0.0600 C.ar    
  10 C10            4.8500     0.6480    -0.0378 C.ar    
  11 C11            3.8600    -0.3419    -0.0404 C.ar    
  12 C12            4.2971    -1.6911    -0.0651 C.ar    
  13 C13            5.6283    -1.9641    -0.0848 C.ar    
  14 N14            6.5376    -1.0019    -0.0831 N.ar    
  15 S15            4.0607     2.2208    -0.0057 S.3     
  16 C16            2.4844     1.4402     0.0018 C.2     
  17 N17            2.6228     0.1540    -0.0185 N.2     
  18 N18            7.1875     1.2545    -0.0634 N.pl3   
  19 C19           10.1342    -0.7266     0.3076 C.ar    
  20 N20            8.8663    -0.3782     0.2220 N.ar    
  21 C21            8.5231     0.8914     0.0266 C.ar    
  22 C22            9.5289     1.8535    -0.0869 C.ar    
  23 C23           10.8436     1.4416     0.0092 C.ar    
  24 N24           11.1062     0.1570     0.2046 N.ar    
  25 C25           11.9660     2.4404    -0.1071 C.3     
  26 O26           11.4226     3.7458    -0.3136 O.3     
  27 F27            2.3061     4.2514     0.0455 F       
  28 H28           -0.0867     5.2841     0.0892 H       
  29 H29           -2.1899     4.0149     0.0966 H       
  30 H30           -2.1611     1.5591     0.0493 H       
  31 H31            3.5770    -2.4960    -0.0678 H       
  32 H32            5.9532    -2.9940    -0.1032 H       
  33 H33            6.9428     2.1908    -0.1287 H       
  34 H34           10.3835    -1.7647     0.4711 H       
  35 H35            9.2848     2.8934    -0.2463 H       
  36 H36           12.5554     2.4331     0.8098 H       
  37 H37           12.6031     2.1745    -0.9506 H       
  38 H38           12.0897     4.4408    -0.3976 H       
@<TRIPOS>BOND
   1    1    2 1
   2    1    8 3
   3    2    3 ar
   4    2    7 ar
   5    3    4 ar
   6    3   16 1
   7    4    5 ar
   8    4   27 1
   9    5    6 ar
  10    5   28 1
  11    6    7 ar
  12    6   29 1
  13    7   30 1
  14    9   10 ar
  15    9   14 ar
  16    9   18 1
  17   10   11 ar
  18   10   15 1
  19   11   12 ar
  20   11   17 1
  21   12   13 ar
  22   12   31 1
  23   13   14 ar
  24   13   32 1
  25   15   16 1
  26   16   17 2
  27   18   21 1
  28   18   33 1
  29   19   20 ar
  30   19   24 ar
  31   19   34 1
  32   20   21 ar
  33   21   22 ar
  34   22   23 ar
  35   22   35 1
  36   23   24 ar
  37   23   25 1
  38   25   26 1
  39   25   36 1
  40   25   37 1
  41   26   38 1

#	End of record

