#	Name: ASD01911465
#	Creating user name:	WinNT
#	Creation time:	15. 06. 2019 19:57

#	Modifying user name:	WinNT
#	Modification time:	15. 06. 2019 19:57

#	Program:	/corina/corina34_cracker 3.40 0067  02.08.2006

@<TRIPOS>MOLECULE
ASD01911465
  29   30    0    0    0
SMALL
NO_CHARGES


@<TRIPOS>ATOM
   1 O1            -0.0054     1.3365     0.0495 O.3     
   2 C2             0.0132    -0.0054     0.0383 C.2     
   3 N3             1.0815    -0.7176    -0.3359 N.am    
   4 C4             2.3494    -0.1044    -0.7228 C.3     
   5 C5             2.1261     1.3635    -1.0973 C.3     
   6 C6             1.2779     2.0191     0.0010 C.3     
   7 O7            -0.9874    -0.6012     0.3849 O.2     
   8 C8             3.4742     2.0792    -1.2034 C.3     
   9 C9             1.3903     1.4477    -2.4361 C.3     
  10 C10            0.9805    -2.1080    -0.3574 C.ar    
  11 C11            1.3653    -2.8437     0.7579 C.ar    
  12 C12            1.2600    -4.2228     0.7235 C.ar    
  13 C13            0.7712    -4.8213    -0.4306 C.ar    
  14 C14            0.4075    -4.0283    -1.5013 C.ar    
  15 N15            0.5141    -2.7148    -1.4371 N.ar    
  16 I16            0.5880    -6.9051    -0.5462 I       
  17 H17            3.0491    -0.1629     0.1110 H       
  18 H18            2.7631    -0.6375    -1.5788 H       
  19 H19            1.1256     3.0731    -0.2313 H       
  20 H20            1.7826     1.9227     0.9623 H       
  21 H21            4.0812     1.5988    -1.9708 H       
  22 H22            3.3112     3.1235    -1.4700 H       
  23 H23            3.9907     2.0253    -0.2450 H       
  24 H24            0.4266     0.9452    -2.3532 H       
  25 H25            1.2332     2.4937    -2.6992 H       
  26 H26            1.9869     0.9641    -3.2096 H       
  27 H27            1.7417    -2.3454     1.6390 H       
  28 H28            1.5517    -4.8203     1.5746 H       
  29 H29            0.0268    -4.4890    -2.4009 H       
@<TRIPOS>BOND
   1    1    2 1
   2    1    6 1
   3    2    3 am
   4    2    7 2
   5    3    4 1
   6    3   10 1
   7    4    5 1
   8    4   17 1
   9    4   18 1
  10    5    6 1
  11    5    8 1
  12    5    9 1
  13    6   19 1
  14    6   20 1
  15    8   21 1
  16    8   22 1
  17    8   23 1
  18    9   24 1
  19    9   25 1
  20    9   26 1
  21   10   11 ar
  22   10   15 ar
  23   11   12 ar
  24   11   27 1
  25   12   13 ar
  26   12   28 1
  27   13   14 ar
  28   13   16 1
  29   14   15 ar
  30   14   29 1

#	End of record

