#	Name: ASD03200019
#	Creating user name:	WinNT
#	Creation time:	15. 06. 2019 20:34

#	Modifying user name:	WinNT
#	Modification time:	15. 06. 2019 20:34

#	Program:	/corina/corina34_cracker 3.40 0067  02.08.2006

@<TRIPOS>MOLECULE
ASD03200019
  60   63    0    0    0
SMALL
NO_CHARGES


@<TRIPOS>ATOM
   1 C1            -0.6158    -1.7413    -0.8148 C.3     
   2 N2            -0.8027    -0.3592    -0.3552 N.3     
   3 C3            -0.4530    -0.2198     1.0642 C.3     
   4 C4             1.0243    -0.5661     1.2634 C.3     
   5 C5             1.2743    -2.0025     0.7956 C.3     
   6 C6             0.8567    -2.1331    -0.6718 C.3     
   7 C7            -2.1060     0.0746    -0.5935 C.ar    
   8 C8            -2.9709     0.3535     0.4618 C.ar    
   9 C9            -4.2535     0.7812     0.1846 C.ar    
  10 N10           -4.6664     0.9278    -1.0601 N.ar    
  11 C11           -3.8816     0.6753    -2.0908 C.ar    
  12 C12           -2.5783     0.2471    -1.9001 C.ar    
  13 N13           -1.7488    -0.0193    -2.9978 N.am    
  14 C14           -2.2768    -0.5021    -4.1400 C.2     
  15 C15           -1.3997    -0.8701    -5.2542 C.2     
  16 O16           -3.4827    -0.6323    -4.2458 O.2     
  17 C17           -1.8809    -1.2689    -6.4818 C.2     
  18 S18           -0.5013    -1.6139    -7.5219 S.3     
  19 C19            0.6003    -1.1920    -6.2159 C.2     
  20 N20           -0.0696    -0.8414    -5.1658 N.2     
  21 C21            2.0754    -1.2276    -6.3069 C.ar    
  22 C22            2.8553    -0.7671    -5.2405 C.ar    
  23 C23            4.2365    -0.8003    -5.3257 C.ar    
  24 C24            4.8516    -1.2863    -6.4604 C.ar    
  25 C25            4.0835    -1.7492    -7.5323 C.ar    
  26 C26            2.6923    -1.7248    -7.4519 C.ar    
  27 N27            1.3685    -0.4469     2.6865 N.3     
  28 N28           -3.2108    -1.3794    -6.8350 N.pl3   
  29 F29            2.2595    -0.2889    -4.1262 F       
  30 C30            4.7454    -2.2692    -8.7466 C.2     
  31 O31            4.3082    -3.2591    -9.3005 O.2     
  32 N32            5.8338    -1.6461    -9.2401 N.am    
  33 C33            6.4310    -2.1013   -10.4980 C.3     
  34 C34            6.4196    -0.5136    -8.5187 C.3     
  35 H35           -1.2299    -2.4106    -0.2123 H       
  36 H36           -0.9124    -1.8194    -1.8607 H       
  37 H37           -0.6314     0.8072     1.3831 H       
  38 H38           -1.0679    -0.8962     1.6579 H       
  39 H39            1.6404     0.1187     0.6807 H       
  40 H40            2.3337    -2.2389     0.8952 H       
  41 H41            0.6877    -2.6910     1.4039 H       
  42 H42            0.9923    -3.1641    -0.9984 H       
  43 H43            1.4701    -1.4729    -1.2848 H       
  44 H44           -2.6423     0.2362     1.4839 H       
  45 H45           -4.9293     0.9989     0.9985 H       
  46 H46           -4.2587     0.8077    -3.0941 H       
  47 H47           -0.7947     0.1438    -2.9355 H       
  48 H48            4.8350    -0.4439    -4.5003 H       
  49 H49            5.9297    -1.3089    -6.5209 H       
  50 H50            2.0951    -2.0819    -8.2779 H       
  51 H51            2.3164    -0.7483     2.8557 H       
  52 H52            1.2246     0.4960     3.0155 H       
  53 H53           -3.9032    -1.1664    -6.1900 H       
  54 H54           -3.4529    -1.6699    -7.7283 H       
  55 H55            5.9731    -1.5685   -11.3314 H       
  56 H56            7.5026    -1.9023   -10.4844 H       
  57 H57            6.2618    -3.1718   -10.6142 H       
  58 H58            7.1749    -0.8780    -7.8223 H       
  59 H59            6.8815     0.1708    -9.2303 H       
  60 H60            5.6384     0.0089    -7.9667 H       
@<TRIPOS>BOND
   1    1    2 1
   2    1    6 1
   3    1   35 1
   4    1   36 1
   5    2    3 1
   6    2    7 1
   7    3    4 1
   8    3   37 1
   9    3   38 1
  10    4    5 1
  11    4   27 1
  12    4   39 1
  13    5    6 1
  14    5   40 1
  15    5   41 1
  16    6   42 1
  17    6   43 1
  18    7    8 ar
  19    7   12 ar
  20    8    9 ar
  21    8   44 1
  22    9   10 ar
  23    9   45 1
  24   10   11 ar
  25   11   12 ar
  26   11   46 1
  27   12   13 1
  28   13   14 am
  29   13   47 1
  30   14   15 1
  31   14   16 2
  32   15   17 2
  33   15   20 1
  34   17   18 1
  35   17   28 1
  36   18   19 1
  37   19   20 2
  38   19   21 1
  39   21   22 ar
  40   21   26 ar
  41   22   23 ar
  42   22   29 1
  43   23   24 ar
  44   23   48 1
  45   24   25 ar
  46   24   49 1
  47   25   26 ar
  48   25   30 1
  49   26   50 1
  50   27   51 1
  51   27   52 1
  52   28   53 1
  53   28   54 1
  54   30   31 2
  55   30   32 am
  56   32   33 1
  57   32   34 1
  58   33   55 1
  59   33   56 1
  60   33   57 1
  61   34   58 1
  62   34   59 1
  63   34   60 1

#	End of record

