#	Name: ASD01916760
#	Creating user name:	WinNT
#	Creation time:	15. 06. 2019 20:07

#	Modifying user name:	WinNT
#	Modification time:	15. 06. 2019 20:07

#	Program:	/corina/corina34_cracker 3.40 0067  02.08.2006

@<TRIPOS>MOLECULE
ASD01916760
  59   62    0    0    0
SMALL
NO_CHARGES


@<TRIPOS>ATOM
   1 C1            -0.0168     1.3841     0.0097 C.ar    
   2 C2             0.0021    -0.0041     0.0020 C.ar    
   3 C3             1.2121    -0.6845    -0.0132 C.ar    
   4 C4             2.3993     0.0172    -0.0203 C.ar    
   5 C5             2.3835     1.4108    -0.0126 C.ar    
   6 C6             1.1673     2.0911     0.0021 C.ar    
   7 C7             3.6591     2.1687    -0.0197 C.2     
   8 N8             3.7745     3.5035    -0.0136 N.2     
   9 N9             4.8639     1.6415    -0.0274 N.2     
  10 N10            5.7730     2.7119    -0.0312 N.pl3   
  11 C11            5.0378     3.8382    -0.0220 C.2     
  12 C12            5.5783     5.2449    -0.0226 C.3     
  13 C13            5.7493     5.7250    -1.4653 C.3     
  14 C14            6.2979     7.1532    -1.4659 C.3     
  15 O15           -1.1660    -0.6981     0.0099 O.3     
  16 C16           -1.0735    -2.1240     0.0013 C.3     
  17 F17           -0.3966    -2.5405    -1.1500 F       
  18 F18           -0.3739    -2.5528     1.1344 F       
  19 C19            7.2351     2.6198    -0.0393 C.3     
  20 C20            7.7287     2.5904    -1.4629 C.2     
  21 O21            6.9371     2.6414    -2.3803 O.2     
  22 N22            9.0498     2.5075    -1.7165 N.am    
  23 C23            9.5527     2.4775    -3.0983 C.3     
  24 C24           10.6443     3.5432    -3.2423 C.3     
  25 N25           11.6644     3.3379    -2.2053 N.3     
  26 C26           11.0997     3.5116    -0.8604 C.3     
  27 C27           10.0271     2.4507    -0.6189 C.3     
  28 C28           12.7514     4.1817    -2.4019 C.ar    
  29 C29           13.8268     4.1377    -1.5201 C.ar    
  30 N30           12.7568     5.0162    -3.4298 N.ar    
  31 C31           14.9019     4.9824    -1.7279 C.ar    
  32 C32           14.8657     5.8463    -2.8147 C.ar    
  33 C33           13.7689     5.8333    -3.6525 C.ar    
  34 H34           -0.9596     1.9108     0.0170 H       
  35 H35            1.2237    -1.7644    -0.0191 H       
  36 H36            3.3403    -0.5126    -0.0314 H       
  37 H37            1.1520     3.1710     0.0077 H       
  38 H38            4.8820     5.9018     0.4987 H       
  39 H39            6.5435     5.2636     0.4833 H       
  40 H40            6.4455     5.0681    -1.9867 H       
  41 H41            4.7840     5.7064    -1.9712 H       
  42 H42            7.2632     7.1718    -0.9599 H       
  43 H43            6.4198     7.4952    -2.4936 H       
  44 H44            5.6017     7.8101    -0.9445 H       
  45 H45           -2.0754    -2.5532     0.0089 H       
  46 H46            7.6565     3.4844     0.4736 H       
  47 H47            7.5446     1.7079     0.4714 H       
  48 H48            9.9702     1.4941    -3.3147 H       
  49 H49            8.7377     2.6925    -3.7894 H       
  50 H50           11.1049     3.4615    -4.2268 H       
  51 H51           10.2033     4.5334    -3.1276 H       
  52 H52           11.8904     3.4070    -0.1176 H       
  53 H53           10.6523     4.5023    -0.7790 H       
  54 H54            9.5265     2.6455     0.3296 H       
  55 H55           10.4874     1.4630    -0.5971 H       
  56 H56           13.8218     3.4534    -0.6845 H       
  57 H57           15.7504     4.9708    -1.0598 H       
  58 H58           15.6893     6.5186    -3.0048 H       
  59 H59           13.7368     6.5031    -4.4990 H       
@<TRIPOS>BOND
   1    1    2 ar
   2    1    6 ar
   3    1   34 1
   4    2    3 ar
   5    2   15 1
   6    3    4 ar
   7    3   35 1
   8    4    5 ar
   9    4   36 1
  10    5    6 ar
  11    5    7 1
  12    6   37 1
  13    7    8 1
  14    7    9 2
  15    8   11 2
  16    9   10 1
  17   10   11 1
  18   10   19 1
  19   11   12 1
  20   12   13 1
  21   12   38 1
  22   12   39 1
  23   13   14 1
  24   13   40 1
  25   13   41 1
  26   14   42 1
  27   14   43 1
  28   14   44 1
  29   15   16 1
  30   16   17 1
  31   16   18 1
  32   16   45 1
  33   19   20 1
  34   19   46 1
  35   19   47 1
  36   20   21 2
  37   20   22 am
  38   22   23 1
  39   22   27 1
  40   23   24 1
  41   23   48 1
  42   23   49 1
  43   24   25 1
  44   24   50 1
  45   24   51 1
  46   25   26 1
  47   25   28 1
  48   26   27 1
  49   26   52 1
  50   26   53 1
  51   27   54 1
  52   27   55 1
  53   28   29 ar
  54   28   30 ar
  55   29   31 ar
  56   29   56 1
  57   30   33 ar
  58   31   32 ar
  59   31   57 1
  60   32   33 ar
  61   32   58 1
  62   33   59 1

#	End of record

