#	Name: ASD09116412
#	Creating user name:	WinNT
#	Creation time:	15. 06. 2019 21:21

#	Modifying user name:	WinNT
#	Modification time:	15. 06. 2019 21:21

#	Program:	/corina/corina34_cracker 3.40 0067  02.08.2006

@<TRIPOS>MOLECULE
ASD09116412
  68   73    0    0    0
SMALL
NO_CHARGES


@<TRIPOS>ATOM
   1 N1            -0.0087     1.3942    -0.0858 N.2     
   2 N2            -0.0043     0.0003     0.0839 N.pl3   
   3 C3             1.2251     1.8046     0.0859 C.2     
   4 N4             2.0027     0.7489     0.3535 N.2     
   5 C5             1.2754    -0.3477     0.3558 C.2     
   6 N6             1.7364    -1.6284     0.5943 N.pl3   
   7 C7            -1.1024    -0.8568    -0.0086 C.ar    
   8 N8             1.6572     3.1283     0.0030 N.pl3   
   9 C9             3.0184     3.4257     0.0970 C.ar    
  10 C10            3.9730     2.5000    -0.3228 C.ar    
  11 C11            3.4372     4.6506     0.6051 C.ar    
  12 N12            4.7179     4.9399     0.6966 N.ar    
  13 C13            5.6560     4.0818     0.3115 C.ar    
  14 C14            5.3092     2.8356    -0.2123 C.ar    
  15 N15           -0.9228    -2.1323    -0.3174 N.ar    
  16 N16           -1.9000    -2.9607    -0.4246 N.ar    
  17 C17           -3.1537    -2.5832    -0.2320 C.ar    
  18 C18           -3.4378    -1.2602     0.1187 C.ar    
  19 C19           -2.3903    -0.3705     0.2302 C.ar    
  20 C20           -4.2857    -3.5223    -0.4078 C.ar    
  21 C21           -5.3714    -3.1307    -1.1926 C.ar    
  22 C22           -5.3395    -1.7942    -1.8820 C.3     
  23 C23           -5.6290    -0.6571    -0.9059 C.3     
  24 C24           -4.8552    -0.8511     0.3954 C.3     
  25 C25           -4.2803    -4.7742     0.1973 C.ar    
  26 C26           -5.3618    -5.6178     0.0326 C.ar    
  27 C27           -6.4448    -5.2177    -0.7288 C.ar    
  28 C28           -6.4504    -3.9757    -1.3399 C.ar    
  29 C29            7.0805     4.4528     0.4336 C.2     
  30 C30            7.4174     5.6376     0.9256 C.2     
  31 C31            8.8708     6.0161     1.0501 C.3     
  32 N32            9.1084     7.2844     0.3481 N.3     
  33 C33           10.4490     7.8060     0.6430 C.3     
  34 C34           10.7156     9.0454    -0.2143 C.3     
  35 C35            9.6558    10.1079     0.0897 C.3     
  36 C36            8.2664     9.5234    -0.1795 C.3     
  37 C37            8.0709     8.2702     0.6768 C.3     
  38 H38            2.6763    -1.7786     0.7811 H       
  39 H39            1.1201    -2.3772     0.5747 H       
  40 H40            1.0122     3.8423    -0.1199 H       
  41 H41            3.6751     1.5429    -0.7247 H       
  42 H42            2.7026     5.3734     0.9281 H       
  43 H43            6.0752     2.1408    -0.5238 H       
  44 H44           -2.5597     0.6653     0.4847 H       
  45 H45           -4.3539    -1.6437    -2.3225 H       
  46 H46           -6.0882    -1.7835    -2.6741 H       
  47 H47           -5.3356     0.2893    -1.3602 H       
  48 H48           -6.6969    -0.6341    -0.6884 H       
  49 H49           -5.3419    -1.6243     0.9900 H       
  50 H50           -4.8556     0.0840     0.9555 H       
  51 H51           -3.4348    -5.0856     0.7927 H       
  52 H52           -5.3614    -6.5919     0.4991 H       
  53 H53           -7.2911    -5.8781    -0.8473 H       
  54 H54           -7.2998    -3.6689    -1.9321 H       
  55 H55            7.8476     3.7594     0.1222 H       
  56 H56            6.6502     6.3310     1.2370 H       
  57 H57            9.1276     6.1301     2.1033 H       
  58 H58            9.4889     5.2347     0.6080 H       
  59 H59           10.5105     8.0740     1.6978 H       
  60 H60           11.1935     7.0421     0.4185 H       
  61 H61           11.7046     9.4414     0.0161 H       
  62 H62           10.6679     8.7752    -1.2692 H       
  63 H63            9.7290    10.4065     1.1355 H       
  64 H64            9.8162    10.9758    -0.5500 H       
  65 H65            7.5056    10.2610     0.0758 H       
  66 H66            8.1802     9.2608    -1.2339 H       
  67 H67            7.0880     7.8435     0.4768 H       
  68 H68            8.1435     8.5360     1.7314 H       
@<TRIPOS>BOND
   1    1    2 1
   2    1    3 2
   3    2    7 1
   4    2    5 1
   5    3    4 1
   6    3    8 1
   7    4    5 2
   8    5    6 1
   9    6   38 1
  10    6   39 1
  11    7   15 ar
  12    7   19 ar
  13    8    9 1
  14    8   40 1
  15    9   10 ar
  16    9   11 ar
  17   10   14 ar
  18   10   41 1
  19   11   12 ar
  20   11   42 1
  21   12   13 ar
  22   13   14 ar
  23   13   29 1
  24   14   43 1
  25   15   16 ar
  26   16   17 ar
  27   17   18 ar
  28   17   20 1
  29   18   19 ar
  30   18   24 1
  31   19   44 1
  32   20   21 ar
  33   20   25 ar
  34   21   22 1
  35   21   28 ar
  36   22   23 1
  37   22   45 1
  38   22   46 1
  39   23   24 1
  40   23   47 1
  41   23   48 1
  42   24   49 1
  43   24   50 1
  44   25   26 ar
  45   25   51 1
  46   26   27 ar
  47   26   52 1
  48   27   28 ar
  49   27   53 1
  50   28   54 1
  51   29   30 2
  52   29   55 1
  53   30   31 1
  54   30   56 1
  55   31   32 1
  56   31   57 1
  57   31   58 1
  58   32   33 1
  59   32   37 1
  60   33   34 1
  61   33   59 1
  62   33   60 1
  63   34   35 1
  64   34   61 1
  65   34   62 1
  66   35   36 1
  67   35   63 1
  68   35   64 1
  69   36   37 1
  70   36   65 1
  71   36   66 1
  72   37   67 1
  73   37   68 1

#	End of record

