#	Name: ASD01001268
#	Creating user name:	WinNT
#	Creation time:	15. 06. 2019 18:55

#	Modifying user name:	WinNT
#	Modification time:	15. 06. 2019 18:55

#	Program:	/corina/corina34_cracker 3.40 0067  02.08.2006

@<TRIPOS>MOLECULE
ASD01001268
  76   80    0    0    0
SMALL
NO_CHARGES


@<TRIPOS>ATOM
   1 S1             0.1490     0.9730     2.2502 S.3     
   2 C2             0.3950    -0.7564     2.4791 C.2     
   3 N3             1.5305    -1.0992     1.9411 N.2     
   4 C4             2.2302    -0.1476     1.3668 C.2     
   5 C5             1.6903     1.0749     1.4014 C.2     
   6 C6            -0.5373    -1.6714     3.1712 C.ar    
   7 C7            -1.6903    -1.1694     3.7804 C.ar    
   8 C8            -2.5579    -2.0305     4.4260 C.ar    
   9 C9            -2.2868    -3.3855     4.4696 C.ar    
  10 C10           -1.1447    -3.8897     3.8678 C.ar    
  11 C11           -0.2726    -3.0409     3.2140 C.ar    
  12 F12           -1.9563     0.1545     3.7390 F       
  13 F13           -0.8866    -5.2150     3.9157 F       
  14 C14            2.2950     2.3246     0.8153 C.3     
  15 C15            1.8352     2.4840    -0.6109 C.ar    
  16 C16            0.6800     3.1900    -0.8899 C.ar    
  17 C17            0.2582     3.3362    -2.1982 C.ar    
  18 C18            0.9919     2.7767    -3.2275 C.ar    
  19 C19            2.1476     2.0714    -2.9486 C.ar    
  20 C20            2.5717     1.9290    -1.6407 C.ar    
  21 C21            3.5595    -0.4170     0.7099 C.3     
  22 C22            4.5719    -0.8574     1.7692 C.3     
  23 C23            4.2344    -2.2737     2.2395 C.3     
  24 C24            5.9787    -0.8414     1.1679 C.3     
  25 C25            4.5149     0.1024     2.9593 C.3     
  26 N26            3.4047    -1.4779    -0.2886 N.am    
  27 C27            4.3718    -1.6887    -1.2033 C.2     
  28 C28            4.1955    -2.7540    -2.2545 C.3     
  29 C29            3.5671    -2.1413    -3.5212 C.3     
  30 C30            1.0044    -1.4737    -0.7572 C.3     
  31 C31            2.1987    -2.3096    -0.2927 C.3     
  32 O32            5.3841    -1.0210    -1.1805 O.2     
  33 O33            5.4764    -3.2884    -2.6285 O.3     
  34 C34            5.4030    -3.6150    -4.0330 C.3     
  35 C35            4.5990    -2.4355    -4.6370 C.3     
  36 C36            1.1990    -0.9906    -2.2160 C.3     
  37 N37           -0.1707    -0.7664    -2.7254 N.3     
  38 C38           -1.1046    -1.5961    -1.9422 C.3     
  39 C39           -0.2704    -2.3487    -0.8843 C.3     
  40 F40            0.0541    -3.6336    -1.3326 F       
  41 H41           -3.4493    -1.6438     4.8975 H       
  42 H42           -2.9679    -4.0540     4.9753 H       
  43 H43            0.6169    -3.4351     2.7452 H       
  44 H44            1.9780     3.1895     1.3981 H       
  45 H45            3.3821     2.2484     0.8403 H       
  46 H46            0.1068     3.6271    -0.0857 H       
  47 H47           -0.6448     3.8871    -2.4161 H       
  48 H48            0.6619     2.8902    -4.2496 H       
  49 H49            2.7206     1.6340    -3.7528 H       
  50 H50            3.4747     1.3780    -1.4228 H       
  51 H51            3.9149     0.4911     0.2230 H       
  52 H52            4.3314    -2.9668     1.4040 H       
  53 H53            4.9201    -2.5654     3.0351 H       
  54 H54            3.2113    -2.2978     2.6147 H       
  55 H55            6.1826     0.1430     0.7465 H       
  56 H56            6.7091    -1.0617     1.9465 H       
  57 H57            6.0467    -1.5940     0.3824 H       
  58 H58            3.5127     0.0910     3.3876 H       
  59 H59            5.2361    -0.2113     3.7139 H       
  60 H60            4.7553     1.1114     2.6242 H       
  61 H61            3.5567    -3.5500    -1.8717 H       
  62 H62            2.6150    -2.6223    -3.7456 H       
  63 H63            3.4332    -1.0665    -3.3990 H       
  64 H64            0.8353    -0.6315    -0.0862 H       
  65 H65            2.3397    -3.1506    -0.9717 H       
  66 H66            2.0114    -2.6829     0.7141 H       
  67 H67            6.4010    -3.6623    -4.4687 H       
  68 H68            4.8735    -4.5562    -4.1810 H       
  69 H69            4.1005    -2.7361    -5.5585 H       
  70 H70            5.2432    -1.5731    -4.8084 H       
  71 H71            1.7679    -0.0610    -2.2352 H       
  72 H72            1.7024    -1.7568    -2.8056 H       
  73 H73           -0.4215     0.2095    -2.6712 H       
  74 H74           -1.8416    -0.9613    -1.4504 H       
  75 H75           -1.6046    -2.3101    -2.5967 H       
  76 H76           -0.8031    -2.3940     0.0656 H       
@<TRIPOS>BOND
   1    1    2 1
   2    1    5 1
   3    2    3 2
   4    2    6 1
   5    3    4 1
   6    4    5 2
   7    4   21 1
   8    5   14 1
   9    6    7 ar
  10    6   11 ar
  11    7    8 ar
  12    7   12 1
  13    8    9 ar
  14    8   41 1
  15    9   10 ar
  16    9   42 1
  17   10   11 ar
  18   10   13 1
  19   11   43 1
  20   14   15 1
  21   14   44 1
  22   14   45 1
  23   15   16 ar
  24   15   20 ar
  25   16   17 ar
  26   16   46 1
  27   17   18 ar
  28   17   47 1
  29   18   19 ar
  30   18   48 1
  31   19   20 ar
  32   19   49 1
  33   20   50 1
  34   21   22 1
  35   21   26 1
  36   21   51 1
  37   22   23 1
  38   22   24 1
  39   22   25 1
  40   23   52 1
  41   23   53 1
  42   23   54 1
  43   24   55 1
  44   24   56 1
  45   24   57 1
  46   25   58 1
  47   25   59 1
  48   25   60 1
  49   26   27 am
  50   26   31 1
  51   27   28 1
  52   27   32 2
  53   28   29 1
  54   28   33 1
  55   28   61 1
  56   29   35 1
  57   29   62 1
  58   29   63 1
  59   30   31 1
  60   30   36 1
  61   30   39 1
  62   30   64 1
  63   31   65 1
  64   31   66 1
  65   33   34 1
  66   34   35 1
  67   34   67 1
  68   34   68 1
  69   35   69 1
  70   35   70 1
  71   36   37 1
  72   36   71 1
  73   36   72 1
  74   37   38 1
  75   37   73 1
  76   38   39 1
  77   38   74 1
  78   38   75 1
  79   39   40 1
  80   39   76 1

#	End of record

