#	Name: ASD01140409
#	Creating user name:	WinNT
#	Creation time:	15. 06. 2019 19:00

#	Modifying user name:	WinNT
#	Modification time:	15. 06. 2019 19:00

#	Program:	/corina/corina34_cracker 3.40 0067  02.08.2006

@<TRIPOS>MOLECULE
ASD01140409
  49   50    0    0    0
SMALL
NO_CHARGES


@<TRIPOS>ATOM
   1 C1            -0.0167     1.3833     0.0096 C.ar    
   2 C2             0.0021    -0.0041     0.0020 C.ar    
   3 N3            -1.1222    -0.6920     0.0091 N.ar    
   4 C4            -2.2997    -0.0983     0.0240 C.ar    
   5 C5            -2.3992     1.2802     0.0328 C.ar    
   6 C6            -1.2416     2.0421     0.0307 C.ar    
   7 O7             1.1451     2.0884     0.0023 O.3     
   8 C8             2.3602     1.3366    -0.0133 C.3     
   9 C9             3.5529     2.2949    -0.0195 C.3     
  10 C10           -3.7506     1.9469     0.0497 C.3     
  11 C11            4.8664     1.4985     0.0898 C.3     
  12 C12            5.6635     1.8573    -1.1853 C.3     
  13 C13            5.0398     3.2090    -1.6149 C.3     
  14 N14            3.5988     3.0338    -1.2999 N.3     
  15 C15            2.9239     4.3332    -1.1824 C.3     
  16 C16           -4.1939     2.1643     1.4979 C.3     
  17 C17           -5.5659     2.8411     1.5151 C.3     
  18 C18           -6.0093     3.0585     2.9632 C.3     
  19 C19           -7.3813     3.7354     2.9804 C.3     
  20 C20           -7.8246     3.9528     4.4286 C.3     
  21 O21           -9.1060     4.5849     4.4446 O.3     
  22 H22            0.9477    -0.5257    -0.0102 H       
  23 H23           -3.1984    -0.6973     0.0290 H       
  24 H24           -1.2895     3.1210     0.0375 H       
  25 H25            2.4073     0.7037     0.8729 H       
  26 H26            2.3903     0.7132    -0.9070 H       
  27 H27            3.4719     2.9937     0.8131 H       
  28 H28           -3.6877     2.9087    -0.4593 H       
  29 H29           -4.4752     1.3124    -0.4607 H       
  30 H30            5.4192     1.8010     0.9792 H       
  31 H31            4.6590     0.4288     0.1179 H       
  32 H32            6.7227     1.9764    -0.9573 H       
  33 H33            5.5165     1.1020    -1.9573 H       
  34 H34            5.4632     4.0295    -1.0355 H       
  35 H35            5.1827     3.3766    -2.6824 H       
  36 H36            3.0105     4.8742    -2.1247 H       
  37 H37            1.8708     4.1759    -0.9493 H       
  38 H38            3.3895     4.9138    -0.3860 H       
  39 H39           -4.2568     1.2024     2.0069 H       
  40 H40           -3.4693     2.7987     2.0083 H       
  41 H41           -5.5030     3.8029     1.0061 H       
  42 H42           -6.2905     2.2066     1.0046 H       
  43 H43           -6.0722     2.0967     3.4722 H       
  44 H44           -5.2847     3.6930     3.4737 H       
  45 H45           -7.3183     4.6972     2.4714 H       
  46 H46           -8.1059     3.1009     2.4700 H       
  47 H47           -7.8875     2.9910     4.9376 H       
  48 H48           -7.1000     4.5872     4.9390 H       
  49 H49           -9.4502     4.7539     5.3324 H       
@<TRIPOS>BOND
   1    1    2 ar
   2    1    7 1
   3    1    6 ar
   4    2    3 ar
   5    2   22 1
   6    3    4 ar
   7    4    5 ar
   8    4   23 1
   9    5    6 ar
  10    5   10 1
  11    6   24 1
  12    7    8 1
  13    8    9 1
  14    8   25 1
  15    8   26 1
  16    9   11 1
  17    9   14 1
  18    9   27 1
  19   10   16 1
  20   10   28 1
  21   10   29 1
  22   11   12 1
  23   11   30 1
  24   11   31 1
  25   12   13 1
  26   12   32 1
  27   12   33 1
  28   13   14 1
  29   13   34 1
  30   13   35 1
  31   14   15 1
  32   15   36 1
  33   15   37 1
  34   15   38 1
  35   16   17 1
  36   16   39 1
  37   16   40 1
  38   17   18 1
  39   17   41 1
  40   17   42 1
  41   18   19 1
  42   18   43 1
  43   18   44 1
  44   19   20 1
  45   19   45 1
  46   19   46 1
  47   20   21 1
  48   20   47 1
  49   20   48 1
  50   21   49 1

#	End of record

