#	Name: ASD00030001
#	Creating user name:	WinNT
#	Creation time:	15. 06. 2019 18:28

#	Modifying user name:	WinNT
#	Modification time:	15. 06. 2019 18:28

#	Program:	/corina/corina34_cracker 3.40 0067  02.08.2006

@<TRIPOS>MOLECULE
ASD00030001
  37   39    0    0    0
SMALL
NO_CHARGES


@<TRIPOS>ATOM
   1 C1            -0.0173     1.4248     0.0099 C.3     
   2 C2             1.4181     1.9544    -0.0010 C.3     
   3 C3             1.4245     3.4933     0.1334 C.3     
   4 O4             1.6779     3.8766     1.4866 O.3     
   5 C5             2.5832     3.9454    -0.7833 C.3     
   6 O6             3.5875     4.6217    -0.0244 O.3     
   7 C7             3.1397     2.6261    -1.3632 C.3     
   8 O8             2.0408     1.6928    -1.2776 O.3     
   9 N9             3.5429     2.8126    -2.7592 N.pl3   
  10 C10            2.7855     2.5437    -3.8603 C.2     
  11 N11            3.4549     2.8262    -4.9400 N.2     
  12 C12            4.6807     3.2930    -4.6013 C.ar    
  13 C13            5.8008     3.7426    -5.3215 C.ar    
  14 N14            5.7891     3.7688    -6.7051 N.pl3   
  15 N15            6.8712     4.1422    -4.6429 N.ar    
  16 C16            6.8911     4.1211    -3.3225 C.ar    
  17 N17            5.8665     3.7082    -2.6070 N.ar    
  18 C18            4.7497     3.2955    -3.1981 C.ar    
  19 P19           -1.3361    -0.8992     0.0100 P.3     
  20 O20           -2.2020    -0.5022    -1.1227 O.2     
  21 O21            0.0021    -0.0041     0.0020 O.3     
  22 O22           -2.1257    -0.6718     1.3945 O.3     
  23 O23           -0.9428    -2.4537    -0.1344 O.3     
  24 H24           -0.5275     1.7763     0.9067 H       
  25 H25           -0.5445     1.7859    -0.8732 H       
  26 H26            1.9953     1.5007     0.8047 H       
  27 H27            0.4780     3.9106    -0.2099 H       
  28 H28            1.6929     4.8331     1.6281 H       
  29 H29            2.2107     4.5884    -1.5807 H       
  30 H30            3.2755     5.4262     0.4121 H       
  31 H31            3.9826     2.2755    -0.7675 H       
  32 H32            1.7787     2.1534    -3.8397 H       
  33 H33            5.0016     3.4747    -7.1891 H       
  34 H34            6.5684     4.0812    -7.1908 H       
  35 H35            7.7817     4.4548    -2.8107 H       
  36 H36           -1.6172    -0.9117     2.1813 H       
  37 H37           -1.7018    -3.0529    -0.1370 H       
@<TRIPOS>BOND
   1    1   21 1
   2    1    2 1
   3    1   24 1
   4    1   25 1
   5    2    3 1
   6    2    8 1
   7    2   26 1
   8    3    4 1
   9    3    5 1
  10    3   27 1
  11    4   28 1
  12    5    6 1
  13    5    7 1
  14    5   29 1
  15    6   30 1
  16    7    8 1
  17    7    9 1
  18    7   31 1
  19    9   10 1
  20    9   18 1
  21   10   11 2
  22   10   32 1
  23   11   12 1
  24   12   13 ar
  25   12   18 ar
  26   13   14 1
  27   13   15 ar
  28   14   33 1
  29   14   34 1
  30   15   16 ar
  31   16   17 ar
  32   16   35 1
  33   17   18 ar
  34   19   20 2
  35   19   21 1
  36   19   22 1
  37   19   23 1
  38   22   36 1
  39   23   37 1

#	End of record

