#	Name: ASD01140014
#	Creating user name:	WinNT
#	Creation time:	15. 06. 2019 18:59

#	Modifying user name:	WinNT
#	Modification time:	15. 06. 2019 18:59

#	Program:	/corina/corina34_cracker 3.40 0067  02.08.2006

@<TRIPOS>MOLECULE
ASD01140014
  43   45    0    0    0
SMALL
NO_CHARGES


@<TRIPOS>ATOM
   1 C1            -0.0348     1.4093    -0.8712 C.ar    
   2 C2            -0.2535     0.1474    -1.4155 C.ar    
   3 C3            -1.4949    -0.4496    -1.2858 C.ar    
   4 C4            -2.5212     0.2021    -0.6173 C.ar    
   5 C5            -2.3024     1.4506    -0.0742 C.ar    
   6 C6            -1.0589     2.0519    -0.1982 C.ar    
   7 C7            -3.8572    -0.4862    -0.5137 C.3     
   8 N8            -4.6689     0.1241     0.5439 N.3     
   9 C9            -4.7494     1.5804     0.3486 C.3     
  10 C10           -3.3846     2.1894     0.6709 C.3     
  11 H11           -4.3816    -0.3988    -1.4653 H       
  12 C12           -3.6392    -1.9661    -0.1923 C.3     
  13 C13           -4.9617    -2.6966    -0.1820 C.2     
  14 C14           -5.1205    -3.1937     1.0419 C.2     
  15 C15           -3.9653    -2.8358     1.8694 C.2     
  16 O16           -3.0894    -2.1124     1.1471 O.3     
  17 O17           -3.8199    -3.1455     3.0356 O.2     
  18 H18           -2.9686    -2.4142    -0.9255 H       
  19 C19           -6.3059    -4.0002     1.5058 C.3     
  20 C20           -6.0091    -0.4755     0.5912 C.3     
  21 O21            1.1811     2.0056    -0.9954 O.3     
  22 O22            0.7484    -0.4960    -2.0724 O.3     
  23 C23            1.3311     3.3011    -0.4111 C.3     
  24 C24            0.4502    -1.7883    -2.6045 C.3     
  25 H25           -1.6661    -1.4289    -1.7078 H       
  26 H26           -0.8913     3.0311     0.2256 H       
  27 H27           -5.0117     1.7970    -0.6870 H       
  28 H28           -5.5036     1.9982     1.0155 H       
  29 H29           -3.2001     2.1170     1.7428 H       
  30 H30           -3.3771     3.2382     0.3740 H       
  31 H31           -5.6478    -2.7958    -1.0102 H       
  32 H32           -6.1170    -5.0590     1.3282 H       
  33 H33           -6.4645    -3.8332     2.5712 H       
  34 H34           -7.1937    -3.6919     0.9536 H       
  35 H35           -5.9738    -1.3988     1.1695 H       
  36 H36           -6.7026     0.2215     1.0615 H       
  37 H37           -6.3453    -0.6943    -0.4224 H       
  38 H38            0.6193     3.9897    -0.8665 H       
  39 H39            1.1428     3.2402     0.6608 H       
  40 H40            2.3455     3.6615    -0.5819 H       
  41 H41           -0.3655    -1.7061    -3.3228 H       
  42 H42            1.3334    -2.1891    -3.1020 H       
  43 H43            0.1553    -2.4555    -1.7946 H       
@<TRIPOS>BOND
   1    1    2 ar
   2    1   21 1
   3    1    6 ar
   4    2    3 ar
   5    2   22 1
   6    3    4 ar
   7    3   25 1
   8    4    5 ar
   9    4    7 1
  10    5    6 ar
  11    5   10 1
  12    6   26 1
  13    7    8 1
  14    7   11 1
  15    7   12 1
  16    8    9 1
  17    8   20 1
  18    9   10 1
  19    9   27 1
  20    9   28 1
  21   10   29 1
  22   10   30 1
  23   12   13 1
  24   12   18 1
  25   12   16 1
  26   13   14 2
  27   13   31 1
  28   14   15 1
  29   14   19 1
  30   15   16 1
  31   15   17 2
  32   19   32 1
  33   19   33 1
  34   19   34 1
  35   20   35 1
  36   20   36 1
  37   20   37 1
  38   21   23 1
  39   22   24 1
  40   23   38 1
  41   23   39 1
  42   23   40 1
  43   24   41 1
  44   24   42 1
  45   24   43 1

#	End of record

