#	Name: ASD01411198
#	Creating user name:	WinNT
#	Creation time:	15. 06. 2019 19:19

#	Modifying user name:	WinNT
#	Modification time:	15. 06. 2019 19:19

#	Program:	/corina/corina34_cracker 3.40 0067  02.08.2006

@<TRIPOS>MOLECULE
ASD01411198
  69   71    0    0    0
SMALL
NO_CHARGES


@<TRIPOS>ATOM
   1 C1            -1.3356     1.1106    -0.0640 C.ar    
   2 C2            -1.1099    -0.2387    -0.0523 C.ar    
   3 C3             0.1884    -0.7538    -0.0327 C.ar    
   4 C4             1.2696     0.1222    -0.0181 C.ar    
   5 C5             1.0549     1.4820    -0.0270 C.ar    
   6 C6            -0.2463     1.9912    -0.0514 C.ar    
   7 P7            -2.4830    -1.4311    -0.0559 P.3     
   8 N8            -1.8380    -2.9005     0.3177 N.2     
   9 C9            -0.5510    -3.0631     0.2922 C.2     
  10 N10            0.3817    -2.1257    -0.0348 N.pl3   
  11 C11           -0.0459    -4.4006     0.6545 C.2     
  12 C12           -0.8173    -5.4650     1.0094 C.2     
  13 C13            0.1299    -6.6089     1.2901 C.3     
  14 N14            1.4802    -6.0815     1.0592 N.am    
  15 C15            1.3645    -4.7954     0.6832 C.2     
  16 C16            2.7329    -6.8268     1.2060 C.3     
  17 C17            3.0036    -7.6257    -0.0705 C.3     
  18 C18            4.3119    -8.4040     0.0828 C.3     
  19 C19            4.1989    -9.3626     1.2700 C.3     
  20 C20            4.5826    -9.2029    -1.1937 C.3     
  21 C21            5.4623    -7.4250     0.3254 C.3     
  22 O22           -3.4890    -1.0472     0.9595 O.2     
  23 O23           -3.1629    -1.4832    -1.5143 O.3     
  24 O24           -2.1587    -5.4930     1.0938 O.3     
  25 O25            2.2975    -4.0638     0.4099 O.2     
  26 C26           -3.7581    -0.3428    -2.1367 C.3     
  27 C27           -4.3067    -0.7391    -3.5089 C.3     
  28 C28           -0.0150    -7.0691     2.7420 C.3     
  29 C29           -1.4985    -7.1343     3.1107 C.3     
  30 C30            0.6117    -8.4556     2.9025 C.3     
  31 C31            0.6967    -6.0778     3.6647 C.3     
  32 C32           -0.4716     3.4495    -0.0640 C.2     
  33 O33           -1.6049     3.8894    -0.0853 O.2     
  34 N34            0.5789     4.2938    -0.0519 N.am    
  35 H35           -2.3451     1.4936    -0.0872 H       
  36 H36            2.2777    -0.2650     0.0006 H       
  37 H37            1.8965     2.1587    -0.0152 H       
  38 H38            1.2597    -2.4475    -0.2925 H       
  39 H39           -0.0706    -7.4377     0.6111 H       
  40 H40            3.5525    -6.1294     1.3789 H       
  41 H41            2.6524    -7.5097     2.0518 H       
  42 H42            2.1840    -8.3231    -0.2433 H       
  43 H43            3.0840    -6.9428    -0.9163 H       
  44 H44            3.3793   -10.0600     1.0971 H       
  45 H45            5.1309    -9.9171     1.3792 H       
  46 H46            4.0061    -8.7934     2.1794 H       
  47 H47            4.6630    -8.5200    -2.0395 H       
  48 H48            5.5146    -9.7574    -1.0845 H       
  49 H49            3.7629    -9.9003    -1.3665 H       
  50 H50            5.2695    -6.8559     1.2348 H       
  51 H51            6.3944    -7.9796     0.4346 H       
  52 H52            5.5428    -6.7422    -0.5204 H       
  53 H53           -2.6291    -4.6754     0.8811 H       
  54 H54           -4.5717     0.0280    -1.5134 H       
  55 H55           -3.0076     0.4384    -2.2572 H       
  56 H56           -4.7607     0.1308    -3.9837 H       
  57 H57           -3.4930    -1.1099    -4.1323 H       
  58 H58           -5.0572    -1.5203    -3.3884 H       
  59 H59           -2.0056    -7.8405     2.4533 H       
  60 H60           -1.6018    -7.4621     4.1450 H       
  61 H61           -1.9450    -6.1465     2.9963 H       
  62 H62            1.6598    -8.4172     2.6055 H       
  63 H63            0.5405    -8.7681     3.9443 H       
  64 H64            0.0813    -9.1693     2.2720 H       
  65 H65            0.2502    -5.0900     3.5504 H       
  66 H66            0.5935    -6.4056     4.6991 H       
  67 H67            1.7536    -6.0314     3.4021 H       
  68 H68            1.4830     3.9429    -0.0349 H       
  69 H69            0.4308     5.2524    -0.0602 H       
@<TRIPOS>BOND
   1    1    2 ar
   2    1    6 ar
   3    1   35 1
   4    2    3 ar
   5    2    7 1
   6    3    4 ar
   7    3   10 1
   8    4    5 ar
   9    4   36 1
  10    5    6 ar
  11    5   37 1
  12    6   32 1
  13    7    8 1
  14    7   22 2
  15    7   23 1
  16    8    9 2
  17    9   10 1
  18    9   11 1
  19   10   38 1
  20   11   12 2
  21   11   15 1
  22   12   13 1
  23   12   24 1
  24   13   14 1
  25   13   28 1
  26   13   39 1
  27   14   15 am
  28   14   16 1
  29   15   25 2
  30   16   17 1
  31   16   40 1
  32   16   41 1
  33   17   18 1
  34   17   42 1
  35   17   43 1
  36   18   19 1
  37   18   20 1
  38   18   21 1
  39   19   44 1
  40   19   45 1
  41   19   46 1
  42   20   47 1
  43   20   48 1
  44   20   49 1
  45   21   50 1
  46   21   51 1
  47   21   52 1
  48   23   26 1
  49   24   53 1
  50   26   27 1
  51   26   54 1
  52   26   55 1
  53   27   56 1
  54   27   57 1
  55   27   58 1
  56   28   29 1
  57   28   30 1
  58   28   31 1
  59   29   59 1
  60   29   60 1
  61   29   61 1
  62   30   62 1
  63   30   63 1
  64   30   64 1
  65   31   65 1
  66   31   66 1
  67   31   67 1
  68   32   33 2
  69   32   34 am
  70   34   68 1
  71   34   69 1

#	End of record

