#	Name: ASD07931685
#	Creating user name:	WinNT
#	Creation time:	15. 06. 2019 21:13

#	Modifying user name:	WinNT
#	Modification time:	15. 06. 2019 21:13

#	Program:	/corina/corina34_cracker 3.40 0067  02.08.2006

@<TRIPOS>MOLECULE
ASD07931685
  57   58    0    0    0
SMALL
NO_CHARGES


@<TRIPOS>ATOM
   1 C1            -2.5701     1.2950     0.0093 C.2     
   2 C2            -3.1347     0.9395    -1.1786 C.2     
   3 C3            -4.3260     0.2045    -1.2100 C.2     
   4 C4            -4.9230    -0.1567    -0.0334 C.2     
   5 C5            -4.2945     0.2386     1.2284 C.2     
   6 N6            -3.1474     0.9462     1.2030 N.am    
   7 C7            -1.3108     2.0645     0.0113 C.2     
   8 O8            -0.2447     1.4854     0.0906 O.2     
   9 N9            -1.3426     3.4091    -0.0748 N.am    
  10 O10           -4.8042    -0.0689     2.2925 O.2     
  11 C11           -6.2790    -2.1589    -0.4937 C.2     
  12 N12           -7.5277    -2.5001    -0.3280 N.2     
  13 C13           -8.1966    -1.4810     0.2321 C.2     
  14 C14           -7.3333    -0.4656     0.4234 C.2     
  15 N15           -6.1128    -0.8902    -0.0358 N.pl3   
  16 C16           -9.6616    -1.4736     0.5855 C.3     
  17 C17           -2.6185     4.1002    -0.2767 C.3     
  18 C18           -3.2414     4.4281     1.0817 C.3     
  19 C19           -4.6294     5.0370     0.8726 C.3     
  20 C20           -5.2773     5.2415     2.1785 C.1     
  21 C21           -5.7939     5.4046     3.2200 C.1     
  22 Si22          -6.6302     5.6686     4.9055 Si      
  23 C23           -8.3202     6.4100     4.6509 C.3     
  24 C24           -6.7953     4.0319     5.7799 C.3     
  25 C25           -5.5949     6.8228     5.9384 C.3     
  26 O26           -2.4107     5.3625     1.7736 O.3     
  27 C27           -0.1013     4.1796     0.0335 C.3     
  28 C28            0.5790     4.2456    -1.3354 C.3     
  29 O29           -0.2449     4.9816    -2.2418 O.3     
  30 H30           -2.6592     1.2277    -2.1045 H       
  31 H31           -4.7695    -0.0744    -2.1544 H       
  32 H32           -2.7267     1.2104     2.0361 H       
  33 H33           -5.5062    -2.7821    -0.9190 H       
  34 H34           -7.5587     0.4983     0.8553 H       
  35 H35           -9.7913    -1.8381     1.6045 H       
  36 H36          -10.0481    -0.4572     0.5111 H       
  37 H37          -10.2048    -2.1203    -0.1036 H       
  38 H38           -2.4479     5.0234    -0.8306 H       
  39 H39           -3.2945     3.4577    -0.8409 H       
  40 H40           -3.3301     3.5152     1.6706 H       
  41 H41           -4.5328     5.9946     0.3610 H       
  42 H42           -5.2351     4.3617     0.2683 H       
  43 H43           -8.9260     5.7347     4.0466 H       
  44 H44           -8.8000     6.5615     5.6179 H       
  45 H45           -8.2236     7.3676     4.1393 H       
  46 H46           -5.8065     3.5981     5.9289 H       
  47 H47           -7.2751     4.1834     6.7469 H       
  48 H48           -7.4011     3.3566     5.1756 H       
  49 H49           -5.4982     7.7804     5.4268 H       
  50 H50           -6.0746     6.9743     6.9053 H       
  51 H51           -4.6061     6.3891     6.0873 H       
  52 H52           -2.2874     6.2002     1.3066 H       
  53 H53           -0.3290     5.1893     0.3751 H       
  54 H54            0.5653     3.6961     0.7476 H       
  55 H55            1.5447     4.7416    -1.2376 H       
  56 H56            0.7265     3.2353    -1.7170 H       
  57 H57            0.1250     5.0638    -3.1314 H       
@<TRIPOS>BOND
   1    1    2 2
   2    1    6 1
   3    1    7 1
   4    2    3 1
   5    2   30 1
   6    3    4 2
   7    3   31 1
   8    4    5 1
   9    4   15 1
  10    5    6 am
  11    5   10 2
  12    6   32 1
  13    7    8 2
  14    7    9 am
  15    9   17 1
  16    9   27 1
  17   11   12 2
  18   11   15 1
  19   11   33 1
  20   12   13 1
  21   13   14 2
  22   13   16 1
  23   14   15 1
  24   14   34 1
  25   16   35 1
  26   16   36 1
  27   16   37 1
  28   17   18 1
  29   17   38 1
  30   17   39 1
  31   18   19 1
  32   18   26 1
  33   18   40 1
  34   19   20 1
  35   19   41 1
  36   19   42 1
  37   20   21 3
  38   21   22 1
  39   22   23 1
  40   22   24 1
  41   22   25 1
  42   23   43 1
  43   23   44 1
  44   23   45 1
  45   24   46 1
  46   24   47 1
  47   24   48 1
  48   25   49 1
  49   25   50 1
  50   25   51 1
  51   26   52 1
  52   27   28 1
  53   27   53 1
  54   27   54 1
  55   28   29 1
  56   28   55 1
  57   28   56 1
  58   29   57 1

#	End of record

