#	Name: ASD01883570
#	Creating user name:	WinNT
#	Creation time:	15. 06. 2019 19:46

#	Modifying user name:	WinNT
#	Modification time:	15. 06. 2019 19:46

#	Program:	/corina/corina34_cracker 3.40 0067  02.08.2006

@<TRIPOS>MOLECULE
ASD01883570
  47   49    0    0    0
SMALL
NO_CHARGES


@<TRIPOS>ATOM
   1 C1             0.0936     1.3378     0.4263 C.2     
   2 C2             0.1035     0.0051     0.6391 C.2     
   3 N3             1.1391    -0.5925     1.2863 N.am    
   4 C4             2.1866     0.1235     1.7348 C.2     
   5 C5             2.2265     1.5118     1.5394 C.2     
   6 C6             1.1732     2.1295     0.8802 C.2     
   7 O7             3.1044    -0.4367     2.3136 O.2     
   8 Cl8            3.5732     2.4439     2.1150 Cl      
   9 C9             1.1805     3.5930     0.6552 C.ar    
  10 C10            1.2434     4.1005    -0.6432 C.ar    
  11 C11            1.2501     5.4631    -0.8492 C.ar    
  12 C12            1.1947     6.3312     0.2341 C.ar    
  13 C13            1.1325     5.8293     1.5280 C.ar    
  14 C14            1.1187     4.4678     1.7407 C.ar    
  15 O15            1.2019     7.6734     0.0277 O.3     
  16 C16            2.4004     8.3103     0.0185 C.ar    
  17 C17            3.5909     7.5931     0.1073 C.ar    
  18 C18            4.7890     8.2776     0.0942 C.ar    
  19 N19            4.8150     9.5934    -0.0011 N.ar    
  20 C20            3.7086    10.3077    -0.0872 C.ar    
  21 C21            2.4714     9.6976    -0.0860 C.ar    
  22 C22            3.7982    11.8083    -0.1939 C.3     
  23 C23            1.1141    -2.0416     1.4996 C.3     
  24 C24            1.7791    -2.7433     0.3138 C.3     
  25 C25            1.7529    -4.2567     0.5366 C.3     
  26 C26            2.4180    -4.9584    -0.6493 C.3     
  27 H27           -0.7344     1.7973    -0.0930 H       
  28 H28           -0.7236    -0.5956     0.2905 H       
  29 H29            1.2872     3.4262    -1.4857 H       
  30 H30            1.2988     5.8566    -1.8538 H       
  31 H31            1.0902     6.5069     2.3680 H       
  32 H32            1.0699     4.0782     2.7468 H       
  33 H33            3.5766     6.5161     0.1859 H       
  34 H34            5.7171     7.7295     0.1630 H       
  35 H35            1.5698    10.2881    -0.1567 H       
  36 H36            3.8513    12.0953    -1.2441 H       
  37 H37            2.9161    12.2583     0.2616 H       
  38 H38            4.6921    12.1566     0.3235 H       
  39 H39            1.6547    -2.2836     2.4147 H       
  40 H40            0.0811    -2.3780     1.5882 H       
  41 H41            1.2385    -2.5014    -0.6013 H       
  42 H42            2.8121    -2.4069     0.2252 H       
  43 H43            2.2935    -4.4987     1.4516 H       
  44 H44            0.7199    -4.5932     0.6251 H       
  45 H45            3.4510    -4.6220    -0.7379 H       
  46 H46            2.3993    -6.0366    -0.4906 H       
  47 H47            1.8774    -4.7165    -1.5644 H       
@<TRIPOS>BOND
   1    1    2 2
   2    1    6 1
   3    1   27 1
   4    2    3 1
   5    2   28 1
   6    3    4 am
   7    3   23 1
   8    4    5 1
   9    4    7 2
  10    5    6 2
  11    5    8 1
  12    6    9 1
  13    9   10 ar
  14    9   14 ar
  15   10   11 ar
  16   10   29 1
  17   11   12 ar
  18   11   30 1
  19   12   13 ar
  20   12   15 1
  21   13   14 ar
  22   13   31 1
  23   14   32 1
  24   15   16 1
  25   16   17 ar
  26   16   21 ar
  27   17   18 ar
  28   17   33 1
  29   18   19 ar
  30   18   34 1
  31   19   20 ar
  32   20   21 ar
  33   20   22 1
  34   21   35 1
  35   22   36 1
  36   22   37 1
  37   22   38 1
  38   23   24 1
  39   23   39 1
  40   23   40 1
  41   24   25 1
  42   24   41 1
  43   24   42 1
  44   25   26 1
  45   25   43 1
  46   25   44 1
  47   26   45 1
  48   26   46 1
  49   26   47 1

#	End of record

