#	Name: ASD05143341
#	Creating user name:	WinNT
#	Creation time:	15. 06. 2019 20:57

#	Modifying user name:	WinNT
#	Modification time:	15. 06. 2019 20:57

#	Program:	/corina/corina34_cracker 3.40 0067  02.08.2006

@<TRIPOS>MOLECULE
ASD05143341
  47   50    0    0    0
SMALL
NO_CHARGES


@<TRIPOS>ATOM
   1 C1            -0.0163     1.3505     0.0095 C.2     
   2 N2            -0.0073     0.0134     0.2273 N.pl3   
   3 S3            -1.6346    -0.4752     0.1547 S.3     
   4 C4            -2.2493     1.1573    -0.1677 C.2     
   5 N5            -1.1576     1.9331    -0.1865 N.2     
   6 N6            -3.5123     1.5287    -0.3459 N.2     
   7 C7            -3.8110     2.8384    -0.5863 C.ar    
   8 C8            -4.7166     3.1781    -1.5958 C.ar    
   9 C9             1.1078    -0.7963     0.4624 C.ar    
  10 C10            1.7127    -1.4771    -0.5934 C.ar    
  11 C11            1.6195    -0.9204     1.7466 C.ar    
  12 C12            2.7223    -1.7212     1.9760 C.ar    
  13 C13            3.3181    -2.4000     0.9292 C.ar    
  14 C14            2.8174    -2.2774    -0.3541 C.ar    
  15 C15            1.2404     2.1250     0.0016 C.ar    
  16 C16            1.2059     3.5233    -0.0843 C.ar    
  17 C17            2.4698     1.4689     0.0856 C.ar    
  18 C18            3.6402     2.1979     0.0783 C.ar    
  19 C19            3.6019     3.5790    -0.0121 C.ar    
  20 C20            2.3917     4.2408    -0.0905 C.ar    
  21 C21           -4.4186     5.4999    -1.0743 C.ar    
  22 C22           -3.5240     5.1696    -0.0686 C.ar    
  23 C23           -3.2170     3.8460     0.1796 C.ar    
  24 O24            1.2191    -1.3559    -1.8545 O.3     
  25 C25            1.8898    -2.0823    -2.8862 C.3     
  26 O26            0.0163     4.1722    -0.1617 O.3     
  27 C27            0.0594     5.5980    -0.2469 C.3     
  28 F28           -2.9467     6.1448     0.6669 F       
  29 C29           -5.0149     4.5056    -1.8337 C.ar    
  30 F30           -5.8895     4.8357    -2.8091 F       
  31 H31           -5.1817     2.4043    -2.1886 H       
  32 H32            1.1563    -0.3911     2.5661 H       
  33 H33            3.1198    -1.8168     2.9756 H       
  34 H34            4.1797    -3.0246     1.1135 H       
  35 H35            3.2855    -2.8091    -1.1693 H       
  36 H36            2.5041     0.3917     0.1566 H       
  37 H37            4.5908     1.6895     0.1437 H       
  38 H38            4.5233     4.1425    -0.0168 H       
  39 H39            2.3698     5.3183    -0.1607 H       
  40 H40           -4.6552     6.5363    -1.2643 H       
  41 H41           -2.5200     3.5900     0.9639 H       
  42 H42            2.9278    -1.7548    -2.9453 H       
  43 H43            1.8574    -3.1481    -2.6602 H       
  44 H44            1.3959    -1.8981    -3.8402 H       
  45 H45            0.6120     5.8921    -1.1392 H       
  46 H46           -0.9564     5.9894    -0.3031 H       
  47 H47            0.5553     5.9999     0.6366 H       
@<TRIPOS>BOND
   1    1    2 1
   2    1   15 1
   3    1    5 2
   4    2    3 1
   5    2    9 1
   6    3    4 1
   7    4    5 1
   8    4    6 2
   9    6    7 1
  10    7    8 ar
  11    7   23 ar
  12    8   29 ar
  13    8   31 1
  14    9   10 ar
  15    9   11 ar
  16   10   24 1
  17   10   14 ar
  18   11   12 ar
  19   11   32 1
  20   12   13 ar
  21   12   33 1
  22   13   14 ar
  23   13   34 1
  24   14   35 1
  25   15   16 ar
  26   15   17 ar
  27   16   26 1
  28   16   20 ar
  29   17   18 ar
  30   17   36 1
  31   18   19 ar
  32   18   37 1
  33   19   20 ar
  34   19   38 1
  35   20   39 1
  36   21   22 ar
  37   21   29 ar
  38   21   40 1
  39   22   23 ar
  40   22   28 1
  41   23   41 1
  42   24   25 1
  43   25   42 1
  44   25   43 1
  45   25   44 1
  46   26   27 1
  47   27   45 1
  48   27   46 1
  49   27   47 1
  50   29   30 1

#	End of record

