#	Name: ASD05730058
#	Creating user name:	WinNT
#	Creation time:	15. 06. 2019 21:02

#	Modifying user name:	WinNT
#	Modification time:	15. 06. 2019 21:02

#	Program:	/corina/corina34_cracker 3.40 0067  02.08.2006

@<TRIPOS>MOLECULE
ASD05730058
  89   95    0    0    0
SMALL
NO_CHARGES


@<TRIPOS>ATOM
   1 C1             0.9018    -1.0455     0.7162 C.3     
   2 C2             0.0166    -0.0412    -0.0269 C.3     
   3 C3            -1.4001    -0.5534    -0.0681 C.ar    
   4 C4            -2.0153    -0.7836    -1.2850 C.ar    
   5 C5            -3.3135    -1.2530    -1.3264 C.ar    
   6 C6            -4.0011    -1.4943    -0.1438 C.ar    
   7 C7            -3.3801    -1.2624     1.0768 C.ar    
   8 C8            -2.0800    -0.7975     1.1110 C.ar    
   9 N9            -5.3155    -1.9690    -0.1821 N.pl3   
  10 C10           -6.1693    -1.5584    -1.1878 C.ar    
  11 N11           -7.3718    -2.1074    -1.2673 N.ar    
  12 C12           -8.2205    -1.7382    -2.2199 C.ar    
  13 C13           -7.8149    -0.7507    -3.1438 C.ar    
  14 C14           -6.5308    -0.1998    -3.0169 C.ar    
  15 N15           -5.7558    -0.6234    -2.0361 N.ar    
  16 N16           -9.4680    -2.3020    -2.3101 N.am    
  17 C17          -10.3243    -1.9244    -3.2788 C.2     
  18 C18           -9.9350    -0.9030    -4.2533 C.2     
  19 C19           -8.6926    -0.3334    -4.1701 C.2     
  20 C20           -9.8727    -3.3255    -1.3432 C.3     
  21 C21          -10.5400    -2.6554    -0.1404 C.3     
  22 O22          -11.4281    -2.4354    -3.3448 O.2     
  23 C23          -10.8775    -0.4887    -5.3188 C.ar    
  24 C24          -12.0659     0.1618    -4.9881 C.ar    
  25 N25          -10.9458    -3.6816     0.8291 N.3     
  26 C26          -11.3727    -3.0701     2.0960 C.3     
  27 C27           -9.8625    -4.6491     1.0567 C.3     
  28 C28            0.0529     1.3025     0.7047 C.3     
  29 N29            1.4362     1.7919     0.7636 N.3     
  30 C30            2.2953     0.8667     1.5134 C.3     
  31 C31            2.3259    -0.4900     0.8060 C.3     
  32 S32          -13.7589     0.7799    -8.5771 S.o2    
  33 O33          -14.4670     1.8747    -8.0120 O.2     
  34 C34          -14.8581    -0.6473    -8.7901 C.3     
  35 O35          -12.9375     0.9521    -9.7238 O.2     
  36 C36          -15.8107    -0.3901    -9.9617 C.3     
  37 C37          -14.0238    -1.8965    -9.0895 C.3     
  38 C38          -14.9625    -3.0785    -9.3454 C.3     
  39 O39          -15.8417    -2.7615   -10.4264 O.3     
  40 C40          -16.6805    -1.6302   -10.1839 C.3     
  41 C41          -10.3473    -5.7314     2.0249 C.3     
  42 O42          -10.7873    -5.1159     3.2386 O.3     
  43 C43          -11.8423    -4.1682     3.0538 C.3     
  44 C44          -10.5770    -0.7424    -6.6567 C.ar    
  45 C45          -11.4585    -0.3537    -7.6446 C.ar    
  46 C46          -12.6383     0.2866    -7.3100 C.ar    
  47 C47          -12.9394     0.5457    -5.9848 C.ar    
  48 H48            0.5088    -1.2043     1.7204 H       
  49 H49            0.9133    -1.9914     0.1746 H       
  50 H50            0.3868     0.0875    -1.0440 H       
  51 H51           -1.4801    -0.5959    -2.2041 H       
  52 H52           -3.7936    -1.4320    -2.2771 H       
  53 H53           -3.9119    -1.4489     1.9980 H       
  54 H54           -1.5966    -0.6170     2.0598 H       
  55 H55           -5.6280    -2.5867     0.4974 H       
  56 H56           -6.1853     0.5578    -3.7048 H       
  57 H57           -8.3871     0.4213    -4.8796 H       
  58 H58          -10.5768    -4.0117    -1.8137 H       
  59 H59           -8.9943    -3.8782    -1.0100 H       
  60 H60           -9.8359    -1.9692     0.3301 H       
  61 H61          -11.4184    -2.1027    -0.4736 H       
  62 H62          -12.3021     0.3644    -3.9539 H       
  63 H63          -10.5354    -2.5326     2.5411 H       
  64 H64          -12.1923    -2.3766     1.9075 H       
  65 H65           -9.5797    -5.1083     0.1095 H       
  66 H66           -9.0011    -4.1368     1.4851 H       
  67 H67           -0.5651     2.0239     0.1702 H       
  68 H68           -0.3307     1.1754     1.7170 H       
  69 H69            1.8019     1.9548    -0.1626 H       
  70 H70            3.3060     1.2716     1.5663 H       
  71 H71            1.9012     0.7416     2.5219 H       
  72 H72            2.9511    -1.1811     1.3712 H       
  73 H73            2.7329    -0.3679    -0.1978 H       
  74 H74          -15.4350    -0.8025    -7.8784 H       
  75 H75          -16.4470     0.4648    -9.7329 H       
  76 H76          -15.2327    -0.1844   -10.8627 H       
  77 H77          -13.4097    -1.7213    -9.9729 H       
  78 H78          -13.3821    -2.1190    -8.2370 H       
  79 H79          -14.3753    -3.9604    -9.6010 H       
  80 H80          -15.5476    -3.2788    -8.4478 H       
  81 H81          -17.2881    -1.8116    -9.2973 H       
  82 H82          -17.3308    -1.4689   -11.0436 H       
  83 H83          -11.1747    -6.2792     1.5739 H       
  84 H84           -9.5296    -6.4190     2.2412 H       
  85 H85          -12.1059    -3.7253     4.0143 H       
  86 H86          -12.7132    -4.6706     2.6327 H       
  87 H87           -9.6561    -1.2418    -6.9192 H       
  88 H88          -11.2268    -0.5493    -8.6811 H       
  89 H89          -13.8622     1.0455    -5.7296 H       
@<TRIPOS>BOND
   1    1    2 1
   2    1   31 1
   3    1   48 1
   4    1   49 1
   5    2    3 1
   6    2   28 1
   7    2   50 1
   8    3    4 ar
   9    3    8 ar
  10    4    5 ar
  11    4   51 1
  12    5    6 ar
  13    5   52 1
  14    6    7 ar
  15    6    9 1
  16    7    8 ar
  17    7   53 1
  18    8   54 1
  19    9   10 1
  20    9   55 1
  21   10   11 ar
  22   10   15 ar
  23   11   12 ar
  24   12   13 ar
  25   12   16 1
  26   13   14 ar
  27   13   19 1
  28   14   15 ar
  29   14   56 1
  30   16   17 am
  31   16   20 1
  32   17   18 1
  33   17   22 2
  34   18   19 2
  35   18   23 1
  36   19   57 1
  37   20   21 1
  38   20   58 1
  39   20   59 1
  40   21   25 1
  41   21   60 1
  42   21   61 1
  43   23   44 ar
  44   23   24 ar
  45   24   47 ar
  46   24   62 1
  47   25   26 1
  48   25   27 1
  49   26   43 1
  50   26   63 1
  51   26   64 1
  52   27   41 1
  53   27   65 1
  54   27   66 1
  55   28   29 1
  56   28   67 1
  57   28   68 1
  58   29   30 1
  59   29   69 1
  60   30   31 1
  61   30   70 1
  62   30   71 1
  63   31   72 1
  64   31   73 1
  65   32   33 2
  66   32   34 1
  67   32   35 2
  68   32   46 1
  69   34   36 1
  70   34   37 1
  71   34   74 1
  72   36   40 1
  73   36   75 1
  74   36   76 1
  75   37   38 1
  76   37   77 1
  77   37   78 1
  78   38   39 1
  79   38   79 1
  80   38   80 1
  81   39   40 1
  82   40   81 1
  83   40   82 1
  84   41   42 1
  85   41   83 1
  86   41   84 1
  87   42   43 1
  88   43   85 1
  89   43   86 1
  90   44   45 ar
  91   44   87 1
  92   45   46 ar
  93   45   88 1
  94   46   47 ar
  95   47   89 1

#	End of record

