#	Name: ASD01880261
#	Creating user name:	WinNT
#	Creation time:	15. 06. 2019 19:40

#	Modifying user name:	WinNT
#	Modification time:	15. 06. 2019 19:40

#	Program:	/corina/corina34_cracker 3.40 0067  02.08.2006

@<TRIPOS>MOLECULE
ASD01880261
  43   46    0    0    0
SMALL
NO_CHARGES


@<TRIPOS>ATOM
   1 C1             0.0156     1.1637    -1.5525 C.2     
   2 C2             0.0357    -0.0656    -0.8782 C.2     
   3 C3            -1.1788    -0.6084    -0.4091 C.2     
   4 C4            -2.3456     0.0351    -0.6007 C.2     
   5 N5            -2.4109     1.2327    -1.2517 N.pl3   
   6 C6            -1.2750     1.8320    -1.7328 C.2     
   7 C7            -3.4581     2.0608    -1.5622 C.2     
   8 C8            -2.9453     3.1226    -2.2190 C.2     
   9 N9            -1.6205     2.9675    -2.3124 N.2     
  10 C10           -4.9102     1.8289    -1.2325 C.3     
  11 C11            1.2242     1.7522    -2.0460 C.1     
  12 N12            2.1830     2.2191    -2.4375 N.1     
  13 C13            1.3106    -0.7823    -0.6626 C.ar    
  14 C14            1.7973    -0.9710     0.6329 C.ar    
  15 C15            2.9859    -1.6393     0.8298 C.ar    
  16 C16            3.7005    -2.1250    -0.2584 C.ar    
  17 C17            3.2196    -1.9392    -1.5488 C.ar    
  18 C18            2.0287    -1.2773    -1.7534 C.ar    
  19 O19            4.8720    -2.7824    -0.0604 O.3     
  20 C20            6.0203    -2.0560    -0.0677 C.ar    
  21 C21            5.9671    -0.6728    -0.1646 C.ar    
  22 C22            7.1359     0.0633    -0.1718 C.ar    
  23 C23            8.3583    -0.5770    -0.0830 C.ar    
  24 C24            8.4141    -1.9552     0.0132 C.ar    
  25 C25            7.2480    -2.6956     0.0275 C.ar    
  26 C26           -5.6055     1.1709    -2.4260 C.3     
  27 F27           -4.9899    -0.0535    -2.7073 F       
  28 F28           -6.9535     0.9556    -2.1199 F       
  29 F29           -5.5088     2.0087    -3.5421 F       
  30 H30           -1.1725    -1.5547     0.1113 H       
  31 H31           -3.2567    -0.4095    -0.2286 H       
  32 H32           -3.5102     3.9595    -2.6022 H       
  33 H33           -4.9856     1.1761    -0.3628 H       
  34 H34           -5.3899     2.7829    -1.0133 H       
  35 H35            1.2427    -0.5932     1.4791 H       
  36 H36            3.3628    -1.7856     1.8312 H       
  37 H37            3.7778    -2.3181    -2.3922 H       
  38 H38            1.6555    -1.1333    -2.7566 H       
  39 H39            5.0127    -0.1722    -0.2347 H       
  40 H40            7.0951     1.1399    -0.2472 H       
  41 H41            9.2709     0.0004    -0.0892 H       
  42 H42            9.3701    -2.4529     0.0821 H       
  43 H43            7.2922    -3.7721     0.1027 H       
@<TRIPOS>BOND
   1    1    2 2
   2    1   11 1
   3    1    6 1
   4    2    3 1
   5    2   13 1
   6    3    4 2
   7    3   30 1
   8    4    5 1
   9    4   31 1
  10    5    6 1
  11    5    7 1
  12    6    9 2
  13    7    8 2
  14    7   10 1
  15    8    9 1
  16    8   32 1
  17   10   26 1
  18   10   33 1
  19   10   34 1
  20   11   12 3
  21   13   14 ar
  22   13   18 ar
  23   14   15 ar
  24   14   35 1
  25   15   16 ar
  26   15   36 1
  27   16   17 ar
  28   16   19 1
  29   17   18 ar
  30   17   37 1
  31   18   38 1
  32   19   20 1
  33   20   21 ar
  34   20   25 ar
  35   21   22 ar
  36   21   39 1
  37   22   23 ar
  38   22   40 1
  39   23   24 ar
  40   23   41 1
  41   24   25 ar
  42   24   42 1
  43   25   43 1
  44   26   27 1
  45   26   28 1
  46   26   29 1

#	End of record

