#	Name: ASD03170013
#	Creating user name:	WinNT
#	Creation time:	15. 06. 2019 20:33

#	Modifying user name:	WinNT
#	Modification time:	15. 06. 2019 20:33

#	Program:	/corina/corina34_cracker 3.40 0067  02.08.2006

@<TRIPOS>MOLECULE
ASD03170013
  62   65    0    0    0
SMALL
NO_CHARGES


@<TRIPOS>ATOM
   1 C1            -0.2469     0.4170    -1.5215 C.3     
   2 S2            -0.5793    -1.3002    -1.0404 S.3     
   3 C3             0.6319    -1.5966     0.2771 C.3     
   4 O4             0.2089    -0.9346     1.4708 O.3     
   5 C5            -0.8706    -1.5850     2.1449 C.3     
   6 C6            -0.3126    -2.5910     3.1490 C.3     
   7 C7            -1.4291    -3.2510     3.9549 C.3     
   8 C8            -0.8152    -4.1782     4.9730 C.2     
   9 O9            -1.2168    -4.1752     6.1126 O.2     
  10 O10            0.1775    -5.0071     4.6135 O.3     
  11 C11            0.7209    -5.8716     5.6458 C.3     
  12 C12           -2.2751    -2.1845     4.6767 C.3     
  13 C13           -2.8422    -1.2603     3.6093 C.3     
  14 C14           -1.7184    -0.5348     2.8731 C.3     
  15 C15           -3.9327    -0.3195     4.0728 C.3     
  16 C16           -3.3948     0.7992     4.9606 C.3     
  17 C17           -4.6297     0.3275     2.8631 C.3     
  18 C18           -5.7511     1.2558     3.3293 C.3     
  19 O19           -6.6454     0.5910     4.2586 O.3     
  20 C20           -6.0814    -0.1436     5.2438 C.2     
  21 O21           -6.4147    -0.0279     6.3967 O.2     
  22 C22           -5.0132    -1.1188     4.8154 C.3     
  23 C23           -4.4048    -1.8680     5.9885 C.3     
  24 C24           -3.3919    -2.8844     5.4508 C.3     
  25 C25           -6.5468     1.6980     2.1283 C.2     
  26 C26           -7.5663     1.0347     1.5537 C.2     
  27 O27           -8.0091     1.7572     0.5118 O.3     
  28 C28           -7.2844     2.8831     0.4073 C.2     
  29 C29           -6.3691     2.8924     1.3930 C.2     
  30 C30           -1.3624    -1.4625     5.6681 C.3     
  31 H31            0.7819     0.5038    -1.8709 H       
  32 H32           -0.9280     0.7087    -2.3209 H       
  33 H33           -0.3948     1.0704    -0.6616 H       
  34 H34            0.7106    -2.6675     0.4640 H       
  35 H35            1.6036    -1.2087    -0.0287 H       
  36 H36           -1.4932    -2.1026     1.4146 H       
  37 H37            0.2257    -3.3735     2.5964 H       
  38 H38            0.4017    -2.1019     3.8083 H       
  39 H39           -2.0767    -3.8192     3.2875 H       
  40 H40            1.5139    -6.4883     5.2229 H       
  41 H41            1.1261    -5.2624     6.4537 H       
  42 H42           -0.0695    -6.5130     6.0357 H       
  43 H43           -3.3167    -1.9305     2.8464 H       
  44 H44           -1.0933     0.0358     3.5484 H       
  45 H45           -2.1487     0.1410     2.1289 H       
  46 H46           -2.5531     1.2832     4.4654 H       
  47 H47           -4.1818     1.5320     5.1388 H       
  48 H48           -3.0653     0.3814     5.9119 H       
  49 H49           -3.8934     0.8983     2.2966 H       
  50 H50           -5.0421    -0.4617     2.2330 H       
  51 H51           -5.3331     2.1475     3.7995 H       
  52 H52           -5.4554    -1.8391     4.1170 H       
  53 H53           -3.9304    -1.1900     6.6896 H       
  54 H54           -5.1976    -2.4116     6.5195 H       
  55 H55           -3.9040    -3.5862     4.7921 H       
  56 H56           -2.9693    -3.4285     6.2974 H       
  57 H57           -7.9613     0.0823     1.8753 H       
  58 H58           -7.4168     3.6525    -0.3389 H       
  59 H59           -5.6344     3.6611     1.5819 H       
  60 H60           -0.5601    -0.9624     5.1256 H       
  61 H61           -1.9410    -0.7241     6.2232 H       
  62 H62           -0.9355    -2.1862     6.3624 H       
@<TRIPOS>BOND
   1    1    2 1
   2    1   31 1
   3    1   32 1
   4    1   33 1
   5    2    3 1
   6    3    4 1
   7    3   34 1
   8    3   35 1
   9    4    5 1
  10    5    6 1
  11    5   14 1
  12    5   36 1
  13    6    7 1
  14    6   37 1
  15    6   38 1
  16    7    8 1
  17    7   12 1
  18    7   39 1
  19    8    9 2
  20    8   10 1
  21   10   11 1
  22   11   40 1
  23   11   41 1
  24   11   42 1
  25   12   30 1
  26   12   13 1
  27   12   24 1
  28   13   14 1
  29   13   15 1
  30   13   43 1
  31   14   44 1
  32   14   45 1
  33   15   16 1
  34   15   17 1
  35   15   22 1
  36   16   46 1
  37   16   47 1
  38   16   48 1
  39   17   18 1
  40   17   49 1
  41   17   50 1
  42   18   19 1
  43   18   25 1
  44   18   51 1
  45   19   20 1
  46   20   21 2
  47   20   22 1
  48   22   23 1
  49   22   52 1
  50   23   24 1
  51   23   53 1
  52   23   54 1
  53   24   55 1
  54   24   56 1
  55   25   26 2
  56   25   29 1
  57   26   27 1
  58   26   57 1
  59   27   28 1
  60   28   29 2
  61   28   58 1
  62   29   59 1
  63   30   60 1
  64   30   61 1
  65   30   62 1

#	End of record

