#	Name: ASD01810923
#	Creating user name:	WinNT
#	Creation time:	15. 06. 2019 19:25

#	Modifying user name:	WinNT
#	Modification time:	15. 06. 2019 19:25

#	Program:	/corina/corina34_cracker 3.40 0067  02.08.2006

@<TRIPOS>MOLECULE
ASD01810923
  62   65    0    0    0
SMALL
NO_CHARGES


@<TRIPOS>ATOM
   1 C1             5.4421    13.4306    -2.9062 C.1     
   2 C2             4.4705    12.5112    -2.3951 C.ar    
   3 C3             4.8584    11.2303    -1.9969 C.ar    
   4 C4             3.9172    10.3497    -1.5054 C.ar    
   5 C5             2.5913    10.7329    -1.4071 C.ar    
   6 C6             2.2000    12.0005    -1.8003 C.ar    
   7 C7             3.1318    12.8935    -2.2872 C.ar    
   8 N8             6.2129    14.1600    -3.3117 N.1     
   9 N9            -1.0469     8.9942    -0.1186 N.am    
  10 C10           -0.0992     9.3560     0.9442 C.3     
  11 C11            0.9147    10.3569     0.3810 C.3     
  12 C12            1.5687     9.7652    -0.8697 C.3     
  13 C13            0.4994     9.5099    -1.9344 C.3     
  14 C14           -0.5191     8.4995    -1.3974 C.3     
  15 C15           -2.3754     9.1085     0.0778 C.2     
  16 C16           -2.8957     9.4837     1.4085 C.ar    
  17 C17           -3.8591    10.4919     1.5266 C.ar    
  18 C18           -4.3456    10.8432     2.7737 C.ar    
  19 C19           -3.8848    10.2028     3.9056 C.ar    
  20 C20           -2.9234     9.1950     3.8004 C.ar    
  21 C21           -2.4328     8.8308     2.5494 C.ar    
  22 O22           -3.1455     8.9030    -0.8401 O.2     
  23 N23           -2.1751     7.9691     7.0564 N.2     
  24 N24           -2.8081     8.7481     6.2534 N.2     
  25 C25           -2.4312     8.5115     5.0166 C.2     
  26 N26           -1.4973     7.5123     5.0675 N.pl3   
  27 C27           -1.3643     7.1964     6.3849 C.2     
  28 C28           -0.4487     6.1480     6.9625 C.3     
  29 C29            0.4492     6.7846     8.0252 C.3     
  30 O30            1.3174     5.7904     8.5729 O.3     
  31 C31            2.2028     6.2833     9.5805 C.3     
  32 F32           -4.3142    11.1232     0.4223 F       
  33 C33           -4.4200    10.5922     5.2594 C.3     
  34 C34           -3.4844    11.6183     5.9018 C.3     
  35 H35            5.8928    10.9297    -2.0738 H       
  36 H36            4.2158     9.3587    -1.1971 H       
  37 H37            1.1634    12.2931    -1.7212 H       
  38 H38            2.8258    13.8842    -2.5893 H       
  39 H39           -0.6383     9.8106     1.7754 H       
  40 H40            0.4219     8.4628     1.2888 H       
  41 H41            0.4044    11.2842     0.1206 H       
  42 H42            1.6799    10.5602     1.1302 H       
  43 H43            2.0577     8.8252    -0.6137 H       
  44 H44           -0.0070    10.4452    -2.1730 H       
  45 H45            0.9691     9.1104    -2.8332 H       
  46 H46           -0.0323     7.5364    -1.2438 H       
  47 H47           -1.3353     8.3889    -2.1113 H       
  48 H48           -5.0888    11.6219     2.8613 H       
  49 H49           -1.6927     8.0489     2.4640 H       
  50 H50           -1.0275     7.1117     4.3193 H       
  51 H51           -1.0441     5.3561     7.4168 H       
  52 H52            0.1692     5.7281     6.1688 H       
  53 H53            1.0446     7.5765     7.5708 H       
  54 H54           -0.1687     7.2045     8.8189 H       
  55 H55            2.8279     5.4682     9.9452 H       
  56 H56            2.8346     7.0648     9.1584 H       
  57 H57            1.6213     6.6928    10.4064 H       
  58 H58           -5.4131    11.0269     5.1463 H       
  59 H59           -4.4804     9.7082     5.8942 H       
  60 H60           -3.8715    11.9000     6.8811 H       
  61 H61           -2.4912    11.1837     6.0150 H       
  62 H62           -3.4239    12.5024     5.2670 H       
@<TRIPOS>BOND
   1    1    2 1
   2    1    8 3
   3    2    3 ar
   4    2    7 ar
   5    3    4 ar
   6    3   35 1
   7    4    5 ar
   8    4   36 1
   9    5    6 ar
  10    5   12 1
  11    6    7 ar
  12    6   37 1
  13    7   38 1
  14    9   10 1
  15    9   14 1
  16    9   15 am
  17   10   11 1
  18   10   39 1
  19   10   40 1
  20   11   12 1
  21   11   41 1
  22   11   42 1
  23   12   13 1
  24   12   43 1
  25   13   14 1
  26   13   44 1
  27   13   45 1
  28   14   46 1
  29   14   47 1
  30   15   16 1
  31   15   22 2
  32   16   17 ar
  33   16   21 ar
  34   17   18 ar
  35   17   32 1
  36   18   19 ar
  37   18   48 1
  38   19   20 ar
  39   19   33 1
  40   20   21 ar
  41   20   25 1
  42   21   49 1
  43   23   24 1
  44   23   27 2
  45   24   25 2
  46   25   26 1
  47   26   27 1
  48   26   50 1
  49   27   28 1
  50   28   29 1
  51   28   51 1
  52   28   52 1
  53   29   30 1
  54   29   53 1
  55   29   54 1
  56   30   31 1
  57   31   55 1
  58   31   56 1
  59   31   57 1
  60   33   34 1
  61   33   58 1
  62   33   59 1
  63   34   60 1
  64   34   61 1
  65   34   62 1

#	End of record

