#	Name: ASD00192093
#	Creating user name:	WinNT
#	Creation time:	15. 06. 2019 18:33

#	Modifying user name:	WinNT
#	Modification time:	15. 06. 2019 18:33

#	Program:	/corina/corina34_cracker 3.40 0067  02.08.2006

@<TRIPOS>MOLECULE
ASD00192093
  46   50    0    0    0
SMALL
NO_CHARGES


@<TRIPOS>ATOM
   1 C1            -0.0154     1.3890     0.0343 C.ar    
   2 C2             0.0026    -0.0010     0.0128 C.ar    
   3 C3             1.1801    -0.6876    -0.0097 C.ar    
   4 C4             2.3965     0.0123    -0.0112 C.ar    
   5 C5             2.3719     1.4269     0.0108 C.ar    
   6 C6             1.1497     2.1011     0.0336 C.ar    
   7 N7             3.5674    -0.6415    -0.0326 N.ar    
   8 C8             4.7273    -0.0214    -0.0343 C.ar    
   9 C9             4.8190     1.3796    -0.0132 C.ar    
  10 C10            3.6478     2.1441     0.0089 C.ar    
  11 N11            5.8587     2.2833    -0.0090 N.pl3   
  12 C12            5.3155     3.5207     0.0156 C.2     
  13 N13            4.0134     3.4342     0.0259 N.2     
  14 N14            5.8931    -0.7726    -0.0572 N.pl3   
  15 C15            5.8289    -2.1658     0.0415 C.ar    
  16 C16            6.7404    -2.9548    -0.6485 C.ar    
  17 C17            4.8573    -2.7630     0.8341 C.ar    
  18 C18            4.7956    -4.1396     0.9302 C.ar    
  19 C19            5.7009    -4.9241     0.2382 C.ar    
  20 C20            6.6745    -4.3315    -0.5491 C.ar    
  21 Cl21           5.6207    -6.6538     0.3619 Cl      
  22 Cl22           7.8085    -5.3192    -1.4165 Cl      
  23 C23            6.0974     4.8089     0.0288 C.3     
  24 C24            7.3809     4.6201     0.8417 C.3     
  25 O25            8.1483     5.8250     0.8045 O.3     
  26 C26            8.5600     6.2143    -0.5074 C.3     
  27 C27            7.3239     6.4672    -1.3745 C.3     
  28 C28            6.4641     5.1999    -1.4062 C.3     
  29 H29           -0.9607     1.9111     0.0474 H       
  30 H30           -0.9304    -0.5450     0.0142 H       
  31 H31            1.1769    -1.7675    -0.0259 H       
  32 H32            1.1259     3.1807     0.0508 H       
  33 H33            6.8051     2.0709    -0.0210 H       
  34 H34            6.7528    -0.3315    -0.1416 H       
  35 H35            7.4995    -2.4929    -1.2623 H       
  36 H36            4.1506    -2.1514     1.3753 H       
  37 H37            4.0401    -4.6040     1.5466 H       
  38 H38            5.4937     5.5969     0.4790 H       
  39 H39            7.1254     4.3836     1.8746 H       
  40 H40            7.9644     3.8041     0.4154 H       
  41 H41            9.1539     7.1262    -0.4463 H       
  42 H42            9.1590     5.4192    -0.9513 H       
  43 H43            6.7455     7.2894    -0.9533 H       
  44 H44            7.6356     6.7213    -2.3876 H       
  45 H45            7.0252     4.3901    -1.8727 H       
  46 H46            5.5546     5.3905    -1.9759 H       
@<TRIPOS>BOND
   1    1    2 ar
   2    1    6 ar
   3    1   29 1
   4    2    3 ar
   5    2   30 1
   6    3    4 ar
   7    3   31 1
   8    4    5 ar
   9    4    7 ar
  10    5    6 ar
  11    5   10 ar
  12    6   32 1
  13    7    8 ar
  14    8    9 ar
  15    8   14 1
  16    9   10 ar
  17    9   11 1
  18   10   13 1
  19   11   12 1
  20   11   33 1
  21   12   13 2
  22   12   23 1
  23   14   15 1
  24   14   34 1
  25   15   16 ar
  26   15   17 ar
  27   16   20 ar
  28   16   35 1
  29   17   18 ar
  30   17   36 1
  31   18   19 ar
  32   18   37 1
  33   19   20 ar
  34   19   21 1
  35   20   22 1
  36   23   24 1
  37   23   28 1
  38   23   38 1
  39   24   25 1
  40   24   39 1
  41   24   40 1
  42   25   26 1
  43   26   27 1
  44   26   41 1
  45   26   42 1
  46   27   28 1
  47   27   43 1
  48   27   44 1
  49   28   45 1
  50   28   46 1

#	End of record

