#	Name: ASD01870310
#	Creating user name:	WinNT
#	Creation time:	15. 06. 2019 19:39

#	Modifying user name:	WinNT
#	Modification time:	15. 06. 2019 19:39

#	Program:	/corina/corina34_cracker 3.40 0067  02.08.2006

@<TRIPOS>MOLECULE
ASD01870310
  41   44    0    0    0
SMALL
NO_CHARGES


@<TRIPOS>ATOM
   1 C1            -0.0301     1.3891    -0.2429 C.ar    
   2 C2            -0.0268     0.0147    -0.1265 C.ar    
   3 C3             1.1542    -0.6631     0.1193 C.ar    
   4 C4             2.3440     0.0355     0.2504 C.ar    
   5 C5             2.3513     1.4076     0.1353 C.ar    
   6 C6             1.1643     2.1006    -0.1127 C.ar    
   7 C7             3.4416     2.4460     0.2222 C.3     
   8 N8             2.7906     3.7436     0.0086 N.am    
   9 C9             1.4758     3.5408    -0.1840 C.2     
  10 O10            0.6601     4.4187    -0.3887 O.2     
  11 C11            3.4330     4.9881     0.0067 C.ar    
  12 C12            3.9412     5.5055    -1.1776 C.ar    
  13 C13            4.5748     6.7319    -1.1796 C.ar    
  14 C14            4.7040     7.4493     0.0028 C.ar    
  15 C15            4.1961     6.9328     1.1876 C.ar    
  16 C16            3.5569     5.7081     1.1890 C.ar    
  17 N17            5.3467     8.6929     0.0002 N.am    
  18 C18            6.1017     9.0635     1.0533 C.2     
  19 C19            6.8567    10.3196     1.0083 C.2     
  20 O20            6.1568     8.3554     2.0418 O.2     
  21 C21            7.6562    10.8114     2.0002 C.2     
  22 C22            8.1770    12.0281     1.5327 C.2     
  23 C23            7.6790    12.2233     0.2918 C.2     
  24 O24            6.8879    11.1893    -0.0227 O.3     
  25 C25            7.9262    10.1721     3.3379 C.3     
  26 Cl26           3.8234    -0.8184     0.5598 Cl      
  27 Cl27           2.9150     5.0653     2.6683 Cl      
  28 H28           -0.9538     1.9134    -0.4389 H       
  29 H29           -0.9508    -0.5353    -0.2273 H       
  30 H30            1.1488    -1.7393     0.2095 H       
  31 H31            3.9075     2.4184     1.2072 H       
  32 H32            4.1890     2.2700    -0.5513 H       
  33 H33            3.8410     4.9481    -2.0972 H       
  34 H34            4.9706     7.1336    -2.1008 H       
  35 H35            4.2969     7.4904     2.1070 H       
  36 H36            5.2486     9.2879    -0.7595 H       
  37 H37            8.8491    12.6850     2.0649 H       
  38 H38            7.8875    13.0716    -0.3433 H       
  39 H39            8.7954     9.5190     3.2596 H       
  40 H40            8.1200    10.9477     4.0788 H       
  41 H41            7.0585     9.5871     3.6428 H       
@<TRIPOS>BOND
   1    1    2 ar
   2    1    6 ar
   3    1   28 1
   4    2    3 ar
   5    2   29 1
   6    3    4 ar
   7    3   30 1
   8    4    5 ar
   9    4   26 1
  10    5    7 1
  11    5    6 ar
  12    6    9 1
  13    7    8 1
  14    7   31 1
  15    7   32 1
  16    8    9 am
  17    8   11 1
  18    9   10 2
  19   11   12 ar
  20   11   16 ar
  21   12   13 ar
  22   12   33 1
  23   13   14 ar
  24   13   34 1
  25   14   15 ar
  26   14   17 1
  27   15   16 ar
  28   15   35 1
  29   16   27 1
  30   17   18 am
  31   17   36 1
  32   18   19 1
  33   18   20 2
  34   19   21 2
  35   19   24 1
  36   21   22 1
  37   21   25 1
  38   22   23 2
  39   22   37 1
  40   23   24 1
  41   23   38 1
  42   25   39 1
  43   25   40 1
  44   25   41 1

#	End of record

