#	Name: ASD01152188
#	Creating user name:	WinNT
#	Creation time:	15. 06. 2019 19:05

#	Modifying user name:	WinNT
#	Modification time:	15. 06. 2019 19:05

#	Program:	/corina/corina34_cracker 3.40 0067  02.08.2006

@<TRIPOS>MOLECULE
ASD01152188
  16   16    0    0    0
SMALL
NO_CHARGES


@<TRIPOS>ATOM
   1 C1            -0.0166     1.3766     0.0096 C.ar    
   2 C2             0.0021    -0.0041     0.0020 C.ar    
   3 C3             1.2082    -0.6808    -0.0131 C.ar    
   4 C4             2.3988     0.0221    -0.0203 C.ar    
   5 C5             2.3873     1.4033    -0.0123 C.ar    
   6 C6             1.1779     2.0860     0.0020 C.ar    
   7 N7             1.1626     3.4826     0.0097 N.pl3   
   8 N8             3.6871    -0.7063    -0.0360 N.pl3   
   9 O9             3.6981    -1.9242    -0.0426 O.2     
  10 O10            4.7364    -0.0878    -0.0423 O.2     
  11 H11           -0.9588     1.9044     0.0169 H       
  12 H12           -0.9261    -0.5561     0.0083 H       
  13 H13            1.2200    -1.7607    -0.0190 H       
  14 H14            3.3177     1.9517    -0.0171 H       
  15 H15            1.9972     3.9768     0.0050 H       
  16 H16            0.3173     3.9584     0.0196 H       
@<TRIPOS>BOND
   1    1    2 ar
   2    1    6 ar
   3    1   11 1
   4    2    3 ar
   5    2   12 1
   6    3    4 ar
   7    3   13 1
   8    4    5 ar
   9    4    8 1
  10    5    6 ar
  11    5   14 1
  12    6    7 1
  13    7   15 1
  14    7   16 1
  15    8    9 2
  16    8   10 2

#	End of record

