#	Name: ASD03330332
#	Creating user name:	WinNT
#	Creation time:	15. 06. 2019 20:37

#	Modifying user name:	WinNT
#	Modification time:	15. 06. 2019 20:37

#	Program:	/corina/corina34_cracker 3.40 0067  02.08.2006

@<TRIPOS>MOLECULE
ASD03330332
  70   75    0    0    0
SMALL
NO_CHARGES


@<TRIPOS>ATOM
   1 C1             0.0059     1.1367    -0.1855 C.3     
   2 N2             0.0436    -0.3329    -0.2304 N.am    
   3 C3             0.6818    -0.9741    -1.3960 C.3     
   4 C4             1.9485    -0.2054    -1.6818 C.2     
   5 N5             2.2651     0.9808    -1.1043 N.pl3   
   6 C6             1.4381     1.6782    -0.1167 C.3     
   7 C7             2.9611    -0.5306    -2.5252 C.2     
   8 N8             3.8808     0.4585    -2.4609 N.2     
   9 C9             3.4684     1.3707    -1.6109 C.2     
  10 C10            4.1896     2.6146    -1.2621 C.ar    
  11 C11            5.2438     3.0602    -2.0599 C.ar    
  12 C12            3.0437    -1.7427    -3.3593 C.2     
  13 O13            2.1472    -2.5641    -3.3287 O.2     
  14 C14            4.1946    -3.1460    -4.9851 C.3     
  15 N15            4.1125    -1.9410    -4.1559 N.am    
  16 C16           -0.4883    -1.0717     0.7634 C.2     
  17 O17           -0.9109    -0.5284     1.7652 O.2     
  18 C18            5.9121     4.2213    -1.7296 C.ar    
  19 C19            5.5388     4.9431    -0.6100 C.ar    
  20 C20            4.4942     4.5065     0.1851 C.ar    
  21 C21            3.8146     3.3499    -0.1374 C.ar    
  22 C22            5.1078    -2.8926    -6.2233 C.3     
  23 C23            5.2907    -3.8151    -2.8102 C.3     
  24 C24            4.8938    -4.2865    -4.2106 C.3     
  25 C25           -0.5577    -2.5429     0.6351 C.ar    
  26 C26            3.9790    -5.5096    -4.1212 C.3     
  27 C27            4.9116    -4.1546    -7.1178 C.3     
  28 C28            5.6108    -5.2951    -6.3433 C.3     
  29 C29            6.1637    -4.6148    -5.0538 C.3     
  30 C30            6.5205    -3.1903    -5.6076 C.3     
  31 C31            4.9283    -1.5433    -6.9218 C.3     
  32 C32           -0.3909    -3.3532     1.7592 C.ar    
  33 C33           -0.7961    -3.1274    -0.6098 C.ar    
  34 C34           -0.8602    -4.5009    -0.7226 C.ar    
  35 C35           -0.6892    -5.2986     0.3949 C.ar    
  36 C36           -0.4573    -4.7254     1.6327 C.ar    
  37 H37           -0.4838     1.5157    -1.0825 H       
  38 H38           -0.5480     1.4597     0.6961 H       
  39 H39            0.9206    -2.0123    -1.1651 H       
  40 H40            0.0156    -0.9272    -2.2575 H       
  41 H41            1.4344     2.7463    -0.3341 H       
  42 H42            1.8433     1.5103     0.8812 H       
  43 H43            5.5364     2.4974    -2.9340 H       
  44 H44            3.1992    -3.4554    -5.3040 H       
  45 H45            4.8275    -1.2859    -4.1803 H       
  46 H46            6.7286     4.5671    -2.3462 H       
  47 H47            6.0652     5.8511    -0.3555 H       
  48 H48            4.2075     5.0745     1.0579 H       
  49 H49            2.9993     3.0101     0.4841 H       
  50 H50            4.3987    -3.5095    -2.2633 H       
  51 H51            5.7818    -4.6299    -2.2781 H       
  52 H52            5.9743    -2.9700    -2.8914 H       
  53 H53            3.1244    -5.2784    -3.4854 H       
  54 H54            3.6286    -5.7749    -5.1187 H       
  55 H55            4.5323    -6.3469    -3.6958 H       
  56 H56            3.8506    -4.3728    -7.2396 H       
  57 H57            5.3845    -4.0092    -8.0891 H       
  58 H58            4.8936    -6.0740    -6.0844 H       
  59 H59            6.4275    -5.7104    -6.9338 H       
  60 H60            6.9554    -5.1533    -4.5330 H       
  61 H61            7.2984    -3.2311    -6.3701 H       
  62 H62            6.7735    -2.4928    -4.8091 H       
  63 H63            5.1414    -0.7386    -6.2181 H       
  64 H64            5.6135    -1.4777    -7.7670 H       
  65 H65            3.9022    -1.4522    -7.2780 H       
  66 H66           -0.2099    -2.9070     2.7260 H       
  67 H67           -0.9305    -2.5059    -1.4827 H       
  68 H68           -1.0446    -4.9545    -1.6852 H       
  69 H69           -0.7410    -6.3733     0.3014 H       
  70 H70           -0.3247    -5.3536     2.5011 H       
@<TRIPOS>BOND
   1    1    2 1
   2    1    6 1
   3    1   37 1
   4    1   38 1
   5    2    3 1
   6    2   16 am
   7    3    4 1
   8    3   39 1
   9    3   40 1
  10    4    5 1
  11    4    7 2
  12    5    6 1
  13    5    9 1
  14    6   41 1
  15    6   42 1
  16    7    8 1
  17    7   12 1
  18    8    9 2
  19    9   10 1
  20   10   11 ar
  21   10   21 ar
  22   11   18 ar
  23   11   43 1
  24   12   13 2
  25   12   15 am
  26   14   22 1
  27   14   15 1
  28   14   24 1
  29   14   44 1
  30   15   45 1
  31   16   17 2
  32   16   25 1
  33   18   19 ar
  34   18   46 1
  35   19   20 ar
  36   19   47 1
  37   20   21 ar
  38   20   48 1
  39   21   49 1
  40   22   27 1
  41   22   31 1
  42   22   30 1
  43   23   24 1
  44   23   50 1
  45   23   51 1
  46   23   52 1
  47   24   26 1
  48   24   29 1
  49   25   32 ar
  50   25   33 ar
  51   26   53 1
  52   26   54 1
  53   26   55 1
  54   27   28 1
  55   27   56 1
  56   27   57 1
  57   28   29 1
  58   28   58 1
  59   28   59 1
  60   29   30 1
  61   29   60 1
  62   30   61 1
  63   30   62 1
  64   31   63 1
  65   31   64 1
  66   31   65 1
  67   32   36 ar
  68   32   66 1
  69   33   34 ar
  70   33   67 1
  71   34   35 ar
  72   34   68 1
  73   35   36 ar
  74   35   69 1
  75   36   70 1

#	End of record

