#	Name: ASD01915162
#	Creating user name:	WinNT
#	Creation time:	15. 06. 2019 20:04

#	Modifying user name:	WinNT
#	Modification time:	15. 06. 2019 20:04

#	Program:	/corina/corina34_cracker 3.40 0067  02.08.2006

@<TRIPOS>MOLECULE
ASD01915162
  38   41    0    0    0
SMALL
NO_CHARGES


@<TRIPOS>ATOM
   1 C1             0.1087     1.5994     0.0319 C.ar    
   2 C2             0.1608     0.2166     0.0599 C.ar    
   3 C3            -1.0069    -0.5236     0.1015 C.ar    
   4 C4            -2.2310     0.1136     0.1147 C.ar    
   5 C5            -2.2900     1.5055     0.0867 C.ar    
   6 C6            -1.1115     2.2472     0.0507 C.ar    
   7 C7            -3.6040     2.1956     0.1009 C.2     
   8 N8            -3.8091     3.5320     0.0772 N.2     
   9 C9            -5.1092     3.6888     0.1015 C.2     
  10 O10           -5.6522     2.4679     0.1386 O.3     
  11 N11           -4.7800     1.6251     0.1328 N.2     
  12 C12           -5.8530     4.9994     0.0905 C.3     
  13 C13           -6.7973     5.1660    -1.1138 C.3     
  14 N14           -7.7627     5.7307    -0.1509 N.am    
  15 C15           -7.1238     4.9980     0.9595 C.3     
  16 C16           -8.8081     6.5760    -0.2470 C.2     
  17 C17           -9.6550     6.8407     0.9340 C.ar    
  18 O18           -9.0539     7.1208    -1.3057 O.2     
  19 C19          -10.6494     7.8196     0.8781 C.ar    
  20 C20          -11.4371     8.0621     1.9829 C.ar    
  21 C21          -11.2437     7.3362     3.1482 C.ar    
  22 C22          -10.2576     6.3634     3.2094 C.ar    
  23 C23           -9.4680     6.1088     2.1086 C.ar    
  24 Cl24           1.5788     2.5213    -0.0195 Cl      
  25 F25          -12.0186     7.5778     4.2282 F       
  26 H26            1.1166    -0.2863     0.0490 H       
  27 H27           -0.9607    -1.6024     0.1232 H       
  28 H28           -3.1419    -0.4657     0.1465 H       
  29 H29           -1.1517     3.3262     0.0289 H       
  30 H30           -5.2036     5.8580     0.2611 H       
  31 H31           -6.4434     5.8841    -1.8535 H       
  32 H32           -7.1177     4.2221    -1.5548 H       
  33 H33           -7.5401     4.0048     1.1275 H       
  34 H34           -7.0306     5.5820     1.8751 H       
  35 H35          -10.8006     8.3858    -0.0290 H       
  36 H36          -12.2062     8.8192     1.9408 H       
  37 H37          -10.1108     5.8010     4.1196 H       
  38 H38           -8.7004     5.3506     2.1571 H       
@<TRIPOS>BOND
   1    1    2 ar
   2    1   24 1
   3    1    6 ar
   4    2    3 ar
   5    2   26 1
   6    3    4 ar
   7    3   27 1
   8    4    5 ar
   9    4   28 1
  10    5    6 ar
  11    5    7 1
  12    6   29 1
  13    7    8 1
  14    7   11 2
  15    8    9 2
  16    9   10 1
  17    9   12 1
  18   10   11 1
  19   12   13 1
  20   12   15 1
  21   12   30 1
  22   13   14 1
  23   13   31 1
  24   13   32 1
  25   14   15 1
  26   14   16 am
  27   15   33 1
  28   15   34 1
  29   16   17 1
  30   16   18 2
  31   17   19 ar
  32   17   23 ar
  33   19   20 ar
  34   19   35 1
  35   20   21 ar
  36   20   36 1
  37   21   22 ar
  38   21   25 1
  39   22   23 ar
  40   22   37 1
  41   23   38 1

#	End of record

