#	Name: ASD09116481
#	Creating user name:	WinNT
#	Creation time:	15. 06. 2019 21:21

#	Modifying user name:	WinNT
#	Modification time:	15. 06. 2019 21:21

#	Program:	/corina/corina34_cracker 3.40 0067  02.08.2006

@<TRIPOS>MOLECULE
ASD09116481
  64   69    0    0    0
SMALL
NO_CHARGES


@<TRIPOS>ATOM
   1 N1            -0.0296     1.4183     0.1448 N.2     
   2 N2            -0.0209     0.0193     0.2656 N.pl3   
   3 C3             1.2224     1.8078     0.1155 C.2     
   4 N4             2.0155     0.7341     0.2110 N.2     
   5 C5             1.2801    -0.3532     0.3023 C.2     
   6 N6             1.7524    -1.6469     0.4163 N.pl3   
   7 C7            -1.1335    -0.8210     0.3350 C.ar    
   8 N8             1.6572     3.1282     0.0023 N.pl3   
   9 C9             3.0221     3.4264     0.0967 C.ar    
  10 C10            3.5419     4.5216    -0.5808 C.ar    
  11 C11            3.8547     2.6303     0.8723 C.ar    
  12 C12            5.2020     2.9253     0.9655 C.ar    
  13 C13            5.7224     4.0190     0.2826 C.ar    
  14 C14            4.8881     4.8166    -0.4883 C.ar    
  15 N15           -1.0320    -2.0870    -0.0416 N.ar    
  16 N16           -2.0276    -2.8994    -0.0065 N.ar    
  17 C17           -3.2230    -2.5142     0.4107 C.ar    
  18 C18           -3.4194    -1.2012     0.8480 C.ar    
  19 C19           -2.3528    -0.3283     0.8070 C.ar    
  20 C20           -4.3848    -3.4331     0.4012 C.ar    
  21 C21           -5.5817    -3.0013    -0.1724 C.ar    
  22 C22           -5.6446    -1.6418    -0.8130 C.3     
  23 C23           -5.7427    -0.5365     0.2350 C.3     
  24 C24           -4.7612    -0.7854     1.3771 C.3     
  25 C25           -4.2980    -4.7055     0.9551 C.ar    
  26 C26           -5.4064    -5.5300     0.9510 C.ar    
  27 C27           -6.5967    -5.0904     0.4007 C.ar    
  28 C28           -6.6847    -3.8279    -0.1599 C.ar    
  29 F29            6.0127     2.1516     1.7202 F       
  30 N30            7.0880     4.3192     0.3769 N.3     
  31 C31            7.7286     4.2789    -0.9451 C.3     
  32 C32            9.1970     4.6888    -0.8102 C.3     
  33 N33            9.8724     3.7804     0.1269 N.3     
  34 C34            9.2318     3.8206     1.4489 C.3     
  35 C35            7.7634     3.4107     1.3140 C.3     
  36 C36           11.3039     4.0950     0.2257 C.3     
  37 H37            2.7076    -1.8146     0.4343 H       
  38 H38            1.1287    -2.3872     0.4784 H       
  39 H39            1.0141     3.8400    -0.1417 H       
  40 H40            2.8932     5.1429    -1.1805 H       
  41 H41            3.4496     1.7812     1.4027 H       
  42 H42            5.2924     5.6659    -1.0190 H       
  43 H43           -2.4579     0.6998     1.1206 H       
  44 H44           -4.7465    -1.4875    -1.4110 H       
  45 H45           -6.5176    -1.5944    -1.4640 H       
  46 H46           -5.5147     0.4217    -0.2317 H       
  47 H47           -6.7570    -0.5086     0.6332 H       
  48 H48           -5.1525    -1.5732     2.0207 H       
  49 H49           -4.6492     0.1294     1.9591 H       
  50 H50           -3.3689    -5.0474     1.3867 H       
  51 H51           -5.3433    -6.5200     1.3781 H       
  52 H52           -7.4625    -5.7360     0.4083 H       
  53 H53           -7.6174    -3.4904    -0.5872 H       
  54 H54            7.6688     3.2677    -1.3476 H       
  55 H55            7.2187     4.9690    -1.6174 H       
  56 H56            9.6815     4.6318    -1.7850 H       
  57 H57            9.2564     5.7099    -0.4335 H       
  58 H58            9.7417     3.1306     2.1212 H       
  59 H59            9.2916     4.8318     1.8513 H       
  60 H60            7.2789     3.4678     2.2887 H       
  61 H61            7.7040     2.3896     0.9372 H       
  62 H62           11.4274     5.1182     0.5806 H       
  63 H63           11.7794     3.4079     0.9256 H       
  64 H64           11.7671     3.9924    -0.7556 H       
@<TRIPOS>BOND
   1    1    2 1
   2    1    3 2
   3    2    7 1
   4    2    5 1
   5    3    4 1
   6    3    8 1
   7    4    5 2
   8    5    6 1
   9    6   37 1
  10    6   38 1
  11    7   15 ar
  12    7   19 ar
  13    8    9 1
  14    8   39 1
  15    9   10 ar
  16    9   11 ar
  17   10   14 ar
  18   10   40 1
  19   11   12 ar
  20   11   41 1
  21   12   13 ar
  22   12   29 1
  23   13   14 ar
  24   13   30 1
  25   14   42 1
  26   15   16 ar
  27   16   17 ar
  28   17   18 ar
  29   17   20 1
  30   18   19 ar
  31   18   24 1
  32   19   43 1
  33   20   21 ar
  34   20   25 ar
  35   21   22 1
  36   21   28 ar
  37   22   23 1
  38   22   44 1
  39   22   45 1
  40   23   24 1
  41   23   46 1
  42   23   47 1
  43   24   48 1
  44   24   49 1
  45   25   26 ar
  46   25   50 1
  47   26   27 ar
  48   26   51 1
  49   27   28 ar
  50   27   52 1
  51   28   53 1
  52   30   31 1
  53   30   35 1
  54   31   32 1
  55   31   54 1
  56   31   55 1
  57   32   33 1
  58   32   56 1
  59   32   57 1
  60   33   34 1
  61   33   36 1
  62   34   35 1
  63   34   58 1
  64   34   59 1
  65   35   60 1
  66   35   61 1
  67   36   62 1
  68   36   63 1
  69   36   64 1

#	End of record

