#	Name: ASD08390066
#	Creating user name:	WinNT
#	Creation time:	15. 06. 2019 21:19

#	Modifying user name:	WinNT
#	Modification time:	15. 06. 2019 21:19

#	Program:	/corina/corina34_cracker 3.40 0067  02.08.2006

@<TRIPOS>MOLECULE
ASD08390066
  56   59    0    0    0
SMALL
NO_CHARGES


@<TRIPOS>ATOM
   1 C1             0.7745     0.8284    -0.3154 C.3     
   2 C2             1.4015    -0.5405    -0.6463 C.3     
   3 N3             1.8800     1.7723    -0.5503 N.pl3   
   4 C4             2.9779     1.0579    -0.9551 C.2     
   5 N5             2.7829    -0.2172    -1.0287 N.2     
   6 C6             4.2757     1.6930    -1.2795 C.ar    
   7 C7            -0.3801     1.1214    -1.2385 C.ar    
   8 C8             5.3011     0.9389    -1.8495 C.ar    
   9 C9             6.5082     1.5363    -2.1495 C.ar    
  10 C10            6.7025     2.8803    -1.8856 C.ar    
  11 C11            5.6894     3.6334    -1.3198 C.ar    
  12 C12            4.4755     3.0488    -1.0215 C.ar    
  13 C13           -1.6778     0.9168    -0.8087 C.ar    
  14 C14           -2.7369     1.1856    -1.6554 C.ar    
  15 C15           -2.4982     1.6595    -2.9319 C.ar    
  16 C16           -1.2004     1.8650    -3.3614 C.ar    
  17 C17           -0.1415     1.6003    -2.5131 C.ar    
  18 C18            1.8172     3.2261    -0.3812 C.3     
  19 C19            2.6666     3.6366     0.8233 C.3     
  20 C20            2.3458     3.8994    -1.6215 C.2     
  21 O21            2.7350     3.2331    -2.5513 O.2     
  22 O22            2.3841     5.2392    -1.6934 O.3     
  23 C23            2.9056     5.8190    -2.9182 C.3     
  24 C24            1.3849    -1.4359     0.5658 C.ar    
  25 C25            2.3698    -2.3914     0.7327 C.ar    
  26 C26            2.3545    -3.2127     1.8446 C.ar    
  27 C27            1.3547    -3.0782     2.7896 C.ar    
  28 C28            0.3704    -2.1220     2.6231 C.ar    
  29 C29            0.3881    -1.2978     1.5135 C.ar    
  30 C30            0.6720    -1.1923    -1.7926 C.2     
  31 O31           -0.2416    -1.9521    -1.5734 O.2     
  32 O32            1.0370    -0.9288    -3.0571 O.3     
  33 H33            0.4541     0.8629     0.7259 H       
  34 H34            5.1508    -0.1106    -2.0554 H       
  35 H35            7.3030     0.9534    -2.5909 H       
  36 H36            7.6492     3.3434    -2.1218 H       
  37 H37            5.8471     4.6822    -1.1158 H       
  38 H38            3.6852     3.6379    -0.5802 H       
  39 H39           -1.8643     0.5465     0.1886 H       
  40 H40           -3.7508     1.0250    -1.3199 H       
  41 H41           -3.3256     1.8688    -3.5937 H       
  42 H42           -1.0139     2.2349    -4.3588 H       
  43 H43            0.8724     1.7609    -2.8487 H       
  44 H44            0.7830     3.5284    -0.2165 H       
  45 H45            3.0094     4.6631     0.6932 H       
  46 H46            2.0677     3.5659     1.7313 H       
  47 H47            3.5279     2.9734     0.9035 H       
  48 H48            2.8810     6.9063    -2.8447 H       
  49 H49            3.9333     5.4881    -3.0680 H       
  50 H50            2.2940     5.4979    -3.7613 H       
  51 H51            3.1509    -2.4966    -0.0056 H       
  52 H52            3.1236    -3.9598     1.9747 H       
  53 H53            1.3424    -3.7203     3.6579 H       
  54 H54           -0.4109    -2.0171     3.3613 H       
  55 H55           -0.3788    -0.5482     1.3852 H       
  56 H56            0.5395    -1.3705    -3.7589 H       
@<TRIPOS>BOND
   1    1    2 1
   2    1    3 1
   3    1    7 1
   4    1   33 1
   5    2   24 1
   6    2   30 1
   7    2    5 1
   8    3    4 1
   9    3   18 1
  10    4    5 2
  11    4    6 1
  12    6    8 ar
  13    6   12 ar
  14    7   13 ar
  15    7   17 ar
  16    8    9 ar
  17    8   34 1
  18    9   10 ar
  19    9   35 1
  20   10   11 ar
  21   10   36 1
  22   11   12 ar
  23   11   37 1
  24   12   38 1
  25   13   14 ar
  26   13   39 1
  27   14   15 ar
  28   14   40 1
  29   15   16 ar
  30   15   41 1
  31   16   17 ar
  32   16   42 1
  33   17   43 1
  34   18   19 1
  35   18   20 1
  36   18   44 1
  37   19   45 1
  38   19   46 1
  39   19   47 1
  40   20   21 2
  41   20   22 1
  42   22   23 1
  43   23   48 1
  44   23   49 1
  45   23   50 1
  46   24   25 ar
  47   24   29 ar
  48   25   26 ar
  49   25   51 1
  50   26   27 ar
  51   26   52 1
  52   27   28 ar
  53   27   53 1
  54   28   29 ar
  55   28   54 1
  56   29   55 1
  57   30   31 2
  58   30   32 1
  59   32   56 1

#	End of record

