#	Name: ASD02030167
#	Creating user name:	WinNT
#	Creation time:	15. 06. 2019 20:14

#	Modifying user name:	WinNT
#	Modification time:	15. 06. 2019 20:14

#	Program:	/corina/corina34_cracker 3.40 0067  02.08.2006

@<TRIPOS>MOLECULE
ASD02030167
  80   83    0    0    0
SMALL
NO_CHARGES


@<TRIPOS>ATOM
   1 O1            -1.3867    -0.2299     3.0044 O.3     
   2 N2            -0.9280    -1.0933     1.9802 N.pl3   
   3 C3            -1.8359    -1.9239     1.3028 C.2     
   4 C4            -3.1336    -1.8991     1.6251 C.2     
   5 C5            -1.3569    -2.8254     0.2333 C.ar    
   6 C6            -0.2348    -3.6272     0.4433 C.ar    
   7 C7             0.2091    -4.4677    -0.5568 C.ar    
   8 C8            -0.4556    -4.5199    -1.7722 C.ar    
   9 C9            -1.5710    -3.7284    -1.9934 C.ar    
  10 C10           -2.0315    -2.8826    -0.9934 C.ar    
  11 N11           -3.1597    -2.0873    -1.2115 N.pl3   
  12 C12           -3.0203    -0.7052    -1.3732 C.ar    
  13 C13           -4.1489     0.1037    -1.4634 C.ar    
  14 C14           -1.7556    -0.1364    -1.4386 C.ar    
  15 C15           -1.6209     1.2294    -1.5985 C.ar    
  16 C16           -2.7438     2.0310    -1.6931 C.ar    
  17 C17           -4.0066     1.4693    -1.6233 C.ar    
  18 F18           -0.0135    -5.3461    -2.7455 F       
  19 F19           -2.2139    -3.7838    -3.1803 F       
  20 F20           -5.3816    -0.4448    -1.3952 F       
  21 I21           -2.5327     4.1013    -1.9341 I       
  22 O22           -3.9929    -2.7846     1.0542 O.3     
  23 H23           -0.6896     0.3021     3.4120 H       
  24 H24            0.0132    -1.1113     1.7464 H       
  25 H25           -3.4990    -1.1757     2.3390 H       
  26 H26            0.2866    -3.5897     1.3884 H       
  27 H27            1.0782    -5.0872    -0.3922 H       
  28 H28           -4.0395    -2.4939    -1.2506 H       
  29 H29           -0.8777    -0.7610    -1.3641 H       
  30 H30           -0.6369     1.6718    -1.6493 H       
  31 H31           -4.8817     2.0984    -1.6938 H       
  32 H32           -4.8931    -2.7410     1.4047 H       
  33 C33            7.0221    15.7740    10.5170 C.ar    
  34 C34            7.0409    14.3905    10.5093 C.ar    
  35 C35            8.2431    13.7141    10.4942 C.ar    
  36 C36            9.4422    14.4284    10.4865 C.ar    
  37 C37            9.4162    15.8239    10.4943 C.ar    
  38 C38            8.2072    16.4881    10.5095 C.ar    
  39 C39           10.7343    13.7099    10.4708 C.2     
  40 O40           10.7539    12.4946    10.4645 O.2     
  41 N41           11.8904    14.4026    10.4634 N.am    
  42 N42           13.1148    13.7218    10.4485 N.am    
  43 C43           14.2709    14.4144    10.4411 C.2     
  44 C44           15.5630    13.6960    10.4253 C.ar    
  45 O45           14.2513    15.6298    10.4474 O.2     
  46 C46           16.7621    14.4103    10.4177 C.ar    
  47 C47           17.9643    13.7338    10.4035 C.ar    
  48 C48           17.9831    12.3504    10.3963 C.ar    
  49 C49           16.7981    11.6363    10.4039 C.ar    
  50 C50           15.5891    12.3005    10.4239 C.ar    
  51 C51           19.3001    11.6181    10.3798 C.3     
  52 N52           19.7404    11.3739    11.7556 N.am    
  53 S53           20.9457    10.2791    12.0572 S.o2    
  54 O54           21.1617    10.2968    13.4616 O.2     
  55 O55           20.6073     9.1013    11.3377 O.2     
  56 C56           22.4174    10.9072    11.3195 C.ar    
  57 C57           23.2599    11.7263    12.0481 C.ar    
  58 C58           24.4153    12.2194    11.4702 C.ar    
  59 C59           24.7280    11.8919    10.1604 C.ar    
  60 C60           23.8832    11.0718     9.4329 C.ar    
  61 C61           22.7315    10.5760    10.0149 C.ar    
  62 Cl62          25.4731    13.2483    12.3846 Cl      
  63 F63           25.8563    12.3731     9.5940 F       
  64 H64            6.0782    16.2988    10.5243 H       
  65 H65            6.1123    13.8390    10.5156 H       
  66 H66            8.2564    12.6341    10.4886 H       
  67 H67           10.3405    16.3824    10.4888 H       
  68 H68            8.1856    17.5679    10.5155 H       
  69 H69           11.8748    15.3724    10.4684 H       
  70 H70           13.1304    12.7519    10.4434 H       
  71 H71           16.7488    15.4902    10.4225 H       
  72 H72           18.8929    14.2853    10.3975 H       
  73 H73           16.8196    10.5565    10.3982 H       
  74 H74           14.6648    11.7419    10.4343 H       
  75 H75           19.1801    10.6663     9.8623 H       
  76 H76           20.0451    12.2219     9.8617 H       
  77 H77           19.3259    11.8534    12.4898 H       
  78 H78           23.0154    11.9814    13.0687 H       
  79 H79           24.1256    10.8162     8.4120 H       
  80 H80           22.0744     9.9327     9.4483 H       
@<TRIPOS>BOND
   1    1    2 1
   2    1   23 1
   3    2    3 1
   4    2   24 1
   5    3    4 2
   6    3    5 1
   7    4   22 1
   8    4   25 1
   9    5    6 ar
  10    5   10 ar
  11    6    7 ar
  12    6   26 1
  13    7    8 ar
  14    7   27 1
  15    8    9 ar
  16    8   18 1
  17    9   10 ar
  18    9   19 1
  19   10   11 1
  20   11   12 1
  21   11   28 1
  22   12   14 ar
  23   12   13 ar
  24   13   17 ar
  25   13   20 1
  26   14   15 ar
  27   14   29 1
  28   15   16 ar
  29   15   30 1
  30   16   17 ar
  31   16   21 1
  32   17   31 1
  33   22   32 1
  34   33   34 ar
  35   33   38 ar
  36   33   64 1
  37   34   35 ar
  38   34   65 1
  39   35   36 ar
  40   35   66 1
  41   36   37 ar
  42   36   39 1
  43   37   38 ar
  44   37   67 1
  45   38   68 1
  46   39   40 2
  47   39   41 am
  48   41   42 1
  49   41   69 1
  50   42   43 am
  51   42   70 1
  52   43   44 1
  53   43   45 2
  54   44   46 ar
  55   44   50 ar
  56   46   47 ar
  57   46   71 1
  58   47   48 ar
  59   47   72 1
  60   48   49 ar
  61   48   51 1
  62   49   50 ar
  63   49   73 1
  64   50   74 1
  65   51   52 1
  66   51   75 1
  67   51   76 1
  68   52   53 am
  69   52   77 1
  70   53   54 2
  71   53   55 2
  72   53   56 1
  73   56   57 ar
  74   56   61 ar
  75   57   58 ar
  76   57   78 1
  77   58   59 ar
  78   58   62 1
  79   59   60 ar
  80   59   63 1
  81   60   61 ar
  82   60   79 1
  83   61   80 1

#	End of record

