#	Name: ASD03082266
#	Creating user name:	WinNT
#	Creation time:	15. 06. 2019 20:27

#	Modifying user name:	WinNT
#	Modification time:	15. 06. 2019 20:27

#	Program:	/corina/corina34_cracker 3.40 0067  02.08.2006

@<TRIPOS>MOLECULE
ASD03082266
  43   46    0    0    0
SMALL
NO_CHARGES


@<TRIPOS>ATOM
   1 N1             0.2143     1.7862    -0.2218 N.pl3   
   2 N2             0.0350     0.3944    -0.2741 N.2     
   3 C3             1.1994    -0.1516    -0.0070 C.2     
   4 N4             2.0934     0.8141     0.2086 N.2     
   5 C5             1.5150     1.9916     0.0828 C.2     
   6 N6             1.4593    -1.5226     0.0431 N.pl3   
   7 C7             0.4105    -2.4376    -0.0811 C.ar    
   8 C8            -0.8799    -2.0683     0.2743 C.ar    
   9 C9            -1.9173    -2.9784     0.1492 C.ar    
  10 C10           -1.6646    -4.2562    -0.3307 C.ar    
  11 C11           -0.3798    -4.6221    -0.6840 C.ar    
  12 C12            0.6565    -3.7162    -0.5658 C.ar    
  13 O13           -3.1814    -2.6203     0.4966 O.3     
  14 C14            2.1738     3.3070     0.2459 C.ar    
  15 C15           -0.8048     2.8121    -0.4569 C.3     
  16 C16            1.4229     4.4614     0.4909 C.ar    
  17 C17            2.0781     5.6673     0.6370 C.ar    
  18 N18            3.3921     5.7392     0.5479 N.ar    
  19 C19            4.1374     4.6752     0.3180 C.ar    
  20 C20            3.5653     3.4291     0.1650 C.ar    
  21 F21           -1.4402     3.1235     0.7500 F       
  22 C22            5.6345     4.8219     0.2270 C.3     
  23 C23            6.4485     4.5584     1.4954 C.3     
  24 C24            6.4774     3.5505     0.3447 C.3     
  25 C25           -4.2015    -3.6090     0.3417 C.3     
  26 F26           -3.8957    -4.7224     1.1316 F       
  27 F27           -5.4316    -3.0766     0.7424 F       
  28 F28           -4.2759    -3.9959    -1.0007 F       
  29 H29            2.3679    -1.8399     0.1641 H       
  30 H30           -1.0747    -1.0739     0.6478 H       
  31 H31           -2.4732    -4.9655    -0.4278 H       
  32 H32           -0.1861    -5.6171    -1.0567 H       
  33 H33            1.6591    -4.0034    -0.8465 H       
  34 H34           -0.3325     3.7076    -0.8606 H       
  35 H35           -1.5404     2.4371    -1.1685 H       
  36 H36            0.3466     4.4100     0.5644 H       
  37 H37            1.5071     6.5642     0.8264 H       
  38 H38            4.1816     2.5623    -0.0227 H       
  39 H39            5.9904     5.6015    -0.4465 H       
  40 H40            7.3401     5.1644     1.6562 H       
  41 H41            5.9012     4.2790     2.3957 H       
  42 H42            5.9491     2.6079     0.4880 H       
  43 H43            7.3880     3.4934    -0.2515 H       
@<TRIPOS>BOND
   1    1    2 1
   2    1    5 1
   3    1   15 1
   4    2    3 2
   5    3    4 1
   6    3    6 1
   7    4    5 2
   8    5   14 1
   9    6    7 1
  10    6   29 1
  11    7    8 ar
  12    7   12 ar
  13    8    9 ar
  14    8   30 1
  15    9   10 ar
  16    9   13 1
  17   10   11 ar
  18   10   31 1
  19   11   12 ar
  20   11   32 1
  21   12   33 1
  22   13   25 1
  23   14   16 ar
  24   14   20 ar
  25   15   21 1
  26   15   34 1
  27   15   35 1
  28   16   17 ar
  29   16   36 1
  30   17   18 ar
  31   17   37 1
  32   18   19 ar
  33   19   20 ar
  34   19   22 1
  35   20   38 1
  36   22   23 1
  37   22   24 1
  38   22   39 1
  39   23   24 1
  40   23   40 1
  41   23   41 1
  42   24   42 1
  43   24   43 1
  44   25   26 1
  45   25   27 1
  46   25   28 1

#	End of record

