#	Name: ASD08178047
#	Creating user name:	WinNT
#	Creation time:	15. 06. 2019 21:18

#	Modifying user name:	WinNT
#	Modification time:	15. 06. 2019 21:18

#	Program:	/corina/corina34_cracker 3.40 0067  02.08.2006

@<TRIPOS>MOLECULE
ASD08178047
  60   63    0    0    0
SMALL
NO_CHARGES


@<TRIPOS>ATOM
   1 N1            -0.0155     1.2947     0.0092 N.2     
   2 C2             0.0021    -0.0041     0.0020 C.2     
   3 N3            -1.1168    -0.8300     0.0076 N.am    
   4 N4             1.0945     1.8960     0.0018 N.2     
   5 C5             2.1557     1.1534    -0.0123 C.2     
   6 S6             1.6320    -0.5310    -0.0164 S.3     
   7 C7             3.5816     1.6410    -0.0241 C.3     
   8 C8             4.0787     1.7984     1.4143 C.3     
   9 C9             5.5263     2.2934     1.4024 C.3     
  10 C10            6.0234     2.4507     2.8408 C.3     
  11 C11            7.4493     2.9383     2.8291 C.2     
  12 N12            7.8338     4.1751     2.8322 N.2     
  13 N13            9.0796     4.3793     2.8214 N.2     
  14 C14            9.8607     3.3416     2.8082 C.2     
  15 S15            8.8945     1.9270     2.8164 S.3     
  16 N16           11.2510     3.3736     2.7944 N.am    
  17 C17           11.8979     4.5560     2.7944 C.2     
  18 O18           11.2676     5.5921     2.8065 O.2     
  19 C19           13.4044     4.5907     2.7793 C.3     
  20 C20           -2.3521    -0.2911     0.0220 C.2     
  21 O21           -2.4879     0.9140     0.0301 O.2     
  22 C22           -3.5646    -1.1861     0.0280 C.3     
  23 O23           13.8497     5.9486     2.7824 O.3     
  24 C24           -5.9375    -1.0419     0.0506 C.ar    
  25 O25           -4.7478    -0.3850     0.0435 O.3     
  26 C26           15.1924     6.1576     2.7700 C.ar    
  27 C27           -7.1261    -0.3265     0.0656 C.ar    
  28 C28           -8.3342    -0.9966     0.0729 C.ar    
  29 C29           -8.3593    -2.3790     0.0653 C.ar    
  30 C30           -7.1761    -3.0943     0.0508 C.ar    
  31 C31           -5.9655    -2.4289     0.0372 C.ar    
  32 C32           15.6944     7.4509     2.7720 C.ar    
  33 C33           17.0597     7.6608     2.7594 C.ar    
  34 C34           17.9258     6.5831     2.7446 C.ar    
  35 C35           17.4281     5.2931     2.7421 C.ar    
  36 C36           16.0636     5.0780     2.7609 C.ar    
  37 H37           -1.0082    -1.7939     0.0010 H       
  38 H38            4.2081     0.9191    -0.5480 H       
  39 H39            3.6324     2.6033    -0.5334 H       
  40 H40            3.4522     2.5202     1.9383 H       
  41 H41            4.0279     0.8360     1.9237 H       
  42 H42            6.1528     1.5715     0.8785 H       
  43 H43            5.5771     3.2557     0.8931 H       
  44 H44            5.3969     3.1726     3.3648 H       
  45 H45            5.9726     1.4884     3.3501 H       
  46 H46           11.7552     2.5450     2.7847 H       
  47 H47           13.7884     4.0805     3.6627 H       
  48 H48           13.7705     4.0903     1.8828 H       
  49 H49           -3.5599    -1.8102    -0.8656 H       
  50 H50           -3.5436    -1.8204     0.9142 H       
  51 H51           -7.1070     0.7533     0.0720 H       
  52 H52           -9.2597    -0.4402     0.0850 H       
  53 H53           -9.3048    -2.9010     0.0710 H       
  54 H54           -7.1984    -4.1740     0.0452 H       
  55 H55           -5.0416    -2.9880     0.0259 H       
  56 H56           15.0182     8.2930     2.7832 H       
  57 H57           17.4509     8.6674     2.7606 H       
  58 H58           18.9929     6.7492     2.7347 H       
  59 H59           18.1067     4.4530     2.7302 H       
  60 H60           15.6753     4.0702     2.7589 H       
@<TRIPOS>BOND
   1    1    2 2
   2    1    4 1
   3    2    3 1
   4    2    6 1
   5    3   20 am
   6    3   37 1
   7    4    5 2
   8    5    6 1
   9    5    7 1
  10    7    8 1
  11    7   38 1
  12    7   39 1
  13    8    9 1
  14    8   40 1
  15    8   41 1
  16    9   10 1
  17    9   42 1
  18    9   43 1
  19   10   11 1
  20   10   44 1
  21   10   45 1
  22   11   12 2
  23   11   15 1
  24   12   13 1
  25   13   14 2
  26   14   15 1
  27   14   16 1
  28   16   17 am
  29   16   46 1
  30   17   18 2
  31   17   19 1
  32   19   23 1
  33   19   47 1
  34   19   48 1
  35   20   21 2
  36   20   22 1
  37   22   25 1
  38   22   49 1
  39   22   50 1
  40   23   26 1
  41   24   25 1
  42   24   27 ar
  43   24   31 ar
  44   26   32 ar
  45   26   36 ar
  46   27   28 ar
  47   27   51 1
  48   28   29 ar
  49   28   52 1
  50   29   30 ar
  51   29   53 1
  52   30   31 ar
  53   30   54 1
  54   31   55 1
  55   32   33 ar
  56   32   56 1
  57   33   34 ar
  58   33   57 1
  59   34   35 ar
  60   34   58 1
  61   35   36 ar
  62   35   59 1
  63   36   60 1

#	End of record

