#	Name: ASD01680053
#	Creating user name:	WinNT
#	Creation time:	15. 06. 2019 19:22

#	Modifying user name:	WinNT
#	Modification time:	15. 06. 2019 19:22

#	Program:	/corina/corina34_cracker 3.40 0067  02.08.2006

@<TRIPOS>MOLECULE
ASD01680053
  88   91    0    0    0
SMALL
NO_CHARGES


@<TRIPOS>ATOM
   1 N1            -0.4973    -1.5695    -2.3231 N.am    
   2 C2            -0.2137    -2.9365    -2.7966 C.3     
   3 C3             1.0718    -3.3587    -2.0423 C.3     
   4 C4             1.8656    -2.0260    -2.0095 C.3     
   5 C5             0.7557    -0.9664    -1.8456 C.3     
   6 C6            -1.7043    -0.9698    -2.3318 C.2     
   7 O7            -2.6547    -1.5247    -2.8469 O.2     
   8 O8            -1.8569     0.2442    -1.7699 O.3     
   9 C9            -1.3705    -3.8733    -2.4429 C.3     
  10 N10           -1.7122    -3.7144    -1.0272 N.pl3   
  11 C11           -2.7985    -4.3980    -0.4935 C.ar    
  12 C12           -3.5571    -5.2316    -1.3094 C.ar    
  13 C13           -4.6351    -5.9057    -0.7652 C.ar    
  14 C14           -4.9197    -5.7231     0.5818 C.ar    
  15 C15           -4.1248    -4.8808     1.3326 C.ar    
  16 N16           -3.0988    -4.2544     0.7879 N.ar    
  17 C17           -6.0849    -6.4370     1.2171 C.3     
  18 F18           -5.6587    -7.6719     1.7174 F       
  19 F19           -6.5933    -5.6602     2.2637 F       
  20 F20           -7.0846    -6.6415     0.2600 F       
  21 O21            2.7601    -1.9976    -0.8954 O.3     
  22 C22            3.9417    -1.2254    -1.1183 C.3     
  23 C23            4.8075    -1.2649     0.1146 C.2     
  24 N24            5.9813    -0.6028     0.1352 N.am    
  25 O25            4.4481    -1.8925     1.0882 O.2     
  26 C26            6.8230    -0.6411     1.3337 C.3     
  27 C27            8.0881     0.1856     1.0951 C.3     
  28 N28            7.7151     1.5421     0.6864 N.am    
  29 S29            8.6459     2.3616    -0.4111 S.o2    
  30 O30            8.0096     3.6147    -0.6205 O.2     
  31 O31            9.9906     2.2370     0.0309 O.2     
  32 C32            8.5413     1.4890    -1.9383 C.ar    
  33 C33            9.4341     0.4705    -2.2150 C.ar    
  34 C34            9.3520    -0.2140    -3.4132 C.ar    
  35 C35            8.3770     0.1198    -4.3345 C.ar    
  36 C36            7.4837     1.1377    -4.0574 C.ar    
  37 C37            7.5630     1.8193    -2.8574 C.ar    
  38 C38            6.5859     2.9256    -2.5532 C.3     
  39 C39            8.2882    -0.6258    -5.6411 C.3     
  40 C40           10.4970     0.1067    -1.2106 C.3     
  41 C41            8.8946     0.2479     2.3665 C.2     
  42 O42            9.1334     1.3159     2.8787 O.2     
  43 O43            9.3478    -0.8830     2.9300 O.3     
  44 C44           -3.1848     0.8298    -1.8163 C.3     
  45 C45           -3.1629     2.1782    -1.1437 C.ar    
  46 C46           -2.8880     3.3143    -1.8817 C.ar    
  47 C47           -2.8679     4.5512    -1.2647 C.ar    
  48 C48           -3.1231     4.6520     0.0901 C.ar    
  49 C49           -3.3988     3.5160     0.8279 C.ar    
  50 C50           -3.4232     2.2796     0.2101 C.ar    
  51 H51           -0.0395    -2.9368    -3.8726 H       
  52 H52            0.8388    -3.6995    -1.0335 H       
  53 H53            1.6159    -4.1240    -2.5956 H       
  54 H54            2.4068    -1.8763    -2.9438 H       
  55 H55            0.9935    -0.0852    -2.4414 H       
  56 H56            0.6580    -0.6912    -0.7955 H       
  57 H57           -2.2377    -3.6272    -3.0558 H       
  58 H58           -1.0733    -4.9049    -2.6314 H       
  59 H59           -1.1805    -3.1322    -0.4623 H       
  60 H60           -3.3077    -5.3503    -2.3534 H       
  61 H61           -5.2422    -6.5592    -1.3742 H       
  62 H62           -4.3426    -4.7360     2.3805 H       
  63 H63            4.4927    -1.6398    -1.9626 H       
  64 H64            3.6658    -0.1936    -1.3356 H       
  65 H65            6.2687    -0.1009    -0.6435 H       
  66 H66            6.2720    -0.2268     2.1780 H       
  67 H67            7.0988    -1.6730     1.5510 H       
  68 H68            8.6834    -0.2798     0.3095 H       
  69 H69            6.9230     1.9602     1.0586 H       
  70 H70           10.0500    -1.0092    -3.6296 H       
  71 H71            6.7222     1.3987    -4.7774 H       
  72 H72            7.0456     3.8881    -2.7773 H       
  73 H73            5.6920     2.7989    -3.1638 H       
  74 H74            6.3135     2.8898    -1.4984 H       
  75 H75            7.6272    -1.4846    -5.5252 H       
  76 H76            7.8921     0.0364    -6.4111 H       
  77 H77            9.2812    -0.9683    -5.9322 H       
  78 H78           10.0645    -0.5290    -0.4380 H       
  79 H79           11.3031    -0.4286    -1.7124 H       
  80 H80           10.8923     1.0146    -0.7549 H       
  81 H81            9.8605    -0.7926     3.7448 H       
  82 H82           -3.4942     0.9468    -2.8549 H       
  83 H83           -3.8880     0.1771    -1.2990 H       
  84 H84           -2.6886     3.2355    -2.9402 H       
  85 H85           -2.6524     5.4387    -1.8411 H       
  86 H86           -3.1066     5.6182     0.5723 H       
  87 H87           -3.5979     3.5947     1.8865 H       
  88 H88           -3.6423     1.3925     0.7858 H       
@<TRIPOS>BOND
   1    1    2 1
   2    1    5 1
   3    1    6 am
   4    2    3 1
   5    2    9 1
   6    2   51 1
   7    3    4 1
   8    3   52 1
   9    3   53 1
  10    4    5 1
  11    4   21 1
  12    4   54 1
  13    5   55 1
  14    5   56 1
  15    6    7 2
  16    6    8 1
  17    8   44 1
  18    9   10 1
  19    9   57 1
  20    9   58 1
  21   10   11 1
  22   10   59 1
  23   11   12 ar
  24   11   16 ar
  25   12   13 ar
  26   12   60 1
  27   13   14 ar
  28   13   61 1
  29   14   15 ar
  30   14   17 1
  31   15   16 ar
  32   15   62 1
  33   17   18 1
  34   17   19 1
  35   17   20 1
  36   21   22 1
  37   22   23 1
  38   22   63 1
  39   22   64 1
  40   23   24 am
  41   23   25 2
  42   24   26 1
  43   24   65 1
  44   26   27 1
  45   26   66 1
  46   26   67 1
  47   27   28 1
  48   27   41 1
  49   27   68 1
  50   28   29 am
  51   28   69 1
  52   29   30 2
  53   29   31 2
  54   29   32 1
  55   32   33 ar
  56   32   37 ar
  57   33   34 ar
  58   33   40 1
  59   34   35 ar
  60   34   70 1
  61   35   36 ar
  62   35   39 1
  63   36   37 ar
  64   36   71 1
  65   37   38 1
  66   38   72 1
  67   38   73 1
  68   38   74 1
  69   39   75 1
  70   39   76 1
  71   39   77 1
  72   40   78 1
  73   40   79 1
  74   40   80 1
  75   41   42 2
  76   41   43 1
  77   43   81 1
  78   44   45 1
  79   44   82 1
  80   44   83 1
  81   45   46 ar
  82   45   50 ar
  83   46   47 ar
  84   46   84 1
  85   47   48 ar
  86   47   85 1
  87   48   49 ar
  88   48   86 1
  89   49   50 ar
  90   49   87 1
  91   50   88 1

#	End of record

