#	Name: ASD01150818
#	Creating user name:	WinNT
#	Creation time:	15. 06. 2019 19:05

#	Modifying user name:	WinNT
#	Modification time:	15. 06. 2019 19:05

#	Program:	/corina/corina34_cracker 3.40 0067  02.08.2006

@<TRIPOS>MOLECULE
ASD01150818
  61   64    0    0    0
SMALL
NO_CHARGES


@<TRIPOS>ATOM
   1 N1             0.6482     1.9590     0.0313 N.am    
   2 C2             0.4382     0.6426    -0.2000 C.2     
   3 C3             1.5144    -0.3939     0.0333 C.3     
   4 C4             1.3978    -0.8601     1.4940 C.3     
   5 N5             1.4248     0.3323     2.3550 N.3     
   6 C6             2.6999     1.0456     2.2312 C.3     
   7 C7             2.9551     1.4663     0.7916 C.3     
   8 C8             1.9661     2.5219     0.3267 C.3     
   9 C9            -0.7730     0.2004    -0.6305 C.2     
  10 C10           -1.8427     1.0903    -0.7786 C.2     
  11 C11           -1.6529     2.4054    -0.4697 C.2     
  12 C12           -0.3901     2.8290    -0.0333 C.2     
  13 C13            2.8897     0.2587    -0.1475 C.3     
  14 O14           -0.2233     3.9934     0.2925 O.2     
  15 C15            1.1538    -0.0227     3.7544 C.3     
  16 C16            4.4516    -1.0933     4.9866 C.ar    
  17 N17            3.4650    -0.3512     4.5248 N.ar    
  18 C18            2.2762    -0.8790     4.2819 C.ar    
  19 C19            2.0770    -2.2300     4.5195 C.ar    
  20 C20            3.1382    -2.9774     5.0049 C.ar    
  21 N21            4.2989    -2.3805     5.2242 N.ar    
  22 C22            2.9726    -4.4498     5.2800 C.3     
  23 S23            1.0285     1.4895     4.7484 S.3     
  24 C24           -1.2032     0.4862     5.9708 C.3     
  25 C25           -0.7536     1.6283     5.0574 C.3     
  26 C26           -1.0513     2.9686     5.7325 C.3     
  27 C27           -0.7174     4.1099     4.7697 C.3     
  28 C28           -1.0151     5.4502     5.4448 C.3     
  29 C29           -0.6812     6.5915     4.4821 C.3     
  30 H30            1.3889    -1.2354    -0.6480 H       
  31 H31            3.9595     1.8852     0.7288 H       
  32 H32            0.4592    -1.3959     1.6359 H       
  33 H33            2.2359    -1.5119     1.7408 H       
  34 H34            2.6763     1.9327     2.8641 H       
  35 H35            3.5082     0.3932     2.5617 H       
  36 H36            2.3558     2.9992    -0.5724 H       
  37 H37            1.8612     3.2756     1.1072 H       
  38 H38           -0.9107    -0.8459    -0.8603 H       
  39 H39           -2.8020     0.7420    -1.1317 H       
  40 H40           -2.4653     3.1112    -0.5605 H       
  41 H41            3.6738    -0.4533     0.1102 H       
  42 H42            3.0110     0.5861    -1.1801 H       
  43 H43            0.2163    -0.5754     3.8141 H       
  44 H44            5.4121    -0.6351     5.1710 H       
  45 H45            1.1177    -2.6891     4.3311 H       
  46 H46            3.2234    -5.0173     4.3838 H       
  47 H47            3.6354    -4.7441     6.0938 H       
  48 H48            1.9394    -4.6529     5.5614 H       
  49 H49           -0.7209     0.5871     6.9431 H       
  50 H50           -2.2853     0.5257     6.0962 H       
  51 H51           -0.9239    -0.4680     5.5239 H       
  52 H52           -1.2919     1.5704     4.1114 H       
  53 H53           -2.1073     3.0148     5.9984 H       
  54 H54           -0.4452     3.0642     6.6334 H       
  55 H55            0.3387     4.0636     4.5038 H       
  56 H56           -1.3234     4.0143     3.8688 H       
  57 H57           -2.0711     5.4964     5.7107 H       
  58 H58           -0.4090     5.5458     6.3457 H       
  59 H59           -0.8933     7.5464     4.9630 H       
  60 H60            0.3749     6.5452     4.2161 H       
  61 H61           -1.2872     6.4959     3.5811 H       
@<TRIPOS>BOND
   1    1    2 1
   2    1    8 1
   3    1   12 am
   4    2    3 1
   5    2    9 2
   6    3    4 1
   7    3   13 1
   8    3   30 1
   9    4    5 1
  10    4   32 1
  11    4   33 1
  12    5    6 1
  13    5   15 1
  14    6    7 1
  15    6   34 1
  16    6   35 1
  17    7    8 1
  18    7   13 1
  19    7   31 1
  20    8   36 1
  21    8   37 1
  22    9   10 1
  23    9   38 1
  24   10   11 2
  25   10   39 1
  26   11   12 1
  27   11   40 1
  28   12   14 2
  29   13   41 1
  30   13   42 1
  31   15   18 1
  32   15   23 1
  33   15   43 1
  34   16   17 ar
  35   16   21 ar
  36   16   44 1
  37   17   18 ar
  38   18   19 ar
  39   19   20 ar
  40   19   45 1
  41   20   21 ar
  42   20   22 1
  43   22   46 1
  44   22   47 1
  45   22   48 1
  46   23   25 1
  47   24   25 1
  48   24   49 1
  49   24   50 1
  50   24   51 1
  51   25   26 1
  52   25   52 1
  53   26   27 1
  54   26   53 1
  55   26   54 1
  56   27   28 1
  57   27   55 1
  58   27   56 1
  59   28   29 1
  60   28   57 1
  61   28   58 1
  62   29   59 1
  63   29   60 1
  64   29   61 1

#	End of record

