#	Name: ASD01028045
#	Creating user name:	WinNT
#	Creation time:	15. 06. 2019 18:56

#	Modifying user name:	WinNT
#	Modification time:	15. 06. 2019 18:56

#	Program:	/corina/corina34_cracker 3.40 0067  02.08.2006

@<TRIPOS>MOLECULE
ASD01028045
  84   89    0    0    0
SMALL
NO_CHARGES


@<TRIPOS>ATOM
   1 C1            -1.9736     2.4363     0.7516 C.3     
   2 C2            -1.6463     0.9519     0.5863 C.3     
   3 C3            -0.7415     4.3259     1.8337 C.3     
   4 C4            -0.6785     3.2506     0.7464 C.3     
   5 N5             0.8877     4.3671     3.6729 N.3     
   6 N6             1.2250     1.2211     4.8333 N.pl3   
   7 C7             2.0455     2.0183     5.6190 C.ar    
   8 C8             2.5431     3.1954     5.0717 C.ar    
   9 C9             2.1673     3.5942     3.6728 C.3     
  10 C10            2.3620     1.6815     6.9348 C.ar    
  11 C11            3.2070     2.4977     7.6743 C.ar    
  12 C12            3.7291     3.6523     7.1054 C.ar    
  13 C13            3.3949     3.9920     5.8110 C.ar    
  14 O14           -2.3992     0.1761     1.5201 O.3     
  15 C15           -1.7082    -0.5697     2.4210 C.ar    
  16 C16           -0.7833     0.0483     3.2188 C.ar    
  17 C17           -0.0769    -0.6949     4.1701 C.ar    
  18 C18            0.9081    -0.0964     5.0036 C.ar    
  19 N19            1.4919    -0.8653     5.9123 N.ar    
  20 O20            1.9727     0.6346     7.7144 O.3     
  21 C21            2.6846     0.7225     8.9528 C.3     
  22 O22            3.3791     1.9742     8.9200 O.3     
  23 C23           -1.9400    -1.9474     2.5320 C.ar    
  24 C24           -1.2654    -2.6990     3.4717 C.ar    
  25 C25           -0.3377    -2.0789     4.3182 C.ar    
  26 N26            0.3105    -2.7562     5.2788 N.ar    
  27 C27            1.1893    -2.1465     6.0403 C.ar    
  28 O28           -2.8367    -2.5483     1.7079 O.3     
  29 C29           -3.0273    -3.9550     1.8718 C.3     
  30 C30            1.2198     5.6771     4.3352 C.3     
  31 C31           -4.0663    -4.4499     0.8636 C.3     
  32 C32           -4.2703    -5.9560     1.0391 C.3     
  33 N33           -5.2679    -6.4311     0.0711 N.3     
  34 C34            0.6745     4.7375     2.2307 C.3     
  35 Br35           4.8951     4.7549     8.1063 Br      
  36 C36           -5.3189    -7.8996     0.0452 C.3     
  37 C37           -4.9989    -5.8927    -1.2695 C.3     
  38 C38           -6.1022    -6.3453    -2.2289 C.3     
  39 N39           -6.1532    -7.8137    -2.2548 N.3     
  40 C40           -6.4222    -8.3522    -0.9142 C.3     
  41 C41           -7.1508    -8.2888    -3.2228 C.3     
  42 C42           -6.5991    -8.1337    -4.6414 C.3     
  43 O43           -5.4703    -8.9936    -4.8102 O.3     
  44 H44           -2.6144     2.7625    -0.0671 H       
  45 H45           -2.4921     2.5870     1.6998 H       
  46 H46           -1.9002     0.6388    -0.4273 H       
  47 H47           -0.5819     0.7929     0.7529 H       
  48 H48           -1.2837     5.1925     1.4546 H       
  49 H49           -1.2635     3.9281     2.7045 H       
  50 H50            0.1669     2.5911     0.9474 H       
  51 H51           -0.5451     3.7244    -0.2251 H       
  52 H52            0.8254     1.6573     4.0690 H       
  53 H53            2.0259     2.7145     3.0553 H       
  54 H54            2.9384     4.2323     3.2485 H       
  55 H55            3.8115     4.8849     5.3672 H       
  56 H56           -0.6079     1.1086     3.1105 H       
  57 H57            1.9878     0.7023     9.7907 H       
  58 H58            3.3962    -0.0987     9.0380 H       
  59 H59           -1.4498    -3.7602     3.5531 H       
  60 H60            1.6858    -2.7192     6.8097 H       
  61 H61           -2.0825    -4.4717     1.7032 H       
  62 H62           -3.3772    -4.1588     2.8838 H       
  63 H63            0.3887     6.3704     4.2063 H       
  64 H64            1.3942     5.5127     5.3985 H       
  65 H65            2.1171     6.0969     3.8805 H       
  66 H66           -5.0111    -3.9331     1.0323 H       
  67 H67           -3.7164    -4.2461    -0.1484 H       
  68 H68           -3.3255    -6.4727     0.8705 H       
  69 H69           -4.6202    -6.1598     2.0511 H       
  70 H70            1.4063     4.2083     1.6327 H       
  71 H71            0.7945     5.8115     2.1407 H       
  72 H72           -4.3595    -8.2909    -0.2933 H       
  73 H73           -5.5317    -8.2737     1.0466 H       
  74 H74           -4.9785    -4.8037    -1.2267 H       
  75 H75           -4.0359    -6.2612    -1.6230 H       
  76 H76           -7.0615    -5.9540    -1.8904 H       
  77 H77           -5.8893    -5.9711    -3.2303 H       
  78 H78           -6.4426    -9.4411    -0.9570 H       
  79 H79           -7.3852    -7.9837    -0.5607 H       
  80 H80           -7.3713    -9.3390    -3.0315 H       
  81 H81           -8.0636    -7.7017    -3.1217 H       
  82 H82           -7.3711    -8.4017    -5.3628 H       
  83 H83           -6.2951    -7.0993    -4.8020 H       
  84 H84           -5.0685    -8.9473    -5.6886 H       
@<TRIPOS>BOND
   1    1    2 1
   2    1    4 1
   3    1   44 1
   4    1   45 1
   5    2   14 1
   6    2   46 1
   7    2   47 1
   8    3    4 1
   9    3   34 1
  10    3   48 1
  11    3   49 1
  12    4   50 1
  13    4   51 1
  14    5   30 1
  15    5   34 1
  16    5    9 1
  17    6    7 1
  18    6   18 1
  19    6   52 1
  20    7    8 ar
  21    7   10 ar
  22    8    9 1
  23    8   13 ar
  24    9   53 1
  25    9   54 1
  26   10   11 ar
  27   10   20 1
  28   11   12 ar
  29   11   22 1
  30   12   13 ar
  31   12   35 1
  32   13   55 1
  33   14   15 1
  34   15   16 ar
  35   15   23 ar
  36   16   17 ar
  37   16   56 1
  38   17   18 ar
  39   17   25 ar
  40   18   19 ar
  41   19   27 ar
  42   20   21 1
  43   21   22 1
  44   21   57 1
  45   21   58 1
  46   23   24 ar
  47   23   28 1
  48   24   25 ar
  49   24   59 1
  50   25   26 ar
  51   26   27 ar
  52   27   60 1
  53   28   29 1
  54   29   31 1
  55   29   61 1
  56   29   62 1
  57   30   63 1
  58   30   64 1
  59   30   65 1
  60   31   32 1
  61   31   66 1
  62   31   67 1
  63   32   33 1
  64   32   68 1
  65   32   69 1
  66   33   36 1
  67   33   37 1
  68   34   70 1
  69   34   71 1
  70   36   40 1
  71   36   72 1
  72   36   73 1
  73   37   38 1
  74   37   74 1
  75   37   75 1
  76   38   39 1
  77   38   76 1
  78   38   77 1
  79   39   40 1
  80   39   41 1
  81   40   78 1
  82   40   79 1
  83   41   42 1
  84   41   80 1
  85   41   81 1
  86   42   43 1
  87   42   82 1
  88   42   83 1
  89   43   84 1

#	End of record

