#	Name: ASD07932037
#	Creating user name:	WinNT
#	Creation time:	15. 06. 2019 21:14

#	Modifying user name:	WinNT
#	Modification time:	15. 06. 2019 21:14

#	Program:	/corina/corina34_cracker 3.40 0067  02.08.2006

@<TRIPOS>MOLECULE
ASD07932037
  57   59    0    0    0
SMALL
NO_CHARGES


@<TRIPOS>ATOM
   1 N1            -0.0142     1.4462     0.0288 N.pl3   
   2 C2             0.0009    -0.0204     0.0211 C.3     
   3 C3             0.7671    -0.5250     1.2518 C.3     
   4 S4             2.4325     0.2099     1.2287 S.o2    
   5 N5             2.1159     1.8289     0.9938 N.am    
   6 C6             1.1750     2.1461     0.0244 C.2     
   7 C7             2.7974     2.8662     1.7722 C.3     
   8 N8             1.4069     3.0741    -0.8610 N.2     
   9 O9             3.0300     0.1456     2.5163 O.2     
  10 O10            3.1432    -0.1880     0.0643 O.2     
  11 C11           -1.4136    -0.5385     0.0616 C.ar    
  12 C12            0.6919    -0.5176    -1.2502 C.3     
  13 C13           -2.4675     0.3430     0.1997 C.ar    
  14 C14           -3.7711    -0.1350     0.2365 C.ar    
  15 C15           -4.0116    -1.4988     0.1343 C.ar    
  16 C16           -2.9544    -2.3770    -0.0036 C.ar    
  17 C17           -1.6560    -1.8979    -0.0454 C.ar    
  18 N18           -4.8406     0.7564     0.3768 N.am    
  19 C19           -6.0108     0.5081    -0.2440 C.2     
  20 O20           -6.1078    -0.4365    -1.0026 O.2     
  21 C21           -7.1787     1.3864    -0.0018 C.ar    
  22 N22           -7.0667     2.4165     0.8277 N.ar    
  23 C23           -8.0791     3.2203     1.0702 C.ar    
  24 C24           -9.3086     3.0193     0.4637 C.ar    
  25 C25           -9.4694     1.9550    -0.4100 C.ar    
  26 C26           -8.3841     1.1277    -0.6510 C.ar    
  27 F27           -0.6235    -2.7585    -0.1808 F       
  28 C28          -10.4598     3.9482     0.7514 C.3     
  29 C29          -10.4449     5.1044    -0.2505 C.3     
  30 C30          -11.6137     6.0475     0.0416 C.3     
  31 C31          -11.5987     7.2038    -0.9603 C.3     
  32 H32           -0.8587     1.9233     0.0329 H       
  33 H33            0.2446    -0.2227     2.1593 H       
  34 H34            0.8444    -1.6117     1.2163 H       
  35 H35            3.7101     3.1661     1.2573 H       
  36 H36            2.1408     3.7295     1.8804 H       
  37 H37            3.0483     2.4747     2.7580 H       
  38 H38            2.2487     3.5559    -0.8494 H       
  39 H39            1.7155    -0.1438    -1.2773 H       
  40 H40            0.7028    -1.6075    -1.2553 H       
  41 H41            0.1497    -0.1555    -2.1237 H       
  42 H42           -2.2783     1.4033     0.2794 H       
  43 H43           -5.0244    -1.8726     0.1631 H       
  44 H44           -3.1410    -3.4378    -0.0828 H       
  45 H45           -4.7397     1.5531     0.9209 H       
  46 H46           -7.9505     4.0483     1.7516 H       
  47 H47          -10.4178     1.7773    -0.8952 H       
  48 H48           -8.4736     0.2895    -1.3262 H       
  49 H49          -11.3987     3.4018     0.6617 H       
  50 H50          -10.3643     4.3427     1.7630 H       
  51 H51           -9.5060     5.6508    -0.1607 H       
  52 H52          -10.5404     4.7099    -1.2621 H       
  53 H53          -12.5526     5.5011    -0.0481 H       
  54 H54          -11.5182     6.4420     1.0532 H       
  55 H55          -10.6599     7.7501    -0.8705 H       
  56 H56          -11.6943     6.8092    -1.9719 H       
  57 H57          -12.4314     7.8756    -0.7522 H       
@<TRIPOS>BOND
   1    1    2 1
   2    1    6 1
   3    1   32 1
   4    2    3 1
   5    2   11 1
   6    2   12 1
   7    3    4 1
   8    3   33 1
   9    3   34 1
  10    4    5 am
  11    4    9 2
  12    4   10 2
  13    5    6 1
  14    5    7 1
  15    6    8 2
  16    7   35 1
  17    7   36 1
  18    7   37 1
  19    8   38 1
  20   11   13 ar
  21   11   17 ar
  22   12   39 1
  23   12   40 1
  24   12   41 1
  25   13   14 ar
  26   13   42 1
  27   14   15 ar
  28   14   18 1
  29   15   16 ar
  30   15   43 1
  31   16   17 ar
  32   16   44 1
  33   17   27 1
  34   18   19 am
  35   18   45 1
  36   19   20 2
  37   19   21 1
  38   21   22 ar
  39   21   26 ar
  40   22   23 ar
  41   23   24 ar
  42   23   46 1
  43   24   25 ar
  44   24   28 1
  45   25   26 ar
  46   25   47 1
  47   26   48 1
  48   28   29 1
  49   28   49 1
  50   28   50 1
  51   29   30 1
  52   29   51 1
  53   29   52 1
  54   30   31 1
  55   30   53 1
  56   30   54 1
  57   31   55 1
  58   31   56 1
  59   31   57 1

#	End of record

