#	Name: ASD01810969
#	Creating user name:	WinNT
#	Creation time:	15. 06. 2019 19:25

#	Modifying user name:	WinNT
#	Modification time:	15. 06. 2019 19:25

#	Program:	/corina/corina34_cracker 3.40 0067  02.08.2006

@<TRIPOS>MOLECULE
ASD01810969
  65   68    0    0    0
SMALL
NO_CHARGES


@<TRIPOS>ATOM
   1 C1            -7.3193     2.2265    -4.0206 C.1     
   2 C2            -6.3423     3.0187    -3.3361 C.ar    
   3 C3            -5.1730     2.4274    -2.8535 C.ar    
   4 C4            -4.2360     3.1964    -2.1951 C.ar    
   5 C5            -4.4530     4.5506    -2.0120 C.ar    
   6 C6            -5.6096     5.1429    -2.4873 C.ar    
   7 C7            -6.5519     4.3870    -3.1534 C.ar    
   8 N8            -8.0944     1.5981    -4.5635 N.1     
   9 N9            -2.4087     7.8006    -0.2291 N.am    
  10 C10           -1.8515     7.3132    -1.4982 C.3     
  11 C11           -2.9211     6.4894    -2.2223 C.3     
  12 C12           -3.4250     5.3842    -1.2913 C.3     
  13 C13           -4.0585     6.0119    -0.0476 C.3     
  14 C14           -3.0019     6.8303     0.7011 C.3     
  15 C15           -2.3714     9.1123     0.0784 C.2     
  16 C16           -3.0181     9.6004     1.3154 C.ar    
  17 C17           -3.9802    10.6109     1.2505 C.ar    
  18 C18           -4.5846    11.0674     2.4045 C.ar    
  19 C19           -4.2430    10.5292     3.6298 C.ar    
  20 C20           -3.2834     9.5185     3.7086 C.ar    
  21 C21           -2.6732     9.0493     2.5476 C.ar    
  22 O22           -1.8063     9.8941    -0.6611 O.2     
  23 C23           -4.9074    11.0345     4.8845 C.3     
  24 N24           -2.8686     8.5804     7.1164 N.2     
  25 N25           -3.4142     9.2856     6.1904 N.2     
  26 C26           -2.9184     8.9436     5.0221 C.2     
  27 N27           -2.0005     7.9547     5.2514 N.pl3   
  28 C28           -2.0002     7.7542     6.5974 C.2     
  29 C29           -1.1536     6.7610     7.3509 C.3     
  30 O30           -0.3300     6.0421     6.4306 O.3     
  31 C31            0.5168     5.0693     7.0458 C.3     
  32 C32           -4.3588    11.2043    -0.0820 C.3     
  33 C33           -5.8216    10.8773    -0.3888 C.3     
  34 C34           -4.1746    12.7224    -0.0350 C.3     
  35 H35           -5.0028     1.3703    -2.9951 H       
  36 H36           -3.3312     2.7404    -1.8213 H       
  37 H37           -5.7728     6.2004    -2.3407 H       
  38 H38           -7.4520     4.8515    -3.5281 H       
  39 H39           -1.5605     8.1605    -2.1190 H       
  40 H40           -0.9813     6.6877    -1.2989 H       
  41 H41           -3.7521     7.1372    -2.5012 H       
  42 H42           -2.4910     6.0422    -3.1185 H       
  43 H43           -2.5890     4.7516    -0.9928 H       
  44 H44           -4.8789     6.6642    -0.3471 H       
  45 H45           -4.4381     5.2249     0.6039 H       
  46 H46           -2.2255     6.1654     1.0797 H       
  47 H47           -3.4699     7.3590     1.5314 H       
  48 H48           -5.3277    11.8492     2.3491 H       
  49 H49           -1.9329     8.2650     2.6029 H       
  50 H50           -5.8050    10.4484     5.0816 H       
  51 H51           -4.2191    10.9384     5.7241 H       
  52 H52           -5.1787    12.0823     4.7552 H       
  53 H53           -1.4614     7.4921     4.5909 H       
  54 H54           -0.5235     7.2895     8.0662 H       
  55 H55           -1.7997     6.0624     7.8825 H       
  56 H56            1.1094     4.5676     6.2808 H       
  57 H57            1.1817     5.5627     7.7548 H       
  58 H58           -0.0946     4.3356     7.5711 H       
  59 H59           -3.7217    10.7849    -0.8607 H       
  60 H60           -6.0954    11.3065    -1.3526 H       
  61 H61           -5.9528     9.7957    -0.4223 H       
  62 H62           -6.4587    11.2967     0.3899 H       
  63 H63           -3.1324    12.9554     0.1835 H       
  64 H64           -4.4484    13.1517    -0.9988 H       
  65 H65           -4.8117    13.1418     0.7437 H       
@<TRIPOS>BOND
   1    1    2 1
   2    1    8 3
   3    2    3 ar
   4    2    7 ar
   5    3    4 ar
   6    3   35 1
   7    4    5 ar
   8    4   36 1
   9    5    6 ar
  10    5   12 1
  11    6    7 ar
  12    6   37 1
  13    7   38 1
  14    9   10 1
  15    9   14 1
  16    9   15 am
  17   10   11 1
  18   10   39 1
  19   10   40 1
  20   11   12 1
  21   11   41 1
  22   11   42 1
  23   12   13 1
  24   12   43 1
  25   13   14 1
  26   13   44 1
  27   13   45 1
  28   14   46 1
  29   14   47 1
  30   15   16 1
  31   15   22 2
  32   16   17 ar
  33   16   21 ar
  34   17   18 ar
  35   17   32 1
  36   18   19 ar
  37   18   48 1
  38   19   20 ar
  39   19   23 1
  40   20   21 ar
  41   20   26 1
  42   21   49 1
  43   23   50 1
  44   23   51 1
  45   23   52 1
  46   24   25 1
  47   24   28 2
  48   25   26 2
  49   26   27 1
  50   27   28 1
  51   27   53 1
  52   28   29 1
  53   29   30 1
  54   29   54 1
  55   29   55 1
  56   30   31 1
  57   31   56 1
  58   31   57 1
  59   31   58 1
  60   32   33 1
  61   32   34 1
  62   32   59 1
  63   33   60 1
  64   33   61 1
  65   33   62 1
  66   34   63 1
  67   34   64 1
  68   34   65 1

#	End of record

