#	Name: ASD01000102
#	Creating user name:	WinNT
#	Creation time:	15. 06. 2019 18:54

#	Modifying user name:	WinNT
#	Modification time:	15. 06. 2019 18:54

#	Program:	/corina/corina34_cracker 3.40 0067  02.08.2006

@<TRIPOS>MOLECULE
ASD01000102
  51   53    0    0    0
SMALL
NO_CHARGES


@<TRIPOS>ATOM
   1 C1            -0.0550     1.4565    -0.0752 C.ar    
   2 C2            -0.0039    -0.0488    -0.0270 C.3     
   3 N3             1.3017    -0.5165     0.4736 N.am    
   4 N4             1.2334    -1.2373     1.6450 N.2     
   5 C5             0.1074    -1.4716     2.2379 C.2     
   6 S6            -1.1500    -0.7031     1.2446 S.3     
   7 C7            -0.0934    -2.2288     3.4918 C.ar    
   8 C8             1.0026    -2.7780     4.1632 C.ar    
   9 C9            -1.3769    -2.3933     4.0130 C.ar    
  10 C10           -1.5577    -3.1022     5.1853 C.ar    
  11 C11           -0.4675    -3.6486     5.8432 C.ar    
  12 C12            0.8081    -3.4847     5.3347 C.ar    
  13 C13           -0.3099    -0.6483    -1.4010 C.3     
  14 C14           -0.2497    -2.1748    -1.3163 C.3     
  15 C15           -0.5557    -2.7743    -2.6903 C.3     
  16 N16           -0.4979    -4.2399    -2.6090 N.3     
  17 C17           -1.2177     2.0967    -0.4616 C.ar    
  18 C18           -1.2645     3.4775    -0.5059 C.ar    
  19 C19           -0.1487     4.2182    -0.1634 C.ar    
  20 C20            1.0137     3.5781     0.2238 C.ar    
  21 C21            1.0592     2.1974     0.2723 C.ar    
  22 C22            2.4628    -0.2610    -0.1614 C.2     
  23 N23            3.6288    -0.6731     0.3744 N.am    
  24 O24            2.4583     0.3415    -1.2180 O.2     
  25 C25            4.8908    -0.3954    -0.3158 C.3     
  26 F26            2.2494    -2.6187     3.6677 F       
  27 F27           -2.8000    -3.2624     5.6914 F       
  28 O28            3.6340    -1.3745     1.6044 O.3     
  29 C29            3.5326    -2.7931     1.4651 C.3     
  30 H30           -2.2274    -1.9673     3.5015 H       
  31 H31           -0.6142    -4.2015     6.7593 H       
  32 H32            1.6537    -3.9131     5.8523 H       
  33 H33           -1.3065    -0.3410    -1.7178 H       
  34 H34            0.4260    -0.2952    -2.1235 H       
  35 H35            0.7469    -2.4821    -0.9995 H       
  36 H36           -0.9856    -2.5278    -0.5938 H       
  37 H37           -1.5523    -2.4669    -3.0071 H       
  38 H38            0.1802    -2.4212    -3.4128 H       
  39 H39           -1.1254    -4.5876    -1.8994 H       
  40 H40           -0.6966    -4.6598    -3.5047 H       
  41 H41           -2.0894     1.5180    -0.7291 H       
  42 H42           -2.1726     3.9776    -0.8084 H       
  43 H43           -0.1850     5.2971    -0.1987 H       
  44 H44            1.8855     4.1568     0.4911 H       
  45 H45            1.9673     1.6973     0.5749 H       
  46 H46            5.2853     0.5635     0.0202 H       
  47 H47            5.6094    -1.1832    -0.0900 H       
  48 H48            4.7166    -0.3599    -1.3912 H       
  49 H49            2.6013    -3.0426     0.9565 H       
  50 H50            4.3756    -3.1620     0.8809 H       
  51 H51            3.5434    -3.2568     2.4514 H       
@<TRIPOS>BOND
   1    1    2 1
   2    1   17 ar
   3    1   21 ar
   4    2    3 1
   5    2   13 1
   6    2    6 1
   7    3    4 1
   8    3   22 am
   9    4    5 2
  10    5    6 1
  11    5    7 1
  12    7    8 ar
  13    7    9 ar
  14    8   26 1
  15    8   12 ar
  16    9   10 ar
  17    9   30 1
  18   10   11 ar
  19   10   27 1
  20   11   12 ar
  21   11   31 1
  22   12   32 1
  23   13   14 1
  24   13   33 1
  25   13   34 1
  26   14   15 1
  27   14   35 1
  28   14   36 1
  29   15   16 1
  30   15   37 1
  31   15   38 1
  32   16   39 1
  33   16   40 1
  34   17   18 ar
  35   17   41 1
  36   18   19 ar
  37   18   42 1
  38   19   20 ar
  39   19   43 1
  40   20   21 ar
  41   20   44 1
  42   21   45 1
  43   22   23 am
  44   22   24 2
  45   23   28 1
  46   23   25 1
  47   25   46 1
  48   25   47 1
  49   25   48 1
  50   28   29 1
  51   29   49 1
  52   29   50 1
  53   29   51 1

#	End of record

