#	Name: ASD09380013
#	Creating user name:	WinNT
#	Creation time:	15. 06. 2019 21:21

#	Modifying user name:	WinNT
#	Modification time:	15. 06. 2019 21:21

#	Program:	/corina/corina34_cracker 3.40 0067  02.08.2006

@<TRIPOS>MOLECULE
ASD09380013
  62   65    0    0    0
SMALL
NO_CHARGES


@<TRIPOS>ATOM
   1 Na1            0.0000     0.0000     0.0000 Du      
   2 C2            14.2677    21.7035     9.7982 C.3     
   3 O3            14.3546    20.2828     9.6715 O.3     
   4 C4            13.1884    19.6052     9.5193 C.ar    
   5 C5            13.2097    18.2245     9.3971 C.ar    
   6 C6            12.0033    17.5403     9.2412 C.ar    
   7 C7            10.8178    18.2853     9.2153 C.ar    
   8 F8             9.6248    17.6689     9.0670 F       
   9 C9            10.8848    19.6587     9.3438 C.ar    
  10 N10           12.0449    20.2699     9.4949 N.ar    
  11 C11           11.9775    16.0631     9.1061 C.ar    
  12 C12           12.8134    15.4301     8.1883 C.ar    
  13 C13           12.7856    14.0556     8.0671 C.ar    
  14 C14           11.9297    13.3065     8.8543 C.ar    
  15 C15           11.0975    13.9296     9.7667 C.ar    
  16 C16           11.1214    15.3030     9.9006 C.ar    
  17 C17           11.9035    11.8060     8.7171 C.3     
  18 C18           12.7065    11.1688     9.8583 C.3     
  19 C19           12.7528     9.6563     9.6275 C.3     
  20 C20           11.3665     9.1462     9.3256 C.ar    
  21 C21           11.1126     7.7912     9.4539 C.ar    
  22 C22            9.8550     7.2886     9.1814 C.ar    
  23 C23            8.8431     8.1400     8.7784 C.ar    
  24 C24            9.0898     9.4919     8.6507 C.ar    
  25 C25           10.3545    10.0017     8.9260 C.ar    
  26 O26           10.5562    11.3390     8.7986 O.3     
  27 C27            7.4716     7.5923     8.4782 C.3     
  28 H28            6.7520     8.4104     8.4491 H       
  29 C29            7.4914     6.8820     7.1232 C.3     
  30 H30            6.5301     6.3972     6.9530 H       
  31 C31            8.6019     5.8296     7.1152 C.3     
  32 C32            7.7463     7.8894     6.0317 C.2     
  33 O33            8.2966     7.5443     5.0000 O.co2   
  34 O34            7.4020     9.0495     6.1804 O.co2   
  35 C35            7.0696     6.5979     9.5694 C.3     
  36 C36            6.0295     7.0557    10.5938 C.3     
  37 C37            5.6485     6.0330     9.5215 C.3     
  38 H38           15.2684    22.1200     9.9133 H       
  39 H39           13.8012    22.1201     8.9055 H       
  40 H40           13.6671    21.9542    10.6726 H       
  41 H41           14.1458    17.6864     9.4217 H       
  42 H42            9.9750    20.2403     9.3244 H       
  43 H43           13.4815    16.0141     7.5726 H       
  44 H44           13.4330    13.5639     7.3561 H       
  45 H45           10.4309    13.3399    10.3786 H       
  46 H46           10.4747    15.7882    10.6168 H       
  47 H47           12.3347    11.5175     7.7585 H       
  48 H48           13.7197    11.5708     9.8637 H       
  49 H49           12.2217    11.3803    10.8114 H       
  50 H50           13.4109     9.4377     8.7865 H       
  51 H51           13.1335     9.1642    10.5225 H       
  52 H52           11.9015     7.1239     9.7682 H       
  53 H53            9.6624     6.2307     9.2827 H       
  54 H54            8.2987    10.1560     8.3354 H       
  55 H55            9.5723     6.3250     7.1475 H       
  56 H56            8.4953     5.1823     7.9857 H       
  57 H57            8.5293     5.2316     6.2068 H       
  58 H58            7.8626     5.9364     9.9180 H       
  59 H59            6.1382     6.6955    11.6168 H       
  60 H60            5.6316     8.0652    10.4905 H       
  61 H61            5.0000     6.3697     8.7127 H       
  62 H62            5.5066     5.0000     9.8390 H       
@<TRIPOS>BOND
   1    2    3 1
   2    2   38 1
   3    2   39 1
   4    2   40 1
   5    3    4 1
   6    4   10 ar
   7    4    5 ar
   8    5    6 ar
   9    5   41 1
  10    6    7 ar
  11    6   11 1
  12    7    8 1
  13    7    9 ar
  14    9   10 ar
  15    9   42 1
  16   11   16 ar
  17   11   12 ar
  18   12   13 ar
  19   12   43 1
  20   13   14 ar
  21   13   44 1
  22   14   15 ar
  23   14   17 1
  24   15   16 ar
  25   15   45 1
  26   16   46 1
  27   17   26 1
  28   17   18 1
  29   17   47 1
  30   18   19 1
  31   18   48 1
  32   18   49 1
  33   19   20 1
  34   19   50 1
  35   19   51 1
  36   20   25 ar
  37   20   21 ar
  38   21   22 ar
  39   21   52 1
  40   22   23 ar
  41   22   53 1
  42   23   24 ar
  43   23   27 1
  44   24   25 ar
  45   24   54 1
  46   25   26 1
  47   27   28 1
  48   27   29 1
  49   27   35 1
  50   29   30 1
  51   29   31 1
  52   29   32 1
  53   31   55 1
  54   31   56 1
  55   31   57 1
  56   32   33 ar
  57   32   34 ar
  58   35   37 1
  59   35   36 1
  60   35   58 1
  61   36   37 1
  62   36   59 1
  63   36   60 1
  64   37   61 1
  65   37   62 1

#	End of record

