#	Name: ASD02508465
#	Creating user name:	WinNT
#	Creation time:	15. 06. 2019 20:24

#	Modifying user name:	WinNT
#	Modification time:	15. 06. 2019 20:24

#	Program:	/corina/corina34_cracker 3.40 0067  02.08.2006

@<TRIPOS>MOLECULE
ASD02508465
  36   39    0    0    0
SMALL
NO_CHARGES


@<TRIPOS>ATOM
   1 C1             1.1017     1.7927    -0.0007 C.2     
   2 C2             2.0781     0.7851     0.1401 C.2     
   3 C3             1.4572    -0.4031     0.0029 C.2     
   4 N4             0.1287    -0.1673    -0.2182 N.pl3   
   5 C5            -0.0806     1.1839    -0.2188 C.2     
   6 C6            -0.8490    -1.1417    -0.4116 C.ar    
   7 N7            -2.1187    -0.7761    -0.4868 N.ar    
   8 N8            -0.4843    -2.4090    -0.5209 N.ar    
   9 C9            -1.3858    -3.3600    -0.7054 C.ar    
  10 C10           -2.7249    -3.0153    -0.7839 C.ar    
  11 C11           -3.0721    -1.6759    -0.6703 C.ar    
  12 S12            2.2249    -1.9866     0.0920 S.o2    
  13 N13            2.3319    -2.5672    -1.4552 N.am    
  14 C14            3.0703    -1.8671    -2.4157 C.ar    
  15 C15            4.3665    -1.4584    -2.1328 C.ar    
  16 C16            5.0970    -0.7667    -3.0808 C.ar    
  17 C17            4.5382    -0.4789    -4.3149 C.ar    
  18 C18            3.2377    -0.8875    -4.6018 C.ar    
  19 C19            2.5086    -1.5859    -3.6540 C.ar    
  20 O20            3.5581    -1.7621     0.5295 O.2     
  21 O21            1.3146    -2.8358     0.7772 O.2     
  22 Cl22          -4.7357    -1.1881    -0.7614 Cl      
  23 O23            5.0386     0.1784    -5.4031 O.3     
  24 C24            4.1823    -0.1888    -6.5009 C.3     
  25 O25            2.9237    -0.4866    -5.8683 O.3     
  26 H26            1.2699     2.8578     0.0599 H       
  27 H27            3.1314     0.9377     0.3239 H       
  28 H28           -1.0294     1.6778    -0.3677 H       
  29 H29           -1.0810    -4.3923    -0.7942 H       
  30 H30           -3.4816    -3.7710    -0.9345 H       
  31 H31            1.8828    -3.3926    -1.6956 H       
  32 H32            4.8044    -1.6809    -1.1710 H       
  33 H33            6.1052    -0.4497    -2.8585 H       
  34 H34            1.5003    -1.9036    -3.8746 H       
  35 H35            4.0738     0.6430    -7.1969 H       
  36 H36            4.5716    -1.0691    -7.0124 H       
@<TRIPOS>BOND
   1    1    2 1
   2    1    5 2
   3    1   26 1
   4    2    3 2
   5    2   27 1
   6    3    4 1
   7    3   12 1
   8    4    5 1
   9    4    6 1
  10    5   28 1
  11    6    7 ar
  12    6    8 ar
  13    7   11 ar
  14    8    9 ar
  15    9   10 ar
  16    9   29 1
  17   10   11 ar
  18   10   30 1
  19   11   22 1
  20   12   13 am
  21   12   20 2
  22   12   21 2
  23   13   14 1
  24   13   31 1
  25   14   15 ar
  26   14   19 ar
  27   15   16 ar
  28   15   32 1
  29   16   17 ar
  30   16   33 1
  31   17   18 ar
  32   17   23 1
  33   18   19 ar
  34   18   25 1
  35   19   34 1
  36   23   24 1
  37   24   25 1
  38   24   35 1
  39   24   36 1

#	End of record

