#	Name: ASD01908366
#	Creating user name:	WinNT
#	Creation time:	15. 06. 2019 19:55

#	Modifying user name:	WinNT
#	Modification time:	15. 06. 2019 19:55

#	Program:	/corina/corina34_cracker 3.40 0067  02.08.2006

@<TRIPOS>MOLECULE
ASD01908366
  41   44    0    0    0
SMALL
NO_CHARGES


@<TRIPOS>ATOM
   1 C1            -0.0145     1.4093     0.0540 C.ar    
   2 C2             0.0002     0.0273     0.0476 C.ar    
   3 C3             1.2045    -0.6453     0.0280 C.ar    
   4 C4             2.4044     0.0559     0.0147 C.ar    
   5 C5             2.3898     1.4322     0.0210 C.ar    
   6 C6             1.1753     2.1075     0.0408 C.ar    
   7 S7             4.0585    -0.5559    -0.0114 S.o2    
   8 N8             5.0536     0.7723    -0.0195 N.am    
   9 S9             4.0306     2.0790     0.0008 S.o2    
  10 C10            6.4523     0.7872    -0.0385 C.ar    
  11 C11            7.1339     1.9974    -0.0428 C.ar    
  12 C12            7.1595    -0.4082    -0.0473 C.ar    
  13 C13            8.5398    -0.3934    -0.0661 C.ar    
  14 C14            9.2213     0.8167    -0.0757 C.ar    
  15 C15            8.5143     2.0120    -0.0616 C.ar    
  16 N16           10.6216     0.8316    -0.0938 N.am    
  17 C17           11.2766     1.7969    -0.7688 C.2     
  18 O18           10.6555     2.5967    -1.4410 O.2     
  19 C19           12.7531     1.8831    -0.6915 C.ar    
  20 C20           13.4522     2.8767    -1.3839 C.ar    
  21 C21           14.8292     2.9206    -1.2832 C.ar    
  22 N22           15.4825     2.0427    -0.5482 N.ar    
  23 C23           14.8625     1.0905     0.1202 C.ar    
  24 C24           13.4864     0.9767     0.0806 C.ar    
  25 O25            4.1900     2.7355    -1.2493 O.2     
  26 O26            4.2253     2.7243     1.2518 O.2     
  27 O27            4.2669    -1.2085     1.2336 O.2     
  28 O28            4.2316    -1.1973    -1.2676 O.2     
  29 H29           -0.9545     1.9410     0.0648 H       
  30 H30           -0.9283    -0.5243     0.0583 H       
  31 H31            1.2149    -1.7253     0.0234 H       
  32 H32            1.1627     3.1875     0.0454 H       
  33 H33            6.5842     2.9269    -0.0318 H       
  34 H34            6.6296    -1.3492    -0.0391 H       
  35 H35            9.0898    -1.3228    -0.0729 H       
  36 H36            9.0443     2.9529    -0.0694 H       
  37 H37           11.1201     0.1472     0.3794 H       
  38 H38           12.9236     3.5988    -1.9885 H       
  39 H39           15.3781     3.6842    -1.8142 H       
  40 H40           15.4381     0.3923     0.7098 H       
  41 H41           12.9851     0.1943     0.6309 H       
@<TRIPOS>BOND
   1    1    2 ar
   2    1    6 ar
   3    1   29 1
   4    2    3 ar
   5    2   30 1
   6    3    4 ar
   7    3   31 1
   8    4    5 ar
   9    4    7 1
  10    5    6 ar
  11    5    9 1
  12    6   32 1
  13    7    8 am
  14    7   27 2
  15    7   28 2
  16    8    9 am
  17    8   10 1
  18    9   25 2
  19    9   26 2
  20   10   11 ar
  21   10   12 ar
  22   11   15 ar
  23   11   33 1
  24   12   13 ar
  25   12   34 1
  26   13   14 ar
  27   13   35 1
  28   14   15 ar
  29   14   16 1
  30   15   36 1
  31   16   17 am
  32   16   37 1
  33   17   18 2
  34   17   19 1
  35   19   20 ar
  36   19   24 ar
  37   20   21 ar
  38   20   38 1
  39   21   22 ar
  40   21   39 1
  41   22   23 ar
  42   23   24 ar
  43   23   40 1
  44   24   41 1

#	End of record

