#	Name: ASD01918191
#	Creating user name:	WinNT
#	Creation time:	15. 06. 2019 20:10

#	Modifying user name:	WinNT
#	Modification time:	15. 06. 2019 20:10

#	Program:	/corina/corina34_cracker 3.40 0067  02.08.2006

@<TRIPOS>MOLECULE
ASD01918191
  40   42    0    0    0
SMALL
NO_CHARGES


@<TRIPOS>ATOM
   1 N1             0.0426     1.3148     0.1322 N.ar    
   2 C2             0.0698    -0.0011     0.1440 C.ar    
   3 C3             1.2717    -0.6878     0.1654 C.ar    
   4 C4             2.4629     0.0236     0.1746 C.ar    
   5 C5             2.4072     1.4065     0.1620 C.ar    
   6 C6             1.1601     2.0345     0.1404 C.ar    
   7 N7             1.0881     3.4000     0.1277 N.2     
   8 N8            -0.0614     3.9851     0.1078 N.2     
   9 C9            -0.1333     5.3466     0.0951 C.ar    
  10 C10           -1.4468     7.3620     0.0665 C.ar    
  11 C11           -1.3795     5.9829     0.0793 C.ar    
  12 C12            1.0391     6.1109     0.1037 C.ar    
  13 C13            0.9648     7.4859     0.0908 C.ar    
  14 C14           -0.2733     8.1181     0.0697 C.ar    
  15 O15           -2.6561     7.9835     0.0515 O.3     
  16 C16           -3.8152     7.1477     0.0500 C.3     
  17 N17           -0.3432     9.5124     0.0563 N.am    
  18 C18            0.6797    10.2336    -0.4438 C.2     
  19 O19            1.6922     9.6742    -0.8177 O.2     
  20 C20            0.5705    11.7046    -0.5375 C.ar    
  21 C21            1.6261    12.4654    -1.0552 C.ar    
  22 C22           -0.5885    12.3582    -0.1171 C.ar    
  23 N23           -0.6860    13.6688    -0.2010 N.ar    
  24 C24            1.4733    13.8388    -1.1218 C.ar    
  25 C25            0.2939    14.4113    -0.6795 C.ar    
  26 H26           -0.8586    -0.5529     0.1371 H       
  27 H27            1.2820    -1.7677     0.1752 H       
  28 H28            3.4126    -0.4904     0.1917 H       
  29 H29            3.3151     1.9914     0.1690 H       
  30 H30           -2.2865     5.3967     0.0768 H       
  31 H31            2.0021     5.6223     0.1207 H       
  32 H32            1.8702     8.0745     0.0974 H       
  33 H33           -4.7109     7.7686     0.0375 H       
  34 H34           -3.8024     6.5104    -0.8343 H       
  35 H35           -3.8162     6.5264     0.9456 H       
  36 H36           -1.1279     9.9621     0.4068 H       
  37 H37            2.5361    11.9923    -1.3933 H       
  38 H38           -1.4126    11.7843     0.2801 H       
  39 H39            2.2663    14.4576    -1.5152 H       
  40 H40            0.1719    15.4831    -0.7306 H       
@<TRIPOS>BOND
   1    1    2 ar
   2    1    6 ar
   3    2    3 ar
   4    2   26 1
   5    3    4 ar
   6    3   27 1
   7    4    5 ar
   8    4   28 1
   9    5    6 ar
  10    5   29 1
  11    6    7 1
  12    7    8 2
  13    8    9 1
  14    9   12 ar
  15    9   11 ar
  16   10   11 ar
  17   10   14 ar
  18   10   15 1
  19   11   30 1
  20   12   13 ar
  21   12   31 1
  22   13   14 ar
  23   13   32 1
  24   14   17 1
  25   15   16 1
  26   16   33 1
  27   16   34 1
  28   16   35 1
  29   17   18 am
  30   17   36 1
  31   18   19 2
  32   18   20 1
  33   20   21 ar
  34   20   22 ar
  35   21   24 ar
  36   21   37 1
  37   22   23 ar
  38   22   38 1
  39   23   25 ar
  40   24   25 ar
  41   24   39 1
  42   25   40 1

#	End of record

