#	Name: ASD08830072
#	Creating user name:	WinNT
#	Creation time:	15. 06. 2019 21:19

#	Modifying user name:	WinNT
#	Modification time:	15. 06. 2019 21:19

#	Program:	/corina/corina34_cracker 3.40 0067  02.08.2006

@<TRIPOS>MOLECULE
ASD08830072
  38   40    0    0    0
SMALL
NO_CHARGES


@<TRIPOS>ATOM
   1 C1            -0.0179     1.4663     0.0101 C.ar    
   2 C2             0.0021    -0.0041     0.0020 C.2     
   3 C3            -1.2926    -0.7753     0.0102 C.3     
   4 C4            -0.9927    -2.2755    -0.0007 C.3     
   5 N5            -2.2547    -3.0273     0.0073 N.3     
   6 O6             1.0604    -0.5961    -0.0113 O.2     
   7 C7            -2.0181    -4.4568    -0.2410 C.3     
   8 C8            -3.3490    -5.2097    -0.1649 C.3     
   9 O9            -4.2665    -4.6418    -1.1035 O.3     
  10 C10           -4.5205    -3.2506    -0.8906 C.3     
  11 C11           -3.2015    -2.4779    -0.9741 C.3     
  12 C12            1.1754     2.1855     0.0026 C.ar    
  13 C13            1.0987     3.5881     0.0109 C.ar    
  14 C14           -0.1756     4.2106     0.0264 C.ar    
  15 N15           -1.2887     3.4668     0.0335 N.ar    
  16 C16           -1.2435     2.1603     0.0197 C.ar    
  17 C17            2.2592     4.3807     0.0046 C.ar    
  18 C18            2.1473     5.7379     0.0134 C.ar    
  19 C19            0.8967     6.3509     0.0290 C.ar    
  20 C20           -0.2482     5.6132     0.0346 C.ar    
  21 H21           -1.8592    -0.5245     0.9070 H       
  22 H22           -1.8762    -0.5150    -0.8728 H       
  23 H23           -0.4261    -2.5263    -0.8975 H       
  24 H24           -0.4091    -2.5358     0.8824 H       
  25 H25           -1.5824    -4.5869    -1.2316 H       
  26 H26           -1.3346    -4.8488     0.5123 H       
  27 H27           -3.1869    -6.2606    -0.4046 H       
  28 H28           -3.7584    -5.1242     0.8417 H       
  29 H29           -5.2057    -2.8846    -1.6552 H       
  30 H30           -4.9640    -3.1082     0.0948 H       
  31 H31           -3.3819    -1.4252    -0.7560 H       
  32 H32           -2.7847    -2.5763    -1.9764 H       
  33 H33            2.1299     1.6803    -0.0089 H       
  34 H34           -2.1670     1.6003     0.0261 H       
  35 H35            3.2341     3.9162    -0.0068 H       
  36 H36            3.0395     6.3465     0.0086 H       
  37 H37            0.8338     7.4290     0.0361 H       
  38 H38           -1.2094     6.1055     0.0464 H       
@<TRIPOS>BOND
   1    1    2 1
   2    1   12 ar
   3    1   16 ar
   4    2    3 1
   5    2    6 2
   6    3    4 1
   7    3   21 1
   8    3   22 1
   9    4    5 1
  10    4   23 1
  11    4   24 1
  12    5    7 1
  13    5   11 1
  14    7    8 1
  15    7   25 1
  16    7   26 1
  17    8    9 1
  18    8   27 1
  19    8   28 1
  20    9   10 1
  21   10   11 1
  22   10   29 1
  23   10   30 1
  24   11   31 1
  25   11   32 1
  26   12   13 ar
  27   12   33 1
  28   13   14 ar
  29   13   17 ar
  30   14   15 ar
  31   14   20 ar
  32   15   16 ar
  33   16   34 1
  34   17   18 ar
  35   17   35 1
  36   18   19 ar
  37   18   36 1
  38   19   20 ar
  39   19   37 1
  40   20   38 1

#	End of record

