#	Name: ASD01209108
#	Creating user name:	WinNT
#	Creation time:	15. 06. 2019 19:11

#	Modifying user name:	WinNT
#	Modification time:	15. 06. 2019 19:11

#	Program:	/corina/corina34_cracker 3.40 0067  02.08.2006

@<TRIPOS>MOLECULE
ASD01209108
  75   77    0    0    0
SMALL
NO_CHARGES


@<TRIPOS>ATOM
   1 C1             0.4511     1.3439     0.3059 C.ar    
   2 C2             1.8292     1.8654     0.4255 C.2     
   3 N3             2.0449     3.1949     0.4734 N.am    
   4 O4             2.7679     1.0950     0.4806 O.2     
   5 C5             0.2257    -0.0320     0.2561 C.ar    
   6 C6            -1.0673    -0.5165     0.1439 C.ar    
   7 C7            -2.1370     0.3642     0.0806 C.ar    
   8 C8            -1.9174     1.7336     0.1298 C.ar    
   9 C9            -0.6283     2.2263     0.2482 C.ar    
  10 C10            3.3298     3.6845     0.6967 C.ar    
  11 P11            7.4639     1.8373    -0.0634 P.3     
  12 O12            6.4438     1.2653    -0.9704 O.2     
  13 O13           -2.9689     2.5921     0.0669 O.3     
  14 C14           -3.1809     3.2569    -1.0991 C.ar    
  15 C15           -4.1726     4.2242    -1.1773 C.ar    
  16 C16           -2.4023     2.9735    -2.2121 C.ar    
  17 C17           -2.6200     3.6507    -3.3963 C.ar    
  18 C18           -3.6123     4.6105    -3.4730 C.ar    
  19 C19           -4.3861     4.8985    -2.3638 C.ar    
  20 S20           -3.8869     5.4728    -4.9848 S.o2    
  21 O21           -2.6310     5.4262    -5.6479 O.2     
  22 C22           -5.1098     4.4634    -5.8660 C.3     
  23 O23           -4.4580     6.7105    -4.5835 O.2     
  24 O24           -1.2879    -1.8567     0.0954 O.3     
  25 C25           -2.6494    -2.2906     0.0995 C.3     
  26 C26           -2.7294    -3.7141     0.6545 C.3     
  27 C27           -3.1959    -2.2690    -1.3295 C.3     
  28 C28            3.5750     5.0541     0.6382 C.ar    
  29 N29            4.7934     5.5139     0.8508 N.ar    
  30 C30            5.7806     4.6758     1.1191 C.ar    
  31 C31            5.5408     3.3159     1.1780 C.ar    
  32 N32            4.3217     2.8480     0.9711 N.ar    
  33 C33            6.6685     2.3659     1.4893 C.3     
  34 O34            8.5812     0.7235     0.2580 O.3     
  35 C35            9.3092     0.0348    -0.7606 C.3     
  36 C36           10.2854    -0.9494    -0.1130 C.3     
  37 O37            8.1588     3.1063    -0.7696 O.3     
  38 C38            8.7766     3.0394    -2.0564 C.3     
  39 C39            9.3345     4.4152    -2.4265 C.3     
  40 O40           -2.0501    -4.6087    -0.2289 O.3     
  41 C41           -2.0656    -5.9719     0.1995 C.3     
  42 H42            1.3054     3.8108     0.3524 H       
  43 H43            1.0580    -0.7185     0.3046 H       
  44 H44           -3.1437    -0.0169    -0.0075 H       
  45 H45           -0.4582     3.2922     0.2867 H       
  46 H46           -4.7773     4.4495    -0.3112 H       
  47 H47           -1.6266     2.2244    -2.1526 H       
  48 H48           -2.0142     3.4305    -4.2629 H       
  49 H49           -5.1609     5.6483    -2.4264 H       
  50 H50           -6.0186     4.3900    -5.2686 H       
  51 H51           -5.3416     4.9280    -6.8244 H       
  52 H52           -4.7041     3.4659    -6.0344 H       
  53 H53           -3.2417    -1.6229     0.7251 H       
  54 H54           -2.2596    -3.7477     1.6375 H       
  55 H55           -3.7742    -4.0123     0.7408 H       
  56 H56           -4.2344    -2.6000    -1.3264 H       
  57 H57           -3.1389    -1.2549    -1.7249 H       
  58 H58           -2.6036    -2.9367    -1.9551 H       
  59 H59            2.7692     5.7388     0.4187 H       
  60 H60            6.7769     5.0550     1.2923 H       
  61 H61            6.2751     1.4937     2.0114 H       
  62 H62            7.4019     2.8672     2.1210 H       
  63 H63            8.6137    -0.5103    -1.3989 H       
  64 H64            9.8646     0.7555    -1.3608 H       
  65 H65           10.8407    -1.4747    -0.8900 H       
  66 H66           10.9809    -0.4043     0.5252 H       
  67 H67            9.7301    -1.6701     0.4872 H       
  68 H68            9.5885     2.3126    -2.0323 H       
  69 H69            8.0384     2.7350    -2.7984 H       
  70 H70            9.8057     4.3641    -3.4081 H       
  71 H71            8.5225     5.1420    -2.4507 H       
  72 H72           10.0726     4.7195    -1.6845 H       
  73 H73           -1.5820    -6.0523     1.1731 H       
  74 H74           -3.0967    -6.3169     0.2764 H       
  75 H75           -1.5299    -6.5863    -0.5241 H       
@<TRIPOS>BOND
   1    1    5 ar
   2    1    2 1
   3    1    9 ar
   4    2    3 am
   5    2    4 2
   6    3   10 1
   7    3   42 1
   8    5    6 ar
   9    5   43 1
  10    6    7 ar
  11    6   24 1
  12    7    8 ar
  13    7   44 1
  14    8    9 ar
  15    8   13 1
  16    9   45 1
  17   10   28 ar
  18   10   32 ar
  19   11   12 2
  20   11   33 1
  21   11   34 1
  22   11   37 1
  23   13   14 1
  24   14   15 ar
  25   14   16 ar
  26   15   19 ar
  27   15   46 1
  28   16   17 ar
  29   16   47 1
  30   17   18 ar
  31   17   48 1
  32   18   19 ar
  33   18   20 1
  34   19   49 1
  35   20   21 2
  36   20   22 1
  37   20   23 2
  38   22   50 1
  39   22   51 1
  40   22   52 1
  41   24   25 1
  42   25   26 1
  43   25   27 1
  44   25   53 1
  45   26   40 1
  46   26   54 1
  47   26   55 1
  48   27   56 1
  49   27   57 1
  50   27   58 1
  51   28   29 ar
  52   28   59 1
  53   29   30 ar
  54   30   31 ar
  55   30   60 1
  56   31   32 ar
  57   31   33 1
  58   33   61 1
  59   33   62 1
  60   34   35 1
  61   35   36 1
  62   35   63 1
  63   35   64 1
  64   36   65 1
  65   36   66 1
  66   36   67 1
  67   37   38 1
  68   38   39 1
  69   38   68 1
  70   38   69 1
  71   39   70 1
  72   39   71 1
  73   39   72 1
  74   40   41 1
  75   41   73 1
  76   41   74 1
  77   41   75 1

#	End of record

