#	Name: ASD01028071
#	Creating user name:	WinNT
#	Creation time:	15. 06. 2019 18:56

#	Modifying user name:	WinNT
#	Modification time:	15. 06. 2019 18:56

#	Program:	/corina/corina34_cracker 3.40 0067  02.08.2006

@<TRIPOS>MOLECULE
ASD01028071
  62   66    0    0    0
SMALL
NO_CHARGES


@<TRIPOS>ATOM
   1 C1            -0.1196     1.1839     0.1485 C.3     
   2 C2            -0.2128    -0.3363     0.3023 C.3     
   3 C3            -1.0380    -0.6728     1.5443 C.3     
   4 C4             1.7704     1.7946     1.5297 C.3     
   5 N5             1.2919     1.5931     0.1542 N.3     
   6 N6             3.7951     2.2353     2.8476 N.3     
   7 N7             2.5902    -1.0727     4.5184 N.pl3   
   8 C8             3.7449    -0.5109     5.1027 C.ar    
   9 C9             4.0145     0.8235     4.8223 C.ar    
  10 C10            3.0622     1.6029     3.9495 C.3     
  11 C11            4.5957    -1.2436     5.9108 C.ar    
  12 C12            5.7278    -0.6337     6.4392 C.ar    
  13 C13            6.0001     0.6982     6.1522 C.ar    
  14 C14            5.1484     1.4191     5.3348 C.ar    
  15 O15           -1.3038    -2.0762     1.5974 O.3     
  16 C16           -0.6457    -2.7869     2.5523 C.ar    
  17 C17            0.4321    -2.2156     3.1744 C.ar    
  18 C18            1.1241    -2.9384     4.1530 C.ar    
  19 C19            2.2429    -2.3831     4.8299 C.ar    
  20 N20            2.8750    -3.1232     5.7153 N.ar    
  21 O21            4.5455    -2.5355     6.3404 O.3     
  22 C22            5.6865    -2.7616     7.1744 C.3     
  23 O23            6.4120    -1.5289     7.2035 O.3     
  24 C24           -1.0703    -4.0749     2.9029 C.ar    
  25 C25           -0.4002    -4.8048     3.8623 C.ar    
  26 C26            0.7180    -4.2503     4.4949 C.ar    
  27 N27            1.4313    -4.9178     5.4153 N.ar    
  28 C28            2.4693    -4.3567     5.9903 C.ar    
  29 C29            5.2396     1.9995     2.9722 C.3     
  30 C30            3.2996     1.7851     1.5420 C.3     
  31 O31           -2.1564    -4.6127     2.2892 O.3     
  32 C32            2.1265     0.6145    -0.5555 C.3     
  33 C33           -2.5415    -5.9296     2.6886 C.3     
  34 H34           -0.5804     1.4824    -0.7931 H       
  35 H35           -0.6406     1.6652     0.9761 H       
  36 H36           -0.6925    -0.7620    -0.5790 H       
  37 H37            0.7889    -0.7530     0.4078 H       
  38 H38           -0.4856    -0.3761     2.4359 H       
  39 H39           -1.9814    -0.1279     1.5093 H       
  40 H40            1.4098     2.7530     1.9033 H       
  41 H41            1.3967     0.9923     2.1658 H       
  42 H42            2.0455    -0.5519     3.9077 H       
  43 H43            2.5717     2.3720     4.5462 H       
  44 H44            2.3092     0.9278     3.5429 H       
  45 H45            6.8776     1.1712     6.5679 H       
  46 H46            5.3712     2.4489     5.0977 H       
  47 H47            0.7457    -1.2160     2.9119 H       
  48 H48            5.3671    -3.0322     8.1809 H       
  49 H49            6.3076    -3.5521     6.7533 H       
  50 H50           -0.7363    -5.7974     4.1235 H       
  51 H51            3.0211    -4.9273     6.7226 H       
  52 H52            5.7172     2.1497     2.0040 H       
  53 H53            5.6603     2.6966     3.6969 H       
  54 H54            5.4132     0.9772     3.3083 H       
  55 H55            3.6564     0.7734     1.3491 H       
  56 H56            3.6716     2.4522     0.7644 H       
  57 H57            2.2602    -0.2693     0.0682 H       
  58 H58            1.6398     0.3306    -1.4886 H       
  59 H59            3.0990     1.0562    -0.7729 H       
  60 H60           -1.7226    -6.6222     2.4944 H       
  61 H61           -2.7752    -5.9326     3.7533 H       
  62 H62           -3.4205    -6.2384     2.1228 H       
@<TRIPOS>BOND
   1    1    2 1
   2    1    5 1
   3    1   34 1
   4    1   35 1
   5    2    3 1
   6    2   36 1
   7    2   37 1
   8    3   15 1
   9    3   38 1
  10    3   39 1
  11    4    5 1
  12    4   30 1
  13    4   40 1
  14    4   41 1
  15    5   32 1
  16    6   29 1
  17    6   30 1
  18    6   10 1
  19    7    8 1
  20    7   19 1
  21    7   42 1
  22    8    9 ar
  23    8   11 ar
  24    9   10 1
  25    9   14 ar
  26   10   43 1
  27   10   44 1
  28   11   12 ar
  29   11   21 1
  30   12   13 ar
  31   12   23 1
  32   13   14 ar
  33   13   45 1
  34   14   46 1
  35   15   16 1
  36   16   17 ar
  37   16   24 ar
  38   17   18 ar
  39   17   47 1
  40   18   19 ar
  41   18   26 ar
  42   19   20 ar
  43   20   28 ar
  44   21   22 1
  45   22   23 1
  46   22   48 1
  47   22   49 1
  48   24   25 ar
  49   24   31 1
  50   25   26 ar
  51   25   50 1
  52   26   27 ar
  53   27   28 ar
  54   28   51 1
  55   29   52 1
  56   29   53 1
  57   29   54 1
  58   30   55 1
  59   30   56 1
  60   31   33 1
  61   32   57 1
  62   32   58 1
  63   32   59 1
  64   33   60 1
  65   33   61 1
  66   33   62 1

#	End of record

