#	Name: ASD03330690
#	Creating user name:	WinNT
#	Creation time:	15. 06. 2019 20:37

#	Modifying user name:	WinNT
#	Modification time:	15. 06. 2019 20:37

#	Program:	/corina/corina34_cracker 3.40 0067  02.08.2006

@<TRIPOS>MOLECULE
ASD03330690
  74   77    0    0    0
SMALL
NO_CHARGES


@<TRIPOS>ATOM
   1 C1            -0.3136     1.1920     0.9533 C.2     
   2 N2            -0.3468    -0.1382     1.2033 N.pl3   
   3 C3             0.9944     1.5721     0.9716 C.2     
   4 N4             1.7395     0.4717     1.2138 N.2     
   5 C5             0.9420    -0.5617     1.3486 C.2     
   6 C6             1.3689    -1.9531     1.6146 C.ar    
   7 C7             1.5051     2.9387     0.7636 C.2     
   8 O8             0.7302     3.8518     0.5517 O.2     
   9 C9             3.3387     4.5352     0.6013 C.3     
  10 N10            2.8310     3.1767     0.8082 N.am    
  11 C11            3.4900     4.8004    -0.8979 C.3     
  12 C12            2.1106     4.7885    -1.5597 C.3     
  13 C13            4.1459     6.1662    -1.1106 C.3     
  14 C14            4.6793     4.6784     1.2747 C.2     
  15 N15            5.2152     5.9018     1.4557 N.am    
  16 O16            5.2759     3.6929     1.6536 O.2     
  17 C17           -1.5600    -0.9535     1.3090 C.3     
  18 C18           -2.4855    -0.6331     0.1312 C.3     
  19 C19           -3.3847     0.5462     0.4884 C.3     
  20 N20           -2.6861     1.4947     1.3584 N.3     
  21 C21           -1.5102     2.0683     0.6875 C.3     
  22 C22            2.6113    -2.4025     1.1663 C.ar    
  23 C23            0.5333    -2.8196     2.3199 C.ar    
  24 C24            0.9372    -4.1160     2.5647 C.ar    
  25 C25            2.1681    -4.5571     2.1128 C.ar    
  26 C26            3.0036    -3.7012     1.4175 C.ar    
  27 C27           -3.5951     2.5513     1.8224 C.3     
  28 C28            6.5497     6.0369     2.0447 C.3     
  29 C29            4.3648     3.7117    -1.5226 C.3     
  30 C30            6.9180     7.5190     2.1386 C.3     
  31 C31            8.2572     7.6691     2.8669 C.3     
  32 C32            7.0472     8.1052     0.7294 C.3     
  33 C33            7.4923     9.5664     0.8318 C.3     
  34 O34            8.7277     9.6377     1.5465 O.3     
  35 C35            8.6556     9.1471     2.8867 C.3     
  36 H36            2.6389     5.2536     1.0286 H       
  37 H37            3.4490     2.4484     0.9772 H       
  38 H38            1.4874     5.5641    -1.1146 H       
  39 H39            2.2184     4.9774    -2.6278 H       
  40 H40            1.6433     3.8155    -1.4082 H       
  41 H41            5.1064     6.1921    -0.5959 H       
  42 H42            4.3003     6.3331    -2.1766 H       
  43 H43            3.4983     6.9465    -0.7107 H       
  44 H44            4.7173     6.6927     1.1960 H       
  45 H45           -1.2923    -2.0098     1.2850 H       
  46 H46           -2.0704    -0.7273     2.2452 H       
  47 H47           -1.8855    -0.3799    -0.7429 H       
  48 H48           -3.1016    -1.5039    -0.0930 H       
  49 H49           -3.6872     1.0556    -0.4265 H       
  50 H50           -4.2725     0.1767     1.0016 H       
  51 H51           -1.3219     3.0695     1.0751 H       
  52 H52           -1.6925     2.1204    -0.3859 H       
  53 H53            3.2644    -1.7353     0.6234 H       
  54 H54           -0.4276    -2.4762     2.6737 H       
  55 H55            0.2912    -4.7877     3.1105 H       
  56 H56            2.4801    -5.5725     2.3075 H       
  57 H57            3.9632    -4.0516     1.0670 H       
  58 H58           -4.4169     2.1040     2.3816 H       
  59 H59           -3.0508     3.2419     2.4665 H       
  60 H60           -3.9921     3.0921     0.9633 H       
  61 H61            6.5527     5.5979     3.0423 H       
  62 H62            7.2773     5.5208     1.4184 H       
  63 H63            3.8975     2.7387    -1.3711 H       
  64 H64            4.4727     3.9006    -2.5907 H       
  65 H65            5.3475     3.7202    -1.0511 H       
  66 H66            6.1426     8.0533     2.6875 H       
  67 H67            8.1586     7.3046     3.8894 H       
  68 H68            9.0217     7.0927     2.3459 H       
  69 H69            7.7873     7.5376     0.1652 H       
  70 H70            6.0833     8.0527     0.2232 H       
  71 H71            7.6273     9.9763    -0.1692 H       
  72 H72            6.7326    10.1416     1.3609 H       
  73 H73            7.9110     9.7168     3.4428 H       
  74 H74            9.6285     9.2549     3.3662 H       
@<TRIPOS>BOND
   1    1    2 1
   2    1    3 2
   3    1   21 1
   4    2   17 1
   5    2    5 1
   6    3    4 1
   7    3    7 1
   8    4    5 2
   9    5    6 1
  10    6   22 ar
  11    6   23 ar
  12    7    8 2
  13    7   10 am
  14    9   10 1
  15    9   11 1
  16    9   14 1
  17    9   36 1
  18   10   37 1
  19   11   12 1
  20   11   13 1
  21   11   29 1
  22   12   38 1
  23   12   39 1
  24   12   40 1
  25   13   41 1
  26   13   42 1
  27   13   43 1
  28   14   15 am
  29   14   16 2
  30   15   28 1
  31   15   44 1
  32   17   18 1
  33   17   45 1
  34   17   46 1
  35   18   19 1
  36   18   47 1
  37   18   48 1
  38   19   20 1
  39   19   49 1
  40   19   50 1
  41   20   21 1
  42   20   27 1
  43   21   51 1
  44   21   52 1
  45   22   26 ar
  46   22   53 1
  47   23   24 ar
  48   23   54 1
  49   24   25 ar
  50   24   55 1
  51   25   26 ar
  52   25   56 1
  53   26   57 1
  54   27   58 1
  55   27   59 1
  56   27   60 1
  57   28   30 1
  58   28   61 1
  59   28   62 1
  60   29   63 1
  61   29   64 1
  62   29   65 1
  63   30   31 1
  64   30   32 1
  65   30   66 1
  66   31   35 1
  67   31   67 1
  68   31   68 1
  69   32   33 1
  70   32   69 1
  71   32   70 1
  72   33   34 1
  73   33   71 1
  74   33   72 1
  75   34   35 1
  76   35   73 1
  77   35   74 1

#	End of record

