#	Name: ASD03730711
#	Creating user name:	WinNT
#	Creation time:	15. 06. 2019 20:44

#	Modifying user name:	WinNT
#	Modification time:	15. 06. 2019 20:44

#	Program:	/corina/corina34_cracker 3.40 0067  02.08.2006

@<TRIPOS>MOLECULE
ASD03730711
  62   68    0    0    0
SMALL
NO_CHARGES


@<TRIPOS>ATOM
   1 C1             1.3683    -1.2042    -2.4895 C.2     
   2 C2             0.4775    -1.1516    -1.3110 C.ar    
   3 C3             0.7387    -0.2538    -0.2743 C.ar    
   4 C4            -0.0965    -0.2099     0.8226 C.ar    
   5 C5            -1.1912    -1.0532     0.8968 C.ar    
   6 C6            -1.4556    -1.9452    -0.1270 C.ar    
   7 C7            -0.6315    -1.9953    -1.2325 C.ar    
   8 O8             2.3103    -0.4406    -2.5739 O.2     
   9 N9             1.1393    -2.1025    -3.4677 N.am    
  10 C10            1.9306     0.6649    -0.3532 C.3     
  11 O11            0.1263    -0.7025     6.4707 O.3     
  12 C12            0.0869    -0.3746     7.8722 C.3     
  13 O13            1.3739     0.2209     8.1207 O.3     
  14 C14            1.7658     0.7565     6.9272 C.ar    
  15 C15            0.9989     0.1875     5.9129 C.ar    
  16 C16            2.7298     1.6996     6.6192 C.ar    
  17 C17            2.9425     2.0853     5.2991 C.ar    
  18 C18            2.1759     1.5038     4.2938 C.ar    
  19 C19            1.2097     0.5678     4.5982 C.ar    
  20 O20            3.8178     2.9978     4.7877 O.3     
  21 C21            2.6527     2.0955     2.9944 C.3     
  22 C22            3.9829     2.7588     3.3767 C.3     
  23 N23            2.0474     1.4217     0.8958 N.am    
  24 C24            2.8327     1.0539     1.9279 C.2     
  25 C25            1.6781     3.0834     2.4251 C.ar    
  26 C26            1.1153     4.2467     2.9007 C.ar    
  27 C27            0.2245     4.9569     2.1157 C.ar    
  28 C28           -0.0998     4.4952     0.8529 C.ar    
  29 C29            0.4605     3.3300     0.3725 C.ar    
  30 C30            1.3585     2.6089     1.1556 C.ar    
  31 O31            3.5452     0.0739     1.9839 O.2     
  32 C32            1.8651    -2.0368    -4.6613 C.ar    
  33 C33            1.3537    -2.6088    -5.8193 C.ar    
  34 C34            2.0729    -2.5422    -6.9962 C.ar    
  35 C35            3.3014    -1.9073    -7.0227 C.ar    
  36 C36            3.8132    -1.3371    -5.8718 C.ar    
  37 C37            3.0960    -1.3948    -4.6927 C.ar    
  38 C38            1.5189    -3.1623    -8.2530 C.3     
  39 H39            0.1046     0.4839     1.6255 H       
  40 H40           -1.8418    -1.0150     1.7580 H       
  41 H41           -2.3116    -2.6006    -0.0630 H       
  42 H42           -0.8418    -2.6888    -2.0333 H       
  43 H43            0.4710    -2.7946    -3.3439 H       
  44 H44            2.8344     0.0752    -0.5065 H       
  45 H45            1.8021     1.3561    -1.1861 H       
  46 H46           -0.7112     0.3393     8.0762 H       
  47 H47           -0.0408    -1.2752     8.4727 H       
  48 H48            3.3214     2.1394     7.4085 H       
  49 H49            0.6163     0.1300     3.8091 H       
  50 H50            4.1165     3.6970     2.8381 H       
  51 H51            4.8188     2.0836     3.1936 H       
  52 H52            1.3698     4.6052     3.8871 H       
  53 H53           -0.2164     5.8698     2.4880 H       
  54 H54           -0.7953     5.0496     0.2402 H       
  55 H55            0.2020     2.9756    -0.6144 H       
  56 H56            0.3948    -3.1052    -5.7992 H       
  57 H57            3.8623    -1.8572    -7.9443 H       
  58 H58            4.7730    -0.8424    -5.8958 H       
  59 H59            3.4942    -0.9449    -3.7952 H       
  60 H60            0.9216    -2.4249    -8.7892 H       
  61 H61            2.3409    -3.4946    -8.8870 H       
  62 H62            0.8935    -4.0160    -7.9918 H       
@<TRIPOS>BOND
   1    1    2 1
   2    1    8 2
   3    1    9 am
   4    2    3 ar
   5    2    7 ar
   6    3    4 ar
   7    3   10 1
   8    4    5 ar
   9    4   39 1
  10    5    6 ar
  11    5   40 1
  12    6    7 ar
  13    6   41 1
  14    7   42 1
  15    9   32 1
  16    9   43 1
  17   10   23 1
  18   10   44 1
  19   10   45 1
  20   11   12 1
  21   11   15 1
  22   12   13 1
  23   12   46 1
  24   12   47 1
  25   13   14 1
  26   14   15 ar
  27   14   16 ar
  28   15   19 ar
  29   16   17 ar
  30   16   48 1
  31   17   18 ar
  32   17   20 1
  33   18   19 ar
  34   18   21 1
  35   19   49 1
  36   20   22 1
  37   21   22 1
  38   21   24 1
  39   21   25 1
  40   22   50 1
  41   22   51 1
  42   23   24 am
  43   23   30 1
  44   24   31 2
  45   25   26 ar
  46   25   30 ar
  47   26   27 ar
  48   26   52 1
  49   27   28 ar
  50   27   53 1
  51   28   29 ar
  52   28   54 1
  53   29   30 ar
  54   29   55 1
  55   32   33 ar
  56   32   37 ar
  57   33   34 ar
  58   33   56 1
  59   34   35 ar
  60   34   38 1
  61   35   36 ar
  62   35   57 1
  63   36   37 ar
  64   36   58 1
  65   37   59 1
  66   38   60 1
  67   38   61 1
  68   38   62 1

#	End of record

