#	Name: ASD04591089
#	Creating user name:	WinNT
#	Creation time:	15. 06. 2019 20:52

#	Modifying user name:	WinNT
#	Modification time:	15. 06. 2019 20:52

#	Program:	/corina/corina34_cracker 3.40 0067  02.08.2006

@<TRIPOS>MOLECULE
ASD04591089
  74   80    0    0    0
SMALL
NO_CHARGES


@<TRIPOS>ATOM
   1 N1            -2.3782    -2.7058     0.0204 N.ar    
   2 C2            -1.2117    -2.0738     0.0040 C.ar    
   3 N3            -0.0573    -2.7202    -0.0182 N.ar    
   4 C4            -0.0259    -4.0495    -0.0245 C.ar    
   5 C5            -1.2486    -4.7504    -0.0070 C.ar    
   6 C6            -2.4370    -4.0273     0.0156 C.ar    
   7 N7             0.9980    -4.9638    -0.0457 N.pl3   
   8 C8             0.4950    -6.2534    -0.0428 C.ar    
   9 C9            -0.9092    -6.1791    -0.0189 C.ar    
  10 C10            1.0915    -7.5075    -0.0583 C.ar    
  11 N11            0.3552    -8.6000    -0.0506 N.ar    
  12 C12           -0.9655    -8.5647    -0.0283 C.ar    
  13 C13           -1.6436    -7.3644    -0.0113 C.ar    
  14 N14           -1.2019    -0.6887     0.0098 N.pl3   
  15 C15           -2.4013     0.0175    -0.0802 C.ar    
  16 N16           -3.5340    -0.6390    -0.2721 N.ar    
  17 C17           -4.6918    -0.0124    -0.3634 C.ar    
  18 C18           -4.7605     1.3688    -0.2608 C.ar    
  19 C19           -3.5874     2.0945    -0.0583 C.ar    
  20 C20           -2.3937     1.4030     0.0384 C.ar    
  21 N21           -5.9924     2.0264    -0.3597 N.3     
  22 C22            2.4226    -4.6227    -0.0686 C.3     
  23 C23           -6.2398     2.8610     0.8230 C.3     
  24 C24            2.7454    -3.7914    -1.3225 C.3     
  25 C25            3.2821    -2.4334    -0.8249 C.3     
  26 C26            3.8153    -2.7341     0.5979 C.3     
  27 C27            2.7744    -3.7409     1.1474 C.3     
  28 C28           -7.0849     1.0682    -0.5713 C.3     
  29 C29           -8.3902     1.8275    -0.8194 C.3     
  30 C30           -8.6944     2.7182     0.3884 C.3     
  31 C31           -7.5200     3.6738     0.6165 C.3     
  32 N32           -9.9154     3.4934     0.1316 N.3     
  33 C33           -9.7945     4.2702    -1.1087 C.3     
  34 C34          -10.2377     4.3607     1.2719 C.3     
  35 C35          -11.5873     5.0411     1.0316 C.3     
  36 C36          -11.5154     5.8658    -0.2565 C.3     
  37 C37          -11.1309     4.9479    -1.4201 C.3     
  38 O38          -12.7898     6.4578    -0.5162 O.3     
  39 H39           -3.3898    -4.5356     0.0290 H       
  40 H40            2.1683    -7.5879    -0.0770 H       
  41 H41           -1.5222    -9.4902    -0.0233 H       
  42 H42           -2.7232    -7.3426     0.0072 H       
  43 H43           -0.3610    -0.2099     0.0765 H       
  44 H44           -5.5960    -0.5817    -0.5203 H       
  45 H45           -3.6110     3.1710     0.0253 H       
  46 H46           -1.4660     1.9332     0.1955 H       
  47 H47            3.0241    -5.5316    -0.0581 H       
  48 H48           -6.3517     2.2238     1.7002 H       
  49 H49           -5.3992     3.5388     0.9714 H       
  50 H50            3.5042    -4.2965    -1.9202 H       
  51 H51            1.8422    -3.6418    -1.9141 H       
  52 H52            4.0891    -2.0831    -1.4685 H       
  53 H53            2.4790    -1.6977    -0.7837 H       
  54 H54            4.8050    -3.1884     0.5516 H       
  55 H55            3.8331    -1.8278     1.2033 H       
  56 H56            1.8892    -3.2163     1.5070 H       
  57 H57            3.2107    -4.3447     1.9430 H       
  58 H58           -6.8580     0.4439    -1.4356 H       
  59 H59           -7.1928     0.4394     0.3124 H       
  60 H60           -8.2876     2.4461    -1.7110 H       
  61 H61           -9.2038     1.1161    -0.9610 H       
  62 H62           -8.8355     2.0969     1.2728 H       
  63 H63           -7.7118     4.2815     1.5008 H       
  64 H64           -7.4037     4.3214    -0.2525 H       
  65 H65           -9.0218     5.0293    -0.9880 H       
  66 H66           -9.5249     3.6049    -1.9290 H       
  67 H67          -10.2899     3.7612     2.1808 H       
  68 H68           -9.4629     5.1194     1.3816 H       
  69 H69          -12.3649     4.2833     0.9357 H       
  70 H70          -11.8189     5.6967     1.8711 H       
  71 H71          -10.7648     6.6485    -0.1465 H       
  72 H72          -11.0364     5.5369    -2.3324 H       
  73 H73          -11.9013     4.1886    -1.5546 H       
  74 H74          -12.8173     6.9958    -1.3193 H       
@<TRIPOS>BOND
   1    1    2 ar
   2    1    6 ar
   3    2    3 ar
   4    2   14 1
   5    3    4 ar
   6    4    5 ar
   7    4    7 1
   8    5    6 ar
   9    5    9 1
  10    6   39 1
  11    7    8 1
  12    7   22 1
  13    8    9 ar
  14    8   10 ar
  15    9   13 ar
  16   10   11 ar
  17   10   40 1
  18   11   12 ar
  19   12   13 ar
  20   12   41 1
  21   13   42 1
  22   14   15 1
  23   14   43 1
  24   15   16 ar
  25   15   20 ar
  26   16   17 ar
  27   17   18 ar
  28   17   44 1
  29   18   19 ar
  30   18   21 1
  31   19   20 ar
  32   19   45 1
  33   20   46 1
  34   21   28 1
  35   21   23 1
  36   22   24 1
  37   22   27 1
  38   22   47 1
  39   23   31 1
  40   23   48 1
  41   23   49 1
  42   24   25 1
  43   24   50 1
  44   24   51 1
  45   25   26 1
  46   25   52 1
  47   25   53 1
  48   26   27 1
  49   26   54 1
  50   26   55 1
  51   27   56 1
  52   27   57 1
  53   28   29 1
  54   28   58 1
  55   28   59 1
  56   29   30 1
  57   29   60 1
  58   29   61 1
  59   30   31 1
  60   30   32 1
  61   30   62 1
  62   31   63 1
  63   31   64 1
  64   32   34 1
  65   32   33 1
  66   33   37 1
  67   33   65 1
  68   33   66 1
  69   34   35 1
  70   34   67 1
  71   34   68 1
  72   35   36 1
  73   35   69 1
  74   35   70 1
  75   36   37 1
  76   36   38 1
  77   36   71 1
  78   37   72 1
  79   37   73 1
  80   38   74 1

#	End of record

