#	Name: ASD03240994
#	Creating user name:	WinNT
#	Creation time:	15. 06. 2019 20:35

#	Modifying user name:	WinNT
#	Modification time:	15. 06. 2019 20:35

#	Program:	/corina/corina34_cracker 3.40 0067  02.08.2006

@<TRIPOS>MOLECULE
ASD03240994
  67   73    0    0    0
SMALL
NO_CHARGES


@<TRIPOS>ATOM
   1 C1             0.4813     1.8606    -0.4162 C.3     
   2 C2             0.4097     0.3245    -0.4069 C.3     
   3 C3             1.8298     0.3332    -0.9969 C.3     
   4 C4             2.0099     1.7115    -0.3391 C.3     
   5 O5             0.0242     2.4476    -1.6363 O.3     
   6 C6             2.7285    -0.7317    -0.4228 C.ar    
   7 C7             3.7395    -1.2712    -1.1979 C.ar    
   8 C8             4.5659    -2.2461    -0.6779 C.ar    
   9 C9             4.3803    -2.6876     0.6321 C.ar    
  10 C10            3.3592    -2.1398     1.4086 C.ar    
  11 C11            2.5427    -1.1617     0.8789 C.ar    
  12 N12            6.9516    -6.6662     0.0247 N.pl3   
  13 C13            7.7687    -7.6446     0.5263 C.2     
  14 N14            8.1415    -7.6515     1.8176 N.2     
  15 C15            7.7455    -6.7299     2.6569 C.2     
  16 C16            6.8997    -5.6876     2.2096 C.ar    
  17 C17            6.4506    -4.6759     3.0845 C.ar    
  18 C18            5.6143    -3.6805     2.5578 C.ar    
  19 C19            5.2634    -3.7341     1.1962 C.ar    
  20 N20            5.7074    -4.7026     0.4095 N.ar    
  21 C21            6.4979    -5.6624     0.8586 C.ar    
  22 C22            8.0589    -8.5015    -0.5254 C.2     
  23 C23            7.4061    -8.0213    -1.6540 C.2     
  24 N24            6.7432    -6.9358    -1.3320 N.2     
  25 C25            8.0317    -3.6928     6.3508 C.ar    
  26 C26            7.6861    -3.6645     5.0154 C.ar    
  27 C27            6.8486    -4.6652     4.5101 C.ar    
  28 C28            6.3975    -5.6553     5.3901 C.ar    
  29 C29            6.7928    -5.6066     6.7111 C.ar    
  30 N30            7.5839    -4.6449     7.1465 N.ar    
  31 C31            5.1073    -2.5902     3.4221 C.ar    
  32 C32            5.5260    -1.2766     3.2104 C.ar    
  33 C33            5.0497    -0.2650     4.0188 C.ar    
  34 C34            4.1590    -0.5514     5.0379 C.ar    
  35 C35            3.7404    -1.8523     5.2532 C.ar    
  36 C36            4.2048    -2.8717     4.4476 C.ar    
  37 C37            7.4476    -8.6487    -3.0236 C.3     
  38 C38           -0.1345     2.5104     0.8246 C.3     
  39 N39            1.8569     0.3737    -2.4650 N.3     
  40 H40            0.3553    -0.1040     0.5939 H       
  41 H41           -0.3419    -0.0817    -1.0838 H       
  42 H42            2.5502     2.4250    -0.9613 H       
  43 H43            2.3929     1.6622     0.6802 H       
  44 H44            0.0668     3.4135    -1.6482 H       
  45 H45            3.8820    -0.9288    -2.2123 H       
  46 H46            5.3546    -2.6668    -1.2841 H       
  47 H47            3.2103    -2.4779     2.4235 H       
  48 H48            1.7543    -0.7338     1.4805 H       
  49 H49            8.0629    -6.7646     3.6887 H       
  50 H50            8.6808    -9.3831    -0.4759 H       
  51 H51            8.6812    -2.9274     6.7492 H       
  52 H52            8.0562    -2.8817     4.3698 H       
  53 H53            5.7493    -6.4453     5.0406 H       
  54 H54            6.4496    -6.3660     7.3981 H       
  55 H55            6.2218    -1.0519     2.4155 H       
  56 H56            5.3731     0.7525     3.8558 H       
  57 H57            3.7893     0.2438     5.6682 H       
  58 H58            3.0452    -2.0697     6.0506 H       
  59 H59            3.8735    -3.8862     4.6136 H       
  60 H60            6.6337    -9.3675    -3.1187 H       
  61 H61            7.3380    -7.8734    -3.7819 H       
  62 H62            8.4009    -9.1589    -3.1608 H       
  63 H63            0.3921     2.1656     1.7145 H       
  64 H64           -0.0477     3.5942     0.7481 H       
  65 H65           -1.1866     2.2342     0.8951 H       
  66 H66            2.8053     0.3781    -2.8093 H       
  67 H67            1.3332    -0.3942    -2.8577 H       
@<TRIPOS>BOND
   1    1    2 1
   2    1    4 1
   3    1    5 1
   4    1   38 1
   5    2    3 1
   6    2   40 1
   7    2   41 1
   8    3    4 1
   9    3    6 1
  10    3   39 1
  11    4   42 1
  12    4   43 1
  13    5   44 1
  14    6    7 ar
  15    6   11 ar
  16    7    8 ar
  17    7   45 1
  18    8    9 ar
  19    8   46 1
  20    9   10 ar
  21    9   19 1
  22   10   11 ar
  23   10   47 1
  24   11   48 1
  25   12   13 1
  26   12   21 1
  27   12   24 1
  28   13   14 1
  29   13   22 2
  30   14   15 2
  31   15   16 1
  32   15   49 1
  33   16   17 ar
  34   16   21 ar
  35   17   18 ar
  36   17   27 1
  37   18   19 ar
  38   18   31 1
  39   19   20 ar
  40   20   21 ar
  41   22   23 1
  42   22   50 1
  43   23   24 2
  44   23   37 1
  45   25   26 ar
  46   25   30 ar
  47   25   51 1
  48   26   27 ar
  49   26   52 1
  50   27   28 ar
  51   28   29 ar
  52   28   53 1
  53   29   30 ar
  54   29   54 1
  55   31   32 ar
  56   31   36 ar
  57   32   33 ar
  58   32   55 1
  59   33   34 ar
  60   33   56 1
  61   34   35 ar
  62   34   57 1
  63   35   36 ar
  64   35   58 1
  65   36   59 1
  66   37   60 1
  67   37   61 1
  68   37   62 1
  69   38   63 1
  70   38   64 1
  71   38   65 1
  72   39   66 1
  73   39   67 1

#	End of record

