#	Name: ASD01200088
#	Creating user name:	WinNT
#	Creation time:	15. 06. 2019 19:08

#	Modifying user name:	WinNT
#	Modification time:	15. 06. 2019 19:08

#	Program:	/corina/corina34_cracker 3.40 0067  02.08.2006

@<TRIPOS>MOLECULE
ASD01200088
  46   48    0    0    0
SMALL
NO_CHARGES


@<TRIPOS>ATOM
   1 C1             0.4804     1.4915    -1.4617 C.2     
   2 C2             0.3549     0.1690    -0.8132 C.ar    
   3 C3            -0.8710    -0.2377    -0.2846 C.ar    
   4 C4            -0.9844    -1.4776     0.3217 C.ar    
   5 C5             0.1186    -2.3153     0.4040 C.ar    
   6 C6             1.3394    -1.9150    -0.1198 C.ar    
   7 C7             1.4602    -0.6785    -0.7331 C.ar    
   8 O8             1.5490     1.8439    -1.9216 O.2     
   9 N9            -0.5914     2.3041    -1.5479 N.am    
  10 S10            0.9650     4.1707    -2.8387 S.3     
  11 C11           -0.4735     3.5467    -2.1572 C.2     
  12 N12           -1.4383     4.4021    -2.2923 N.2     
  13 C13           -1.1491     5.5380    -2.8991 C.2     
  14 C14            0.1204     5.6477    -3.2955 C.2     
  15 C15           -2.1700     6.6229    -3.1262 C.3     
  16 O16            2.4168    -2.7389    -0.0358 O.3     
  17 C17            3.2314    -2.6157     1.0448 C.ar    
  18 C18            4.4044    -3.3536     1.1188 C.ar    
  19 C19            5.2308    -3.2262     2.2181 C.ar    
  20 C20            4.8900    -2.3646     3.2447 C.ar    
  21 C21            3.7220    -1.6283     3.1735 C.ar    
  22 C22            2.8947    -1.7478     2.0735 C.ar    
  23 S23            4.8387    -4.4525    -0.1883 S.o2    
  24 O24            4.7328    -3.6595    -1.3626 O.2     
  25 O25            6.0859    -5.0013     0.2151 O.2     
  26 C26            3.5449    -5.7236    -0.1597 C.3     
  27 O27           -2.1777    -1.8743     0.8372 O.3     
  28 C28           -2.2234    -3.1653     1.4483 C.3     
  29 H29           -1.7300     0.4139    -0.3478 H       
  30 H30            0.0267    -3.2817     0.8774 H       
  31 H31            2.4096    -0.3695    -1.1449 H       
  32 H32           -1.4450     2.0212    -1.1845 H       
  33 H33            0.5544     6.4945    -3.8064 H       
  34 H34           -2.1700     7.3055    -2.2764 H       
  35 H35           -1.9202     7.1726    -4.0337 H       
  36 H36           -3.1582     6.1755    -3.2329 H       
  37 H37            6.1438    -3.8002     2.2761 H       
  38 H38            5.5373    -2.2669     4.1037 H       
  39 H39            3.4582    -0.9561     3.9766 H       
  40 H40            1.9846    -1.1691     2.0163 H       
  41 H41            2.5738    -5.2574    -0.3259 H       
  42 H42            3.7362    -6.4545    -0.9454 H       
  43 H43            3.5473    -6.2228     0.8093 H       
  44 H44           -1.9547    -3.9246     0.7139 H       
  45 H45           -1.5195    -3.1988     2.2798 H       
  46 H46           -3.2310    -3.3571     1.8172 H       
@<TRIPOS>BOND
   1    1    2 1
   2    1    8 2
   3    1    9 am
   4    2    3 ar
   5    2    7 ar
   6    3    4 ar
   7    3   29 1
   8    4    5 ar
   9    4   27 1
  10    5    6 ar
  11    5   30 1
  12    6    7 ar
  13    6   16 1
  14    7   31 1
  15    9   11 1
  16    9   32 1
  17   10   11 1
  18   10   14 1
  19   11   12 2
  20   12   13 1
  21   13   14 2
  22   13   15 1
  23   14   33 1
  24   15   34 1
  25   15   35 1
  26   15   36 1
  27   16   17 1
  28   17   18 ar
  29   17   22 ar
  30   18   19 ar
  31   18   23 1
  32   19   20 ar
  33   19   37 1
  34   20   21 ar
  35   20   38 1
  36   21   22 ar
  37   21   39 1
  38   22   40 1
  39   23   24 2
  40   23   25 2
  41   23   26 1
  42   26   41 1
  43   26   42 1
  44   26   43 1
  45   27   28 1
  46   28   44 1
  47   28   45 1
  48   28   46 1

#	End of record

