#	Name: ASD07260003
#	Creating user name:	WinNT
#	Creation time:	15. 06. 2019 21:09

#	Modifying user name:	WinNT
#	Modification time:	15. 06. 2019 21:09

#	Program:	/corina/corina34_cracker 3.40 0067  02.08.2006

@<TRIPOS>MOLECULE
ASD07260003
  35   35    0    0    0
SMALL
NO_CHARGES


@<TRIPOS>ATOM
   1 P1            -0.0198     1.6058     0.0109 P.3     
   2 P2            -2.9447    -2.6489     5.3627 P.3     
   3 P3             2.1671     3.5690     0.3967 P.3     
   4 O4            -1.4462    -1.1130     1.4979 O.3     
   5 O5             0.0021    -0.0041     0.0020 O.3     
   6 O6            -2.7859    -3.7987    -0.3818 O.3     
   7 O7            -1.5361    -2.1646    -1.8825 O.3     
   8 O8            -2.8314    -2.1883     3.8241 O.3     
   9 O9             1.4907     2.1630    -0.0006 O.3     
  10 O10           -0.7984     2.1391    -1.2935 O.3     
  11 O11           -0.7125     2.0831     1.2285 O.2     
  12 O12           -3.5203    -1.4323     6.2461 O.3     
  13 O13           -3.9392    -3.9101     5.4734 O.3     
  14 O14           -1.6053    -3.0314     5.8630 O.2     
  15 O15            2.3461     3.6459     1.9948 O.3     
  16 O16            3.6080     3.6903    -0.3112 O.3     
  17 O17            1.2997     4.6793    -0.0566 O.2     
  18 C18           -1.7314    -3.1608     0.3414 C.3     
  19 C19           -2.3069    -2.2723     1.4665 C.3     
  20 C20           -0.9731    -2.1693    -0.5692 C.3     
  21 C21           -1.1801    -0.7991     0.1135 C.3     
  22 C22           -2.2561    -3.0098     2.8061 C.3     
  23 H23           -1.0481    -3.9037     0.7531 H       
  24 H24           -3.3302    -1.9790     1.2324 H       
  25 H25            0.0865    -2.4219    -0.6098 H       
  26 H26           -2.0299    -0.2781    -0.3276 H       
  27 H27           -1.2194    -3.2307     3.0602 H       
  28 H28           -2.8179    -3.9407     2.7299 H       
  29 H29           -2.4809    -4.3692    -1.1005 H       
  30 H30           -1.0980    -1.5591    -2.4961 H       
  31 H31           -0.3990     1.8638    -2.1300 H       
  32 H32           -3.6152    -1.6391     7.1860 H       
  33 H33           -4.8372    -3.7314     5.1622 H       
  34 H34            4.0741     4.5147    -0.1156 H       
  35 H35            2.9042     2.9469     2.3622 H       
@<TRIPOS>BOND
   1    1    5 1
   2    1    9 1
   3    1   10 1
   4    1   11 2
   5    2    8 1
   6    2   12 1
   7    2   13 1
   8    2   14 2
   9    3    9 1
  10    3   15 1
  11    3   16 1
  12    3   17 2
  13    4   19 1
  14    4   21 1
  15    5   21 1
  16    6   29 1
  17    6   18 1
  18    7   30 1
  19    7   20 1
  20    8   22 1
  21   10   31 1
  22   12   32 1
  23   13   33 1
  24   15   35 1
  25   16   34 1
  26   18   19 1
  27   18   23 1
  28   18   20 1
  29   19   22 1
  30   19   24 1
  31   20   21 1
  32   20   25 1
  33   21   26 1
  34   22   27 1
  35   22   28 1

#	End of record

