#	Name: ASD00170291
#	Creating user name:	WinNT
#	Creation time:	15. 06. 2019 18:31

#	Modifying user name:	WinNT
#	Modification time:	15. 06. 2019 18:31

#	Program:	/corina/corina34_cracker 3.40 0067  02.08.2006

@<TRIPOS>MOLECULE
ASD00170291
  26   27    0    0    0
SMALL
NO_CHARGES


@<TRIPOS>ATOM
   1 C1            -0.0187     1.3633    -0.1756 C.2     
   2 C2             0.0064     0.0018     0.0020 C.2     
   3 C3            -1.3111    -0.5600     0.2073 C.2     
   4 C4            -2.2750     0.3483     0.1830 C.2     
   5 S5            -1.6158     1.9518    -0.0871 S.3     
   6 C6             1.2359    -0.7967    -0.0151 C.2     
   7 C7             1.9266    -1.1066     1.2411 C.2     
   8 O8             1.6841    -1.2031    -1.0736 O.2     
   9 N9             1.0977     2.1487    -0.3905 N.pl3   
  10 S10            1.4764    -0.5001     2.8289 S.3     
  11 C11            2.7608    -1.3457     3.5679 C.2     
  12 C12            3.4675    -2.0318     2.6602 C.2     
  13 C13            3.0194    -1.9178     1.3656 C.2     
  14 Br14           3.1368    -1.3176     5.4210 Br      
  15 C15           -1.5615    -2.0298     0.4266 C.3     
  16 C16           -3.7397     0.0460     0.3679 C.3     
  17 H17            1.9830     1.7542    -0.3520 H       
  18 H18            0.9961     3.0946    -0.5798 H       
  19 H19            4.3241    -2.6333     2.9264 H       
  20 H20            3.4890    -2.4138     0.5290 H       
  21 H21           -1.5211    -2.2501     1.4934 H       
  22 H22           -2.5455    -2.2926     0.0384 H       
  23 H23           -0.7990    -2.6098    -0.0933 H       
  24 H24           -3.9924     0.1067     1.4265 H       
  25 H25           -4.3334     0.7704    -0.1895 H       
  26 H26           -3.9527    -0.9579     0.0006 H       
@<TRIPOS>BOND
   1    1    2 2
   2    1    9 1
   3    1    5 1
   4    2    3 1
   5    2    6 1
   6    3    4 2
   7    3   15 1
   8    4    5 1
   9    4   16 1
  10    6    7 1
  11    6    8 2
  12    7   10 1
  13    7   13 2
  14    9   17 1
  15    9   18 1
  16   10   11 1
  17   11   12 2
  18   11   14 1
  19   12   13 1
  20   12   19 1
  21   13   20 1
  22   15   21 1
  23   15   22 1
  24   15   23 1
  25   16   24 1
  26   16   25 1
  27   16   26 1

#	End of record

