#	Name: ASD03331591
#	Creating user name:	WinNT
#	Creation time:	15. 06. 2019 20:39

#	Modifying user name:	WinNT
#	Modification time:	15. 06. 2019 20:39

#	Program:	/corina/corina34_cracker 3.40 0067  02.08.2006

@<TRIPOS>MOLECULE
ASD03331591
  57   60    0    0    0
SMALL
NO_CHARGES


@<TRIPOS>ATOM
   1 C1            -0.0180     1.4750     0.0102 C.ar    
   2 C2             0.0021    -0.0041     0.0020 C.2     
   3 N3            -1.0252    -0.8163     0.3867 N.pl3   
   4 C4            -0.5989    -2.1005     0.2524 C.2     
   5 C5             0.6704    -2.0540    -0.2373 C.2     
   6 N6             1.0085    -0.7538    -0.3816 N.2     
   7 C7             1.5211    -3.2137    -0.5579 C.2     
   8 O8             1.1001    -4.3420    -0.3884 O.2     
   9 N9             2.7657    -3.0240    -1.0390 N.am    
  10 C10            3.6114    -4.1769    -1.3578 C.3     
  11 C11            5.0613    -3.7743    -1.2758 C.2     
  12 C12           -2.3544    -0.3961     0.8412 C.3     
  13 C13           -2.9345    -1.4708     1.7647 C.3     
  14 C14           -3.6359    -2.5432     0.9339 C.3     
  15 O15           -2.7163    -3.1971     0.0675 O.3     
  16 C16           -1.3968    -3.3276     0.6078 C.3     
  17 C17            3.2967    -4.6644    -2.7735 C.3     
  18 C18            3.5707    -3.5390    -3.7731 C.3     
  19 C19            4.1800    -5.8685    -3.1064 C.3     
  20 C20            1.8247    -5.0732    -2.8567 C.3     
  21 C21            1.1793     2.1911    -0.0016 C.ar    
  22 O22            5.6080    -2.6622    -1.7763 O.3     
  23 C23            1.1546     3.5722     0.0061 C.ar    
  24 C24           -0.0584     4.2459     0.0260 C.ar    
  25 C25           -1.2490     3.5376     0.0381 C.ar    
  26 C26           -1.2345     2.1584     0.0238 C.ar    
  27 F27           -0.0785     5.5967     0.0339 F       
  28 F28            2.3127     4.2678    -0.0052 F       
  29 N29            6.7967    -2.6442    -1.5356 N.2     
  30 C30            7.1379    -3.7093    -0.8739 C.2     
  31 N31            6.0266    -4.4454    -0.6950 N.2     
  32 C32            8.5232    -4.0538    -0.3911 C.3     
  33 H33            3.1014    -2.1240    -1.1742 H       
  34 H34            3.4162    -4.9787    -0.6456 H       
  35 H35           -2.2726     0.5453     1.3845 H       
  36 H36           -3.0090    -0.2644    -0.0204 H       
  37 H37           -2.1290    -1.9274     2.3400 H       
  38 H38           -3.6516    -1.0140     2.4467 H       
  39 H39           -4.0833    -3.2787     1.6024 H       
  40 H40           -4.4209    -2.0779     0.3377 H       
  41 H41           -0.9157    -4.2103     0.1866 H       
  42 H42           -1.4544    -3.4240     1.6920 H       
  43 H43            4.6194    -3.2478    -3.7138 H       
  44 H44            3.3465    -3.8863    -4.7817 H       
  45 H45            2.9415    -2.6811    -3.5359 H       
  46 H46            3.9847    -6.6703    -2.3942 H       
  47 H47            3.9558    -6.2158    -4.1150 H       
  48 H48            5.2287    -5.5773    -3.0471 H       
  49 H49            1.1954    -4.2153    -2.6195 H       
  50 H50            1.6005    -5.4205    -3.8652 H       
  51 H51            1.6294    -5.8749    -2.1445 H       
  52 H52            2.1233     1.6668    -0.0163 H       
  53 H53           -2.1905     4.0664     0.0539 H       
  54 H54           -2.1637     1.6079     0.0333 H       
  55 H55            8.6706    -3.6477     0.6097 H       
  56 H56            8.6397    -5.1372    -0.3643 H       
  57 H57            9.2613    -3.6256    -1.0692 H       
@<TRIPOS>BOND
   1    1    2 1
   2    1   21 ar
   3    1   26 ar
   4    2    3 1
   5    2    6 2
   6    3    4 1
   7    3   12 1
   8    4    5 2
   9    4   16 1
  10    5    6 1
  11    5    7 1
  12    7    8 2
  13    7    9 am
  14    9   10 1
  15    9   33 1
  16   10   11 1
  17   10   17 1
  18   10   34 1
  19   11   22 1
  20   11   31 2
  21   12   13 1
  22   12   35 1
  23   12   36 1
  24   13   14 1
  25   13   37 1
  26   13   38 1
  27   14   15 1
  28   14   39 1
  29   14   40 1
  30   15   16 1
  31   16   41 1
  32   16   42 1
  33   17   18 1
  34   17   19 1
  35   17   20 1
  36   18   43 1
  37   18   44 1
  38   18   45 1
  39   19   46 1
  40   19   47 1
  41   19   48 1
  42   20   49 1
  43   20   50 1
  44   20   51 1
  45   21   23 ar
  46   21   52 1
  47   22   29 1
  48   23   24 ar
  49   23   28 1
  50   24   25 ar
  51   24   27 1
  52   25   26 ar
  53   25   53 1
  54   26   54 1
  55   29   30 2
  56   30   31 1
  57   30   32 1
  58   32   55 1
  59   32   56 1
  60   32   57 1

#	End of record

