#	Name: ASD02039250
#	Creating user name:	WinNT
#	Creation time:	15. 06. 2019 20:17

#	Modifying user name:	WinNT
#	Modification time:	15. 06. 2019 20:17

#	Program:	/corina/corina34_cracker 3.40 0067  02.08.2006

@<TRIPOS>MOLECULE
ASD02039250
  43   46    0    0    0
SMALL
NO_CHARGES


@<TRIPOS>ATOM
   1 N1            -0.0160     1.3037    -0.0274 N.2     
   2 C2             0.0019    -0.0039    -0.0001 C.2     
   3 C3             1.3717    -0.3810     0.0197 C.2     
   4 C4             2.0347     0.7972     0.0011 C.2     
   5 O5             1.1031     1.7614    -0.0271 O.3     
   6 N6            -1.0993    -0.8548     0.0080 N.pl3   
   7 C7            -0.9163    -2.2363    -0.1067 C.ar    
   8 C8             0.1060    -2.7391    -0.9017 C.ar    
   9 C9             0.2844    -4.1038    -1.0132 C.ar    
  10 C10           -0.5540    -4.9705    -0.3339 C.ar    
  11 C11           -1.5733    -4.4724     0.4583 C.ar    
  12 C12           -1.7526    -3.1081     0.5783 C.ar    
  13 O13            4.0140     1.0220    -1.3333 O.3     
  14 C14            5.3525     1.1903    -1.5029 C.ar    
  15 C15            6.1807     1.3213    -0.3911 C.ar    
  16 C16            7.5391     1.4920    -0.5437 C.ar    
  17 C17            8.0950     1.5348    -1.8177 C.ar    
  18 C18            7.2615     1.4027    -2.9445 C.ar    
  19 C19            5.8846     1.2246    -2.7764 C.ar    
  20 C20            3.5294     0.9895     0.0106 C.3     
  21 Cl21          -0.3268    -6.6856    -0.4763 Cl      
  22 N22            9.4535     1.7061    -1.9917 N.am    
  23 C23            9.9932     1.7487    -3.2223 C.2     
  24 C24            9.2011     1.6217    -4.3834 C.2     
  25 C25            7.8600     1.4506    -4.2799 C.2     
  26 O26           11.1970     1.9013    -3.3381 O.2     
  27 C27           -2.4848    -5.4192     1.1956 C.3     
  28 F28           -3.4285    -4.6863     1.9233 F       
  29 F29           -3.1426    -6.2439     0.2767 F       
  30 F30           -1.7296    -6.2065     2.0714 F       
  31 H31            1.7870    -1.3777     0.0444 H       
  32 H32           -1.9939    -0.4896     0.0932 H       
  33 H33            0.7603    -2.0633    -1.4323 H       
  34 H34            1.0788    -4.4953    -1.6314 H       
  35 H35           -2.5481    -2.7198     1.1970 H       
  36 H36            5.7539     1.2891     0.6005 H       
  37 H37            8.1720     1.5929     0.3255 H       
  38 H38            5.2407     1.1225    -3.6374 H       
  39 H39            3.7717     1.9291     0.5070 H       
  40 H40            3.9984     0.1641     0.5461 H       
  41 H41           10.0271     1.7973    -1.2149 H       
  42 H42            9.6648     1.6605    -5.3580 H       
  43 H43            7.2465     1.3519    -5.1632 H       
@<TRIPOS>BOND
   1    1    2 2
   2    1    5 1
   3    2    3 1
   4    2    6 1
   5    3    4 2
   6    3   31 1
   7    4    5 1
   8    4   20 1
   9    6    7 1
  10    6   32 1
  11    7    8 ar
  12    7   12 ar
  13    8    9 ar
  14    8   33 1
  15    9   10 ar
  16    9   34 1
  17   10   11 ar
  18   10   21 1
  19   11   12 ar
  20   11   27 1
  21   12   35 1
  22   13   14 1
  23   13   20 1
  24   14   15 ar
  25   14   19 ar
  26   15   16 ar
  27   15   36 1
  28   16   17 ar
  29   16   37 1
  30   17   18 ar
  31   17   22 1
  32   18   19 ar
  33   18   25 1
  34   19   38 1
  35   20   39 1
  36   20   40 1
  37   22   23 am
  38   22   41 1
  39   23   24 1
  40   23   26 2
  41   24   25 2
  42   24   42 1
  43   25   43 1
  44   27   28 1
  45   27   29 1
  46   27   30 1

#	End of record

