#	Name: ASD01940326
#	Creating user name:	WinNT
#	Creation time:	15. 06. 2019 20:12

#	Modifying user name:	WinNT
#	Modification time:	15. 06. 2019 20:12

#	Program:	/corina/corina34_cracker 3.40 0067  02.08.2006

@<TRIPOS>MOLECULE
ASD01940326
  32   33    0    0    0
SMALL
NO_CHARGES


@<TRIPOS>ATOM
   1 C1            -0.0119     1.4058     0.1160 C.ar    
   2 C2             0.0458     0.0242    -0.0632 C.ar    
   3 C3             1.2628    -0.6337     0.0279 C.ar    
   4 C4             2.4173     0.0792     0.2965 C.ar    
   5 C5             2.3626     1.4505     0.4752 C.ar    
   6 C6             1.1500     2.1161     0.3849 C.ar    
   7 N7            -1.2390     2.0763     0.0192 N.pl3   
   8 N8            -1.1240    -0.6979    -0.3344 N.pl3   
   9 C9            -1.2658     3.4597    -0.1834 C.ar    
  10 C10           -0.8757     3.9928    -1.4082 C.ar    
  11 C11           -0.9041     5.3607    -1.6045 C.ar    
  12 C12           -1.3198     6.1986    -0.5845 C.ar    
  13 C13           -1.7074     5.6709     0.6336 C.ar    
  14 C14           -1.6870     4.3040     0.8348 C.ar    
  15 I15           -1.3613     8.2713    -0.8862 I       
  16 F16           -0.4695     3.1747    -2.4036 F       
  17 F17            1.0990     3.4549     0.5588 F       
  18 F18            3.4932     2.1419     0.7378 F       
  19 C19            1.3277    -2.1268    -0.1654 C.3     
  20 C20            1.4344    -2.4436    -1.6584 C.3     
  21 H21            3.3640    -0.4357     0.3673 H       
  22 H22           -2.0696     1.5808     0.0928 H       
  23 H23           -1.9750    -0.2368    -0.3976 H       
  24 H24           -1.0828    -1.6590    -0.4589 H       
  25 H25           -0.6013     5.7760    -2.5544 H       
  26 H26           -2.0306     6.3280     1.4274 H       
  27 H27           -1.9945     3.8930     1.7851 H       
  28 H28            2.2009    -2.5227     0.3533 H       
  29 H29            0.4256    -2.5852     0.2397 H       
  30 H30            0.5613    -2.0478    -2.1772 H       
  31 H31            2.3365    -1.9852    -2.0636 H       
  32 H32            1.4814    -3.5236    -1.7983 H       
@<TRIPOS>BOND
   1    1    2 ar
   2    1    6 ar
   3    1    7 1
   4    2    3 ar
   5    2    8 1
   6    3    4 ar
   7    3   19 1
   8    4    5 ar
   9    4   21 1
  10    5    6 ar
  11    5   18 1
  12    6   17 1
  13    7    9 1
  14    7   22 1
  15    8   23 1
  16    8   24 1
  17    9   10 ar
  18    9   14 ar
  19   10   11 ar
  20   10   16 1
  21   11   12 ar
  22   11   25 1
  23   12   13 ar
  24   12   15 1
  25   13   14 ar
  26   13   26 1
  27   14   27 1
  28   19   20 1
  29   19   28 1
  30   19   29 1
  31   20   30 1
  32   20   31 1
  33   20   32 1

#	End of record

