#	Name: ASD01885418
#	Creating user name:	WinNT
#	Creation time:	15. 06. 2019 19:49

#	Modifying user name:	WinNT
#	Modification time:	15. 06. 2019 19:49

#	Program:	/corina/corina34_cracker 3.40 0067  02.08.2006

@<TRIPOS>MOLECULE
ASD01885418
  42   44    0    0    0
SMALL
NO_CHARGES


@<TRIPOS>ATOM
   1 C1            -0.0168     1.3894     0.0097 C.ar    
   2 C2             0.0021    -0.0041     0.0020 C.ar    
   3 N3            -1.1199    -0.7765     0.0189 N.2     
   4 C4            -2.1860    -0.5711    -0.6419 C.2     
   5 C5            -2.3468     0.6245    -1.5431 C.3     
   6 C6            -2.2783     1.8668    -0.6911 C.2     
   7 N7            -1.1831     2.1444     0.0182 N.am    
   8 C8             1.1875     2.0909     0.0019 C.ar    
   9 C9             2.4011     1.4149    -0.0181 C.ar    
  10 C10            2.4173     0.0194    -0.0307 C.ar    
  11 C11            1.2348    -0.6782    -0.0206 C.ar    
  12 C12           -3.3224    -1.5534    -0.5203 C.3     
  13 O13           -3.2276     2.6207    -0.6505 O.2     
  14 C14            3.6752     2.1737    -0.0267 C.ar    
  15 C15            4.8924     1.4950    -0.0468 C.ar    
  16 C16            6.0777     2.2055    -0.0552 C.ar    
  17 C17            6.0570     3.5923    -0.0437 C.ar    
  18 C18            4.8477     4.2711    -0.0232 C.ar    
  19 C19            3.6583     3.5674    -0.0204 C.ar    
  20 F20            4.8324     5.6220    -0.0110 F       
  21 F21            7.2177     4.2836    -0.0519 F       
  22 F22            7.2580     1.5485    -0.0743 F       
  23 H23           -1.5448     0.6396    -2.2811 H       
  24 H24           -3.3116     0.5774    -2.0482 H       
  25 H25           -1.2026     2.9329     0.5827 H       
  26 H26            1.1773     3.1708     0.0113 H       
  27 H27            3.3581    -0.5106    -0.0486 H       
  28 H28            1.2523    -1.7580    -0.0305 H       
  29 H29           -3.0406    -2.3518     0.1661 H       
  30 H30           -4.2059    -1.0414    -0.1390 H       
  31 H31           -3.5426    -1.9773    -1.5000 H       
  32 H32            4.9093     0.4152    -0.0555 H       
  33 H33            2.7170     4.0966    -0.0048 H       
  34 N34           13.1672    13.6940     5.6122 N.ar    
  35 C35           13.1851    12.3745     5.6050 C.ar    
  36 C36           14.3961    11.7013     5.5898 C.ar    
  37 C37           15.5617    12.4571     5.5827 C.ar    
  38 C38           15.4414    13.8375     5.5913 C.ar    
  39 N39           14.2441    14.3923     5.6057 N.ar    
  40 H40           12.2580    11.8206     5.6112 H       
  41 H41           14.4328    10.6220     5.5840 H       
  42 H42           16.3253    14.4580     5.5866 H       
@<TRIPOS>BOND
   1    1    2 ar
   2    1    8 ar
   3    1    7 1
   4    2    3 1
   5    2   11 ar
   6    3    4 2
   7    4    5 1
   8    4   12 1
   9    5    6 1
  10    5   23 1
  11    5   24 1
  12    6    7 am
  13    6   13 2
  14    7   25 1
  15    8    9 ar
  16    8   26 1
  17    9   10 ar
  18    9   14 1
  19   10   11 ar
  20   10   27 1
  21   11   28 1
  22   12   29 1
  23   12   30 1
  24   12   31 1
  25   14   15 ar
  26   14   19 ar
  27   15   16 ar
  28   15   32 1
  29   16   17 ar
  30   16   22 1
  31   17   18 ar
  32   17   21 1
  33   18   19 ar
  34   18   20 1
  35   19   33 1
  36   34   35 ar
  37   34   39 ar
  38   35   36 ar
  39   35   40 1
  40   36   37 ar
  41   36   41 1
  42   37   38 ar
  43   38   39 ar
  44   38   42 1

#	End of record

