#	Name: ASD08830251
#	Creating user name:	WinNT
#	Creation time:	15. 06. 2019 21:20

#	Modifying user name:	WinNT
#	Modification time:	15. 06. 2019 21:20

#	Program:	/corina/corina34_cracker 3.40 0067  02.08.2006

@<TRIPOS>MOLECULE
ASD08830251
  40   42    0    0    0
SMALL
NO_CHARGES


@<TRIPOS>ATOM
   1 C1             0.2731     1.7191    -0.2490 C.ar    
   2 C2             0.0473     0.3670    -0.0880 C.ar    
   3 C3             1.1148    -0.5294    -0.1376 C.ar    
   4 C4             2.4074    -0.0558    -0.3503 C.ar    
   5 C5             2.6252     1.3043    -0.5115 C.ar    
   6 C6             1.5555     2.1898    -0.4602 C.ar    
   7 C7             0.8745    -1.9816     0.0360 C.ar    
   8 C8            -0.0408    -2.4447     0.9943 C.ar    
   9 C9            -0.2274    -3.8178     1.1141 C.ar    
  10 N10            0.4583    -4.6318     0.3275 N.ar    
  11 C11            1.3110    -4.1618    -0.5629 C.ar    
  12 N12            1.5187    -2.8697    -0.7177 N.ar    
  13 Cl13           2.1812    -5.2798    -1.5661 Cl      
  14 N14            3.9212     1.7847    -0.7249 N.am    
  15 C15            4.8509     0.9881    -1.2883 C.2     
  16 C16            6.2450     1.4448    -1.3925 C.2     
  17 C17            7.1626     0.6585    -1.9486 C.2     
  18 O18            4.5370    -0.1085    -1.7106 O.2     
  19 N19           -0.7440    -1.5517     1.8051 N.pl3   
  20 C20           -0.0764    -0.8442     2.8077 C.ar    
  21 C21           -0.7899    -0.0291     3.6777 C.ar    
  22 C22           -0.1268     0.6684     4.6680 C.ar    
  23 C23            1.2458     0.5564     4.7943 C.ar    
  24 C24            1.9591    -0.2541     3.9301 C.ar    
  25 C25            1.3018    -0.9586     2.9408 C.ar    
  26 H26           -0.5554     2.4110    -0.2144 H       
  27 H27           -0.9561     0.0030     0.0767 H       
  28 H28            3.2375    -0.7457    -0.3892 H       
  29 H29            1.7265     3.2487    -0.5859 H       
  30 H30           -0.9224    -4.2144     1.8395 H       
  31 H31            4.1509     2.6913    -0.4674 H       
  32 H32            6.5237     2.4185    -1.0175 H       
  33 H33            8.1863     0.9939    -2.0251 H       
  34 H34            6.8839    -0.3152    -2.3235 H       
  35 H35           -1.6961    -1.4225     1.6721 H       
  36 H36           -1.8617     0.0592     3.5793 H       
  37 H37           -0.6807     1.3025     5.3444 H       
  38 H38            1.7619     1.1033     5.5695 H       
  39 H39            3.0309    -0.3393     4.0316 H       
  40 H40            1.8594    -1.5913     2.2662 H       
@<TRIPOS>BOND
   1    1    2 ar
   2    1    6 ar
   3    1   26 1
   4    2    3 ar
   5    2   27 1
   6    3    4 ar
   7    3    7 1
   8    4    5 ar
   9    4   28 1
  10    5    6 ar
  11    5   14 1
  12    6   29 1
  13    7    8 ar
  14    7   12 ar
  15    8    9 ar
  16    8   19 1
  17    9   10 ar
  18    9   30 1
  19   10   11 ar
  20   11   12 ar
  21   11   13 1
  22   14   15 am
  23   14   31 1
  24   15   16 1
  25   15   18 2
  26   16   17 2
  27   16   32 1
  28   17   33 1
  29   17   34 1
  30   19   20 1
  31   19   35 1
  32   20   21 ar
  33   20   25 ar
  34   21   22 ar
  35   21   36 1
  36   22   23 ar
  37   22   37 1
  38   23   24 ar
  39   23   38 1
  40   24   25 ar
  41   24   39 1
  42   25   40 1

#	End of record

