#	Name: ASD00843027
#	Creating user name:	WinNT
#	Creation time:	15. 06. 2019 18:45

#	Modifying user name:	WinNT
#	Modification time:	15. 06. 2019 18:45

#	Program:	/corina/corina34_cracker 3.40 0067  02.08.2006

@<TRIPOS>MOLECULE
ASD00843027
  97  102    0    0    0
SMALL
NO_CHARGES


@<TRIPOS>ATOM
   1 F1            -0.1182    -3.1667     4.7124 F       
   2 N2            -0.0051     1.3210     0.0355 N.ar    
   3 C3             0.0089    -0.0013     0.0185 C.ar    
   4 C4             1.2116    -0.6962    -0.0015 C.ar    
   5 C5             2.3994     0.0138    -0.0035 C.ar    
   6 C6             2.3417     1.4008     0.0147 C.ar    
   7 C7             1.1108     2.0254     0.0341 C.ar    
   8 C8             1.2227    -2.2030    -0.0203 C.3     
   9 C9             0.4753    -2.7238    -1.2294 C.2     
  10 N10            2.5990    -2.7050    -0.0123 N.am    
  11 C11            3.4466    -2.3635    -1.0029 C.2     
  12 N12            4.7401    -2.7371    -0.9417 N.am    
  13 O13            3.0444    -1.7184    -1.9518 O.2     
  14 C14            5.2677    -3.4158     0.2497 C.3     
  15 C15            6.4985    -2.6518     0.7480 C.3     
  16 C16            7.5064    -2.5150    -0.3954 C.3     
  17 C17            6.8758    -1.7203    -1.5412 C.3     
  18 C18            5.6479    -2.4788    -2.0677 C.3     
  19 C19            8.7519    -1.7826     0.1079 C.3     
  20 C20            9.3850    -2.5774     1.2533 C.3     
  21 C21           10.6633    -1.8719     1.7117 C.3     
  22 N22           11.5998    -1.7722     0.5850 N.3     
  23 C23           11.0320    -0.9732    -0.5084 C.3     
  24 C24            9.7647    -1.6518    -1.0330 C.3     
  25 C25           12.8916    -1.2251     1.0210 C.3     
  26 O26            0.7561    -2.5218    -2.3919 O.2     
  27 N27           -0.5572    -3.4524    -0.7729 N.am    
  28 C28            0.4486    -2.7529     1.1557 C.ar    
  29 C29           -0.6015    -3.4897     0.6224 C.ar    
  30 C30            0.6134    -2.6428     2.5180 C.ar    
  31 C31           -0.2757    -3.2723     3.3747 C.ar    
  32 C32           -1.3270    -4.0099     2.8545 C.ar    
  33 C33           -1.4922    -4.1203     1.4881 C.ar    
  34 Cl34          -2.4418    -4.7992     3.9259 Cl      
  35 C35           -1.0285    -5.8352    -2.0669 C.ar    
  36 C36            0.1489    -5.9973    -2.7829 C.ar    
  37 C37           -1.7098    -6.9414    -1.5956 C.ar    
  38 C38           -1.2204    -8.2109    -1.8355 C.ar    
  39 C39           -0.0431    -8.3782    -2.5512 C.ar    
  40 C40            0.6419    -7.2703    -3.0254 C.ar    
  41 O41            0.4376    -9.6273    -2.7872 O.3     
  42 O42            0.8181    -4.9091    -3.2465 O.3     
  43 C43            2.0232    -5.1507    -3.9756 C.3     
  44 C44           -0.3201   -10.7226    -2.2694 C.3     
  45 C45           13.9130    -1.3668    -0.1093 C.3     
  46 C46           15.2584    -0.7970     0.3448 C.3     
  47 O47           -1.1626    -0.6857     0.0211 O.3     
  48 C48           -2.3649     0.0863     0.0426 C.3     
  49 C49           -3.5735    -0.8520     0.0423 C.3     
  50 F50           -3.5485    -1.6443    -1.1104 F       
  51 F51           -3.5264    -1.6733     1.1738 F       
  52 S52           -1.6518    -4.2175    -1.7521 S.o2    
  53 O53           -2.8325    -4.3857    -0.9795 O.2     
  54 O54           -1.6278    -3.5293    -2.9951 O.2     
  55 H55            3.3495    -0.4994    -0.0185 H       
  56 H56            3.2502     1.9849     0.0141 H       
  57 H57            1.0605     3.1041     0.0479 H       
  58 H58            2.9002    -3.2831     0.7060 H       
  59 H59            4.5061    -3.4301     1.0294 H       
  60 H60            5.5504    -4.4369    -0.0065 H       
  61 H61            6.1982    -1.6610     1.0889 H       
  62 H62            6.9561    -3.1977     1.5730 H       
  63 H63            7.7875    -3.5058    -0.7523 H       
  64 H64            6.5720    -0.7382    -1.1788 H       
  65 H65            7.6020    -1.6031    -2.3456 H       
  66 H66            5.9643    -3.4221    -2.5128 H       
  67 H67            5.1371    -1.8726    -2.8158 H       
  68 H68            8.4724    -0.7909     0.4636 H       
  69 H69            8.6839    -2.6373     2.0857 H       
  70 H70            9.6278    -3.5824     0.9082 H       
  71 H71           10.4179    -0.8720     2.0695 H       
  72 H72           11.1243    -2.4429     2.5177 H       
  73 H73           10.7849     0.0225    -0.1401 H       
  74 H74           11.7607    -0.8915    -1.3149 H       
  75 H75           10.0134    -2.6423    -1.4141 H       
  76 H76            9.3348    -1.0505    -1.8341 H       
  77 H77           12.7732    -0.1715     1.2738 H       
  78 H78           13.2407    -1.7719     1.8969 H       
  79 H79            1.4346    -2.0670     2.9186 H       
  80 H80           -2.3139    -4.6969     1.0896 H       
  81 H81           -2.6261    -6.8132    -1.0385 H       
  82 H82           -1.7542    -9.0738    -1.4655 H       
  83 H83            1.5580    -7.3985    -3.5828 H       
  84 H84            2.7320    -5.6818    -3.3403 H       
  85 H85            1.8007    -5.7545    -4.8554 H       
  86 H86            2.4560    -4.2001    -4.2872 H       
  87 H87           -0.3900   -10.6357    -1.1851 H       
  88 H88           -1.3213   -10.7077    -2.7003 H       
  89 H89            0.1728   -11.6598    -2.5279 H       
  90 H90           14.0314    -2.4205    -0.3621 H       
  91 H91           13.5639    -0.8200    -0.9852 H       
  92 H92           15.1401     0.2566     0.5976 H       
  93 H93           15.6076    -1.3438     1.2207 H       
  94 H94           15.9861    -0.8980    -0.4604 H       
  95 H95           -2.3844     0.7036     0.9407 H       
  96 H96           -2.4016     0.7262    -0.8390 H       
  97 H97           -4.4906    -0.2631     0.0587 H       
@<TRIPOS>BOND
   1    1   31 1
   2    2    3 ar
   3    2    7 ar
   4    3    4 ar
   5    3   47 1
   6    4    5 ar
   7    4    8 1
   8    5    6 ar
   9    5   55 1
  10    6    7 ar
  11    6   56 1
  12    7   57 1
  13    8    9 1
  14    8   10 1
  15    8   28 1
  16    9   26 2
  17    9   27 am
  18   10   11 am
  19   10   58 1
  20   11   12 am
  21   11   13 2
  22   12   14 1
  23   12   18 1
  24   14   15 1
  25   14   59 1
  26   14   60 1
  27   15   16 1
  28   15   61 1
  29   15   62 1
  30   16   17 1
  31   16   19 1
  32   16   63 1
  33   17   18 1
  34   17   64 1
  35   17   65 1
  36   18   66 1
  37   18   67 1
  38   19   20 1
  39   19   24 1
  40   19   68 1
  41   20   21 1
  42   20   69 1
  43   20   70 1
  44   21   22 1
  45   21   71 1
  46   21   72 1
  47   22   23 1
  48   22   25 1
  49   23   24 1
  50   23   73 1
  51   23   74 1
  52   24   75 1
  53   24   76 1
  54   25   45 1
  55   25   77 1
  56   25   78 1
  57   27   52 am
  58   27   29 1
  59   28   29 ar
  60   28   30 ar
  61   29   33 ar
  62   30   31 ar
  63   30   79 1
  64   31   32 ar
  65   32   33 ar
  66   32   34 1
  67   33   80 1
  68   35   36 ar
  69   35   37 ar
  70   35   52 1
  71   36   42 1
  72   36   40 ar
  73   37   38 ar
  74   37   81 1
  75   38   39 ar
  76   38   82 1
  77   39   40 ar
  78   39   41 1
  79   40   83 1
  80   41   44 1
  81   42   43 1
  82   43   84 1
  83   43   85 1
  84   43   86 1
  85   44   87 1
  86   44   88 1
  87   44   89 1
  88   45   46 1
  89   45   90 1
  90   45   91 1
  91   46   92 1
  92   46   93 1
  93   46   94 1
  94   47   48 1
  95   48   49 1
  96   48   95 1
  97   48   96 1
  98   49   50 1
  99   49   51 1
 100   49   97 1
 101   52   53 2
 102   52   54 2

#	End of record

