#	Name: ASD06020187
#	Creating user name:	WinNT
#	Creation time:	15. 06. 2019 21:04

#	Modifying user name:	WinNT
#	Modification time:	15. 06. 2019 21:04

#	Program:	/corina/corina34_cracker 3.40 0067  02.08.2006

@<TRIPOS>MOLECULE
ASD06020187
  89   96    0    0    0
SMALL
NO_CHARGES


@<TRIPOS>ATOM
   1 C1            -0.2053     0.9023     1.3042 C.2     
   2 N2            -0.1773    -0.3914     0.9271 N.am    
   3 O3             0.7850     1.4166     1.7840 O.2     
   4 O4            -1.3290     1.6258     1.1440 O.3     
   5 C5            -3.4373    -1.3518    -0.1440 C.2     
   6 N6            -2.5608    -0.4445     0.4330 N.pl3   
   7 C7            -1.3177    -0.9912     0.4355 C.2     
   8 C8            -1.3843    -2.2547    -0.1399 C.2     
   9 C9            -2.6932    -2.4895    -0.5032 C.2     
  10 C10           -4.7979    -1.1722    -0.3274 C.2     
  11 C11           -5.3986     0.0666     0.0004 C.2     
  12 C12           -4.7051     1.2879     0.1870 C.2     
  13 C13           -5.6319     2.2331     0.4869 C.2     
  14 C14           -6.9263     1.5487     0.4786 C.2     
  15 C15           -8.1756     2.1330     0.7359 C.2     
  16 C16           -9.3410     1.3481     0.6924 C.2     
  17 C17           -9.3973    -0.0401     0.4026 C.2     
  18 C18          -10.7037    -0.4008     0.4650 C.2     
  19 C19          -11.4379     0.7677     0.7924 C.2     
  20 C20          -12.8386     0.8431     0.9585 C.2     
  21 C21          -13.4373     2.0586     1.2813 C.2     
  22 C22          -14.8231     2.2821     1.4774 C.2     
  23 C23          -14.9599     3.6057     1.7737 C.2     
  24 C24          -13.6775     4.1680     1.7559 C.2     
  25 N25          -12.8012     3.2345     1.4694 N.2     
  26 N26          -10.5835     1.7802     0.9225 N.2     
  27 N27           -6.7003     0.2650     0.1751 N.2     
  28 C28            2.0942    -3.1518     1.0731 C.ar    
  29 N29            0.9825    -2.4520     0.9735 N.ar    
  30 C30            1.0039    -1.1227     1.0339 C.ar    
  31 C31            2.2217    -0.4743     1.2046 C.ar    
  32 C32            3.3736    -1.2503     1.3056 C.ar    
  33 N33            3.2676    -2.5755     1.2355 N.ar    
  34 C34            2.0208    -4.6555     1.0054 C.3     
  35 N35            4.6135    -0.6511     1.4763 N.pl3   
  36 C36            5.7420    -1.4364     1.6935 C.ar    
  37 C37            6.9700    -0.8276     1.9749 C.ar    
  38 C38            8.1011    -1.6234     2.1928 C.ar    
  39 C39            7.9260    -3.0288     2.1124 C.ar    
  40 C40            6.6966    -3.5362     1.8337 C.ar    
  41 N41            5.6470    -2.7534     1.6381 N.ar    
  42 S42            7.4428     0.8609     2.1277 S.3     
  43 C43            9.0992     0.3760     2.4675 C.2     
  44 N44            9.1997    -0.9136     2.4497 N.2     
  45 C45           10.2142     1.3069     2.7346 C.ar    
  46 C46            9.9954     2.6845     2.7298 C.ar    
  47 C47           11.0423     3.5505     2.9809 C.ar    
  48 C48           12.3117     3.0607     3.2382 C.ar    
  49 C49           12.5485     1.7012     3.2470 C.ar    
  50 C50           11.5044     0.8095     3.0017 C.ar    
  51 C51           11.7439    -0.6022     3.0161 C.1     
  52 N52           11.9339    -1.7222     3.0274 N.1     
  53 Cl53           8.4085     3.3105     2.4080 Cl      
  54 C54           -1.2868     3.0125     1.5724 C.3     
  55 C55           -0.2039     3.7559     0.7879 C.3     
  56 C56           -2.6449     3.6679     1.3133 C.3     
  57 C57           -0.9673     3.0750     3.0673 C.3     
  58 H58           -2.7960     0.4317     0.7761 H       
  59 H59           -0.5556    -2.9333    -0.2787 H       
  60 H60           -3.0762    -3.3821    -0.9755 H       
  61 H61           -5.4007    -1.9775    -0.7205 H       
  62 H62           -3.6387     1.4384     0.1061 H       
  63 H63           -5.4511     3.2782     0.6910 H       
  64 H64           -8.2419     3.1858     0.9673 H       
  65 H65           -8.5613    -0.6850     0.1754 H       
  66 H66          -11.1074    -1.3883     0.2971 H       
  67 H67          -13.4454    -0.0418     0.8353 H       
  68 H68          -15.6134     1.5495     1.4062 H       
  69 H69          -15.8843     4.1236     1.9827 H       
  70 H70          -13.4460     5.2046     1.9516 H       
  71 H71            2.2731     0.6032     1.2572 H       
  72 H72            2.1197    -4.9778    -0.0311 H       
  73 H73            2.8279    -5.0858     1.5984 H       
  74 H74            1.0615    -4.9905     1.4001 H       
  75 H75            4.6938     0.3151     1.4443 H       
  76 H76            8.7643    -3.6910     2.2713 H       
  77 H77            6.5714    -4.6073     1.7742 H       
  78 H78           10.8695     4.6166     2.9761 H       
  79 H79           13.1221     3.7475     3.4331 H       
  80 H80           13.5417     1.3274     3.4478 H       
  81 H81           -0.4315     3.7115    -0.2771 H       
  82 H82           -0.1722     4.7969     1.1095 H       
  83 H83            0.7636     3.2891     0.9725 H       
  84 H84           -3.4164     3.1383     1.8722 H       
  85 H85           -2.6132     4.7089     1.6349 H       
  86 H86           -2.8725     3.6234     0.2483 H       
  87 H87            0.0002     2.6081     3.2519 H       
  88 H88           -0.9357     4.1159     3.3890 H       
  89 H89           -1.7389     2.5453     3.6262 H       
@<TRIPOS>BOND
   1    1    2 am
   2    1    3 2
   3    1    4 1
   4    2    7 1
   5    2   30 1
   6    4   54 1
   7    5    6 1
   8    5    9 2
   9    5   10 1
  10    6    7 1
  11    6   58 1
  12    7    8 2
  13    8    9 1
  14    8   59 1
  15    9   60 1
  16   10   11 2
  17   10   61 1
  18   11   12 1
  19   11   27 1
  20   12   13 2
  21   12   62 1
  22   13   14 1
  23   13   63 1
  24   14   15 1
  25   14   27 2
  26   15   16 2
  27   15   64 1
  28   16   17 1
  29   16   26 1
  30   17   18 2
  31   17   65 1
  32   18   19 1
  33   18   66 1
  34   19   20 1
  35   19   26 2
  36   20   21 2
  37   20   67 1
  38   21   22 1
  39   21   25 1
  40   22   23 2
  41   22   68 1
  42   23   24 1
  43   23   69 1
  44   24   25 2
  45   24   70 1
  46   28   29 ar
  47   28   33 ar
  48   28   34 1
  49   29   30 ar
  50   30   31 ar
  51   31   32 ar
  52   31   71 1
  53   32   33 ar
  54   32   35 1
  55   34   72 1
  56   34   73 1
  57   34   74 1
  58   35   36 1
  59   35   75 1
  60   36   37 ar
  61   36   41 ar
  62   37   38 ar
  63   37   42 1
  64   38   39 ar
  65   38   44 1
  66   39   40 ar
  67   39   76 1
  68   40   41 ar
  69   40   77 1
  70   42   43 1
  71   43   44 2
  72   43   45 1
  73   45   46 ar
  74   45   50 ar
  75   46   47 ar
  76   46   53 1
  77   47   48 ar
  78   47   78 1
  79   48   49 ar
  80   48   79 1
  81   49   50 ar
  82   49   80 1
  83   50   51 1
  84   51   52 3
  85   54   55 1
  86   54   57 1
  87   54   56 1
  88   55   81 1
  89   55   82 1
  90   55   83 1
  91   56   84 1
  92   56   85 1
  93   56   86 1
  94   57   87 1
  95   57   88 1
  96   57   89 1

#	End of record

