#	Name: ASD02398027
#	Creating user name:	WinNT
#	Creation time:	15. 06. 2019 20:20

#	Modifying user name:	WinNT
#	Modification time:	15. 06. 2019 20:20

#	Program:	/corina/corina34_cracker 3.40 0067  02.08.2006

@<TRIPOS>MOLECULE
ASD02398027
  57   60    0    0    0
SMALL
NO_CHARGES


@<TRIPOS>ATOM
   1 C1            -0.8241     1.0034     0.3582 C.ar    
   2 C2            -0.3883    -0.3248     0.3213 C.ar    
   3 C3            -1.2915    -1.3546     0.5725 C.ar    
   4 C4            -2.6101    -1.0604     0.8562 C.ar    
   5 C5            -3.0383     0.2546     0.8920 C.ar    
   6 C6            -2.1490     1.2846     0.6494 C.ar    
   7 C7            -3.5866    -2.1757     1.1273 C.3     
   8 C8            -3.5169    -2.5617     2.5824 C.2     
   9 O9            -2.6895    -2.0554     3.3028 O.2     
  10 O10           -4.3741    -3.4680     3.0781 O.3     
  11 C11            1.0295    -0.6355     0.0155 C.ar    
  12 C12            2.0335    -0.2773     0.9135 C.ar    
  13 C13            1.3621    -1.2916    -1.1679 C.ar    
  14 C14            2.6831    -1.5786    -1.4471 C.ar    
  15 C15            3.6757    -1.2161    -0.5548 C.ar    
  16 C16            3.3508    -0.5692     0.6241 C.ar    
  17 C17            1.6812     0.4279     2.1979 C.3     
  18 N18            2.8807     0.5571     3.0290 N.am    
  19 C19            3.7919     1.5352     2.9356 C.2     
  20 O20            4.7960     1.4247     3.8125 O.3     
  21 C21            4.5953     0.2382     4.6340 C.3     
  22 C22            3.2779    -0.3622     4.1065 C.3     
  23 O23            3.7135     2.4395     2.1278 O.2     
  24 C24            3.5136    -1.7662     3.5460 C.3     
  25 C25            5.7342    -0.7312     4.4492 C.ar    
  26 C26            6.1543    -1.5140     5.5082 C.ar    
  27 C27            6.3552    -0.8416     3.2190 C.ar    
  28 C28            7.3999    -1.7308     3.0495 C.ar    
  29 C29            7.8240    -2.5093     4.1101 C.ar    
  30 C30            7.1991    -2.4032     5.3386 C.ar    
  31 O31            0.0498     2.0146     0.1150 O.3     
  32 C32            5.1161    -1.5327    -0.8650 C.3     
  33 F33            5.1943    -2.1884    -2.0984 F       
  34 F34            5.8530    -0.3448    -0.9209 F       
  35 F35            5.6381    -2.3586     0.1362 F       
  36 H36           -0.9608    -2.3824     0.5450 H       
  37 H37           -4.0714     0.4776     1.1146 H       
  38 H38           -2.4892     2.3092     0.6787 H       
  39 H39           -4.5960    -1.8410     0.8882 H       
  40 H40           -3.3340    -3.0379     0.5102 H       
  41 H41           -4.2907    -3.6834     4.0171 H       
  42 H42            0.5878    -1.5754    -1.8652 H       
  43 H43            2.9421    -2.0874    -2.3639 H       
  44 H44            4.1299    -0.2884     1.3173 H       
  45 H45            1.2872     1.4188     1.9721 H       
  46 H46            0.9279    -0.1490     2.7343 H       
  47 H47            4.4928     0.5132     5.6838 H       
  48 H48            2.5249    -0.3847     4.8942 H       
  49 H49            3.9310    -2.4033     4.3257 H       
  50 H50            2.5671    -2.1842     3.2032 H       
  51 H51            4.2106    -1.7113     2.7097 H       
  52 H52            5.6665    -1.4307     6.4681 H       
  53 H53            6.0238    -0.2334     2.3904 H       
  54 H54            7.8845    -1.8176     2.0882 H       
  55 H55            8.6399    -3.2042     3.9776 H       
  56 H56            7.5304    -3.0114     6.1673 H       
  57 H57            0.1091     2.2677    -0.8164 H       
@<TRIPOS>BOND
   1    1    2 ar
   2    1   31 1
   3    1    6 ar
   4    2    3 ar
   5    2   11 1
   6    3    4 ar
   7    3   36 1
   8    4    5 ar
   9    4    7 1
  10    5    6 ar
  11    5   37 1
  12    6   38 1
  13    7    8 1
  14    7   39 1
  15    7   40 1
  16    8    9 2
  17    8   10 1
  18   10   41 1
  19   11   12 ar
  20   11   13 ar
  21   12   17 1
  22   12   16 ar
  23   13   14 ar
  24   13   42 1
  25   14   15 ar
  26   14   43 1
  27   15   16 ar
  28   15   32 1
  29   16   44 1
  30   17   18 1
  31   17   45 1
  32   17   46 1
  33   18   19 am
  34   18   22 1
  35   19   20 1
  36   19   23 2
  37   20   21 1
  38   21   22 1
  39   21   25 1
  40   21   47 1
  41   22   24 1
  42   22   48 1
  43   24   49 1
  44   24   50 1
  45   24   51 1
  46   25   26 ar
  47   25   27 ar
  48   26   30 ar
  49   26   52 1
  50   27   28 ar
  51   27   53 1
  52   28   29 ar
  53   28   54 1
  54   29   30 ar
  55   29   55 1
  56   30   56 1
  57   31   57 1
  58   32   33 1
  59   32   34 1
  60   32   35 1

#	End of record

