#	Name: ASD06170089
#	Creating user name:	WinNT
#	Creation time:	15. 06. 2019 21:05

#	Modifying user name:	WinNT
#	Modification time:	15. 06. 2019 21:05

#	Program:	/corina/corina34_cracker 3.40 0067  02.08.2006

@<TRIPOS>MOLECULE
ASD06170089
  59   63    0    0    0
SMALL
NO_CHARGES


@<TRIPOS>ATOM
   1 N1             0.2067    -1.9756     0.1336 N.pl3   
   2 N2            -0.0113    -0.6678    -0.3099 N.am    
   3 C3             1.1805    -0.1124    -0.6125 C.2     
   4 C4             2.2005    -1.1376    -0.3404 C.2     
   5 C5             1.5243    -2.2528     0.1145 C.2     
   6 C6             3.6511    -1.0019    -0.5180 C.2     
   7 O7             4.3863    -1.9347    -0.2536 O.2     
   8 N8             4.1688     0.1560    -0.9738 N.am    
   9 C9            -1.2564    -0.0405    -0.4219 C.ar    
  10 C10           -1.4444     1.2318     0.1024 C.ar    
  11 C11           -2.6749     1.8486    -0.0103 C.ar    
  12 C12           -3.7194     1.2006    -0.6438 C.ar    
  13 C13           -3.5357    -0.0664    -1.1665 C.ar    
  14 C14           -2.3059    -0.6862    -1.0626 C.ar    
  15 O15            1.3738     1.0146    -1.0286 O.2     
  16 C16            2.1550    -3.5595     0.5217 C.3     
  17 C17           -0.8422    -2.9045     0.5616 C.3     
  18 C18            5.5521     0.3261    -1.0327 C.ar    
  19 C19            6.0781     1.5636    -1.3866 C.ar    
  20 C20            7.4511     1.7213    -1.4420 C.ar    
  21 C21            8.2575     0.6269    -1.1389 C.ar    
  22 C22            7.6627    -0.5762    -0.7941 C.ar    
  23 N23            6.3491    -0.6903    -0.7459 N.ar    
  24 O24            9.6119     0.7375    -1.1812 O.3     
  25 N25           11.4946     2.4566     2.0606 N.ar    
  26 C26           10.1850     2.3801     2.0220 C.ar    
  27 C27            9.5162     1.8084     0.9472 C.ar    
  28 C28           10.2379     1.3014    -0.1193 C.ar    
  29 C29           11.6476     1.3891    -0.0670 C.ar    
  30 C30           12.4461     0.8972    -1.1100 C.ar    
  31 C31           13.8010     0.9964    -1.0303 C.ar    
  32 C32           14.4108     1.5844     0.0817 C.ar    
  33 C33           13.6547     2.0761     1.1216 C.ar    
  34 C34           12.2548     1.9867     1.0644 C.ar    
  35 O35           15.7653     1.6713     0.1368 O.3     
  36 C36           16.4950     1.1430    -0.9724 C.3     
  37 H37            3.5796     0.8710    -1.2609 H       
  38 H38           -0.6292     1.7381     0.5980 H       
  39 H39           -2.8217     2.8379     0.3972 H       
  40 H40           -4.6808     1.6850    -0.7303 H       
  41 H41           -4.3536    -0.5701    -1.6601 H       
  42 H42           -2.1617    -1.6738    -1.4753 H       
  43 H43            2.2210    -4.2169    -0.3453 H       
  44 H44            3.1549    -3.3738     0.9138 H       
  45 H45            1.5452    -4.0331     1.2911 H       
  46 H46           -1.2526    -3.4153    -0.3094 H       
  47 H47           -0.4196    -3.6385     1.2477 H       
  48 H48           -1.6346    -2.3507     1.0650 H       
  49 H49            5.4230     2.3910    -1.6158 H       
  50 H50            7.8877     2.6709    -1.7142 H       
  51 H51            8.2816    -1.4292    -0.5582 H       
  52 H52            9.6115     2.7722     2.8489 H       
  53 H53            8.4373     1.7595     0.9440 H       
  54 H54           11.9867     0.4405    -1.9741 H       
  55 H55           14.4123     0.6162    -1.8354 H       
  56 H56           14.1356     2.5285     1.9762 H       
  57 H57           17.5632     1.2760    -0.8012 H       
  58 H58           16.2737     0.0811    -1.0803 H       
  59 H59           16.2046     1.6689    -1.8820 H       
@<TRIPOS>BOND
   1    1    2 1
   2    1    5 1
   3    1   17 1
   4    2    3 am
   5    2    9 1
   6    3    4 1
   7    3   15 2
   8    4    5 2
   9    4    6 1
  10    5   16 1
  11    6    7 2
  12    6    8 am
  13    8   18 1
  14    8   37 1
  15    9   10 ar
  16    9   14 ar
  17   10   11 ar
  18   10   38 1
  19   11   12 ar
  20   11   39 1
  21   12   13 ar
  22   12   40 1
  23   13   14 ar
  24   13   41 1
  25   14   42 1
  26   16   43 1
  27   16   44 1
  28   16   45 1
  29   17   46 1
  30   17   47 1
  31   17   48 1
  32   18   19 ar
  33   18   23 ar
  34   19   20 ar
  35   19   49 1
  36   20   21 ar
  37   20   50 1
  38   21   22 ar
  39   21   24 1
  40   22   23 ar
  41   22   51 1
  42   24   28 1
  43   25   26 ar
  44   25   34 ar
  45   26   27 ar
  46   26   52 1
  47   27   28 ar
  48   27   53 1
  49   28   29 ar
  50   29   30 ar
  51   29   34 ar
  52   30   31 ar
  53   30   54 1
  54   31   32 ar
  55   31   55 1
  56   32   33 ar
  57   32   35 1
  58   33   34 ar
  59   33   56 1
  60   35   36 1
  61   36   57 1
  62   36   58 1
  63   36   59 1

#	End of record

