#	Name: ASD01884775
#	Creating user name:	WinNT
#	Creation time:	15. 06. 2019 19:48

#	Modifying user name:	WinNT
#	Modification time:	15. 06. 2019 19:48

#	Program:	/corina/corina34_cracker 3.40 0067  02.08.2006

@<TRIPOS>MOLECULE
ASD01884775
  39   41    0    0    0
SMALL
NO_CHARGES


@<TRIPOS>ATOM
   1 N1            -0.0163     1.3534     0.0095 N.am    
   2 C2             0.0021    -0.0041     0.0020 C.2     
   3 C3             1.1314     2.0576     0.0023 C.2     
   4 C4             2.3671     1.3883    -0.0131 C.2     
   5 C5             2.3876     0.0245    -0.0207 C.2     
   6 C6             1.1751    -0.6792    -0.0129 C.2     
   7 C7            -1.2995     2.0602     0.0194 C.3     
   8 C8            -1.7328     2.2948     1.4436 C.ar    
   9 C9            -1.6300     3.5563     1.9981 C.ar    
  10 C10           -2.2393     1.2474     2.1947 C.ar    
  11 C11           -2.6375     1.4639     3.5026 C.ar    
  12 C12           -2.5290     2.7262     4.0578 C.ar    
  13 C13           -2.0277     3.7726     3.3043 C.ar    
  14 Cl14          -3.0280     2.9989     5.6981 Cl      
  15 O15            1.0986     3.2777     0.0088 O.2     
  16 C16            1.1777    -2.1862    -0.0205 C.3     
  17 O17           -0.1687    -2.6649    -0.0103 O.3     
  18 C18           -0.3444    -4.0125    -0.0155 C.ar    
  19 C19           -1.6249    -4.5463    -0.0061 C.ar    
  20 C20            0.7564    -4.8567    -0.0359 C.ar    
  21 C21            0.5751    -6.2262    -0.0416 C.ar    
  22 C22           -0.7020    -6.7557    -0.0274 C.ar    
  23 C23           -1.8008    -5.9165    -0.0119 C.ar    
  24 F24           -2.3452     0.0151     1.6511 F       
  25 H25           -0.9291    -0.5510     0.0084 H       
  26 H26            3.2908     1.9479    -0.0193 H       
  27 H27            3.3275    -0.5074    -0.0329 H       
  28 H28           -1.1908     3.0178    -0.4898 H       
  29 H29           -2.0496     1.4587    -0.4942 H       
  30 H30           -1.2384     4.3737     1.4108 H       
  31 H31           -3.0330     0.6478     4.0891 H       
  32 H32           -1.9427     4.7579     3.7383 H       
  33 H33            1.6838    -2.5441    -0.9171 H       
  34 H34            1.7005    -2.5531     0.8627 H       
  35 H35           -2.4834    -3.8913     0.0060 H       
  36 H36            1.7542    -4.4435    -0.0477 H       
  37 H37            1.4317    -6.8837    -0.0575 H       
  38 H38           -0.8416    -7.8266    -0.0323 H       
  39 H39           -2.7974    -6.3326    -0.0005 H       
@<TRIPOS>BOND
   1    1    2 1
   2    1    3 am
   3    1    7 1
   4    2    6 2
   5    2   25 1
   6    3    4 1
   7    3   15 2
   8    4    5 2
   9    4   26 1
  10    5    6 1
  11    5   27 1
  12    6   16 1
  13    7    8 1
  14    7   28 1
  15    7   29 1
  16    8    9 ar
  17    8   10 ar
  18    9   13 ar
  19    9   30 1
  20   10   11 ar
  21   10   24 1
  22   11   12 ar
  23   11   31 1
  24   12   13 ar
  25   12   14 1
  26   13   32 1
  27   16   17 1
  28   16   33 1
  29   16   34 1
  30   17   18 1
  31   18   19 ar
  32   18   20 ar
  33   19   23 ar
  34   19   35 1
  35   20   21 ar
  36   20   36 1
  37   21   22 ar
  38   21   37 1
  39   22   23 ar
  40   22   38 1
  41   23   39 1

#	End of record

