#	Name: ASD01810083
#	Creating user name:	WinNT
#	Creation time:	15. 06. 2019 19:23

#	Modifying user name:	WinNT
#	Modification time:	15. 06. 2019 19:23

#	Program:	/corina/corina34_cracker 3.40 0067  02.08.2006

@<TRIPOS>MOLECULE
ASD01810083
  39   42    0    0    0
SMALL
NO_CHARGES


@<TRIPOS>ATOM
   1 C1            -0.0167     1.3804     0.0096 C.ar    
   2 C2             0.0021    -0.0041     0.0020 C.ar    
   3 C3             1.2005    -0.6935    -0.0132 C.ar    
   4 C4             2.4043    -0.0017    -0.0205 C.ar    
   5 C5             2.3825     1.4028    -0.0128 C.ar    
   6 C6             1.1684     2.0883     0.0021 C.ar    
   7 N7             3.7234    -0.4489    -0.0358 N.am    
   8 C8             4.5905     0.5782    -0.0388 C.2     
   9 C9             3.7890     1.8460    -0.0242 C.2     
  10 O10            4.2062     2.9855    -0.0225 O.2     
  11 O11            5.8007     0.4950    -0.0505 O.2     
  12 C12            4.1161    -1.8603    -0.0472 C.3     
  13 C13            4.2368    -2.3366    -1.4719 C.ar    
  14 C14            5.4474    -2.2329    -2.1329 C.ar    
  15 C15            5.5636    -2.6680    -3.4376 C.ar    
  16 C16            4.4589    -3.2124    -4.0886 C.ar    
  17 C17            3.2421    -3.3146    -3.4182 C.ar    
  18 C18            3.1382    -2.8812    -2.1119 C.ar    
  19 C19            4.5779    -3.6817    -5.4922 C.2     
  20 C20            5.7392    -3.6402    -6.2881 C.2     
  21 N21            5.4472    -4.1421    -7.4587 N.2     
  22 N22            4.0992    -4.5208    -7.4567 N.pl3   
  23 C23            3.5837    -4.2370    -6.2437 C.2     
  24 C24            3.3754    -5.1260    -8.5775 C.3     
  25 H25           -0.9596     1.9070     0.0170 H       
  26 H26           -0.9291    -0.5511     0.0084 H       
  27 H27            1.2002    -1.7735    -0.0190 H       
  28 H28            1.1552     3.1682     0.0077 H       
  29 H29            5.0759    -1.9745     0.4566 H       
  30 H30            3.3611    -2.4517     0.4708 H       
  31 H31            6.3031    -1.8103    -1.6274 H       
  32 H32            6.5091    -2.5863    -3.9530 H       
  33 H33            2.3826    -3.7359    -3.9184 H       
  34 H34            2.1953    -2.9599    -1.5912 H       
  35 H35            6.7030    -3.2595    -5.9839 H       
  36 H36            2.5661    -4.4113    -5.9265 H       
  37 H37            3.4588    -6.2113    -8.5202 H       
  38 H38            2.3250    -4.8392    -8.5288 H       
  39 H39            3.8040    -4.7777    -9.5172 H       
@<TRIPOS>BOND
   1    1    2 ar
   2    1    6 ar
   3    1   25 1
   4    2    3 ar
   5    2   26 1
   6    3    4 ar
   7    3   27 1
   8    4    5 ar
   9    4    7 1
  10    5    6 ar
  11    5    9 1
  12    6   28 1
  13    7    8 am
  14    7   12 1
  15    8    9 1
  16    8   11 2
  17    9   10 2
  18   12   13 1
  19   12   29 1
  20   12   30 1
  21   13   14 ar
  22   13   18 ar
  23   14   15 ar
  24   14   31 1
  25   15   16 ar
  26   15   32 1
  27   16   17 ar
  28   16   19 1
  29   17   18 ar
  30   17   33 1
  31   18   34 1
  32   19   20 1
  33   19   23 2
  34   20   21 2
  35   20   35 1
  36   21   22 1
  37   22   23 1
  38   22   24 1
  39   23   36 1
  40   24   37 1
  41   24   38 1
  42   24   39 1

#	End of record

