#	Name: ASD07330001
#	Creating user name:	WinNT
#	Creation time:	15. 06. 2019 21:11

#	Modifying user name:	WinNT
#	Modification time:	15. 06. 2019 21:11

#	Program:	/corina/corina34_cracker 3.40 0067  02.08.2006

@<TRIPOS>MOLECULE
ASD07330001
  80   84    0    0    0
SMALL
NO_CHARGES


@<TRIPOS>ATOM
   1 C1            12.2106     0.4000    -0.5084 C.ar    
   2 C2            11.5069     0.5376    -1.6957 C.ar    
   3 N3            10.2227     0.2601    -1.7756 N.ar    
   4 C4             9.5382    -0.1668    -0.7190 C.ar    
   5 C5            10.1933    -0.3300     0.5228 C.ar    
   6 C6            11.5538    -0.0404     0.6272 C.ar    
   7 N7             8.2155    -0.4524    -0.8002 N.2     
   8 C8             7.5424    -0.8694     0.2297 C.2     
   9 N9             8.0915    -1.0540     1.4587 N.am    
  10 C10            9.4053    -0.8029     1.6684 C.2     
  11 O11            9.9133    -0.9633     2.7630 O.2     
  12 C12            7.2919    -1.5071     2.5173 C.ar    
  13 C13            7.4657    -2.7900     3.0192 C.ar    
  14 C14            6.6783    -3.2355     4.0621 C.ar    
  15 C15            5.7133    -2.4016     4.6085 C.ar    
  16 C16            5.5392    -1.1196     4.1073 C.ar    
  17 C17            6.3296    -0.6711     3.0680 C.ar    
  18 C18            6.0751    -1.1635     0.0520 C.3     
  19 C19            5.5823    -0.5308    -1.2510 C.3     
  20 N20            5.8706    -2.6132    -0.0012 N.am    
  21 C21            6.4030    -3.3323    -1.0092 C.2     
  22 C22            5.0874    -3.2812     1.0411 C.3     
  23 C23            3.6393    -3.4345     0.5716 C.3     
  24 C24            2.8592    -4.2765     1.5851 C.3     
  25 C25            1.3978    -4.3753     1.1415 C.3     
  26 N26            0.8206    -3.0281     1.0499 N.3     
  27 C27            1.5237    -2.2162     0.0484 C.3     
  28 C28            2.9888    -2.0529     0.4593 C.3     
  29 C29            6.1926    -4.8235    -1.0639 C.3     
  30 O30            7.0514    -2.7793    -1.8721 O.2     
  31 C31            6.8850    -5.3843    -2.2793 C.ar    
  32 C32            8.1987    -5.8054    -2.1928 C.ar    
  33 C33            8.8346    -6.3203    -3.3068 C.ar    
  34 C34            8.1554    -6.4141    -4.5094 C.ar    
  35 C35            6.8393    -5.9919    -4.5948 C.ar    
  36 C36            6.2040    -5.4824    -3.4786 C.ar    
  37 F37            8.7762    -6.9168    -5.5990 F       
  38 C38           -0.6184    -3.0905     0.7611 C.3     
  39 H39           -1.1368    -3.5590     1.5976 H       
  40 H40           -1.0035    -2.0814     0.6141 H       
  41 H41           -0.7825    -3.6772    -0.1427 H       
  42 C42            6.0987    -6.0929    -5.9034 C.3     
  43 F43            4.7963    -5.6086    -5.7407 F       
  44 F44            6.7608    -5.3334    -6.8738 F       
  45 F45            6.0514    -7.4306    -6.3103 F       
  46 O46            4.9380    -2.8410     5.6350 O.3     
  47 C47            3.1945    -2.5964     7.2906 C.3     
  48 C48            3.9646    -1.9297     6.1490 C.3     
  49 H49           13.2650     0.6308    -0.4715 H       
  50 H50           12.0263     0.8819    -2.5778 H       
  51 H51           12.0781    -0.1570     1.5642 H       
  52 H52            8.2166    -3.4393     2.5938 H       
  53 H53            6.8132    -4.2334     4.4524 H       
  54 H54            4.7877    -0.4711     4.5328 H       
  55 H55            6.1942     0.3269     2.6782 H       
  56 H56            5.5171    -0.7484     0.8913 H       
  57 H57            6.2236    -0.8469    -2.0737 H       
  58 H58            4.5583    -0.8498    -1.4452 H       
  59 H59            5.6139     0.5552    -1.1622 H       
  60 H60            5.5112    -4.2656     1.2394 H       
  61 H61            5.1124    -2.6845     1.9530 H       
  62 H62            3.6219    -3.9265    -0.4009 H       
  63 H63            3.2918    -5.2755     1.6379 H       
  64 H64            2.9105    -3.8047     2.5663 H       
  65 H65            1.3463    -4.8596     0.1664 H       
  66 H66            0.8365    -4.9622     1.8685 H       
  67 H67            1.4715    -2.7106    -0.9216 H       
  68 H68            1.0537    -1.2350    -0.0185 H       
  69 H69            3.0421    -1.5462     1.4229 H       
  70 H70            3.5140    -1.4634    -0.2921 H       
  71 H71            6.6066    -5.2821    -0.1659 H       
  72 H72            5.1255    -5.0380    -1.1224 H       
  73 H73            8.7285    -5.7318    -1.2546 H       
  74 H74            9.8612    -6.6490    -3.2390 H       
  75 H75            5.1775    -5.1530    -3.5450 H       
  76 H76            2.4521    -1.9013     7.6827 H       
  77 H77            2.6942    -3.4903     6.9180 H       
  78 H78            3.8885    -2.8727     8.0844 H       
  79 H79            4.4649    -1.0358     6.5217 H       
  80 H80            3.2707    -1.6534     5.3552 H       
@<TRIPOS>BOND
   1    1    2 ar
   2    1    6 ar
   3    1   49 1
   4    2    3 ar
   5    2   50 1
   6    3    4 ar
   7    4    5 ar
   8    4    7 1
   9    5    6 ar
  10    5   10 1
  11    6   51 1
  12    7    8 2
  13    8    9 1
  14    8   18 1
  15    9   10 am
  16    9   12 1
  17   10   11 2
  18   12   13 ar
  19   12   17 ar
  20   13   14 ar
  21   13   52 1
  22   14   15 ar
  23   14   53 1
  24   15   16 ar
  25   15   46 1
  26   16   17 ar
  27   16   54 1
  28   17   55 1
  29   18   19 1
  30   18   20 1
  31   18   56 1
  32   19   57 1
  33   19   58 1
  34   19   59 1
  35   20   21 am
  36   20   22 1
  37   21   29 1
  38   21   30 2
  39   22   23 1
  40   22   60 1
  41   22   61 1
  42   23   24 1
  43   23   28 1
  44   23   62 1
  45   24   25 1
  46   24   63 1
  47   24   64 1
  48   25   26 1
  49   25   65 1
  50   25   66 1
  51   26   27 1
  52   26   38 1
  53   27   28 1
  54   27   67 1
  55   27   68 1
  56   28   69 1
  57   28   70 1
  58   29   31 1
  59   29   71 1
  60   29   72 1
  61   31   32 ar
  62   31   36 ar
  63   32   33 ar
  64   32   73 1
  65   33   34 ar
  66   33   74 1
  67   34   35 ar
  68   34   37 1
  69   35   36 ar
  70   35   42 1
  71   36   75 1
  72   38   39 1
  73   38   40 1
  74   38   41 1
  75   42   43 1
  76   42   44 1
  77   42   45 1
  78   46   48 1
  79   47   48 1
  80   47   76 1
  81   47   77 1
  82   47   78 1
  83   48   79 1
  84   48   80 1

#	End of record

