#	Name: ASD03240450
#	Creating user name:	WinNT
#	Creation time:	15. 06. 2019 20:35

#	Modifying user name:	WinNT
#	Modification time:	15. 06. 2019 20:35

#	Program:	/corina/corina34_cracker 3.40 0067  02.08.2006

@<TRIPOS>MOLECULE
ASD03240450
  44   46    0    0    0
SMALL
NO_CHARGES


@<TRIPOS>ATOM
   1 O1            -0.0163     1.3526     0.0095 O.3     
   2 C2             0.0021    -0.0041     0.0020 C.ar    
   3 C3             2.1147     3.7826    -1.5477 C.ar    
   4 C4             1.1122     3.3452    -0.7010 C.ar    
   5 C5             1.2480     2.0187     0.0010 C.3     
   6 C6             1.9954     4.9968    -2.1932 C.ar    
   7 C7             0.8628     5.7821    -1.9907 C.ar    
   8 C8            -0.1437     5.3370    -1.1366 C.ar    
   9 C9            -0.0143     4.1212    -0.4961 C.ar    
  10 C10            0.7292     7.0893    -2.6820 C.2     
  11 N11            1.1600    -0.6418    -0.0125 N.ar    
  12 C12           -0.3205     7.9543    -2.5752 C.2     
  13 N13           -0.0532     9.0187    -3.3583 N.pl3   
  14 N14            1.1908     8.8128    -3.9669 N.2     
  15 C15            1.6659     7.6646    -3.5626 C.2     
  16 C16            1.7129     2.2486     1.4404 C.3     
  17 N17            1.9603     0.9534     2.0879 N.3     
  18 C18            2.4094     1.1354     3.4746 C.3     
  19 C19           -1.1954    -0.7068     0.0155 C.ar    
  20 C20           -1.1601    -2.1024     0.0080 C.ar    
  21 C21            0.0891    -2.7325    -0.0128 C.ar    
  22 C22            1.2319    -1.9586    -0.0198 C.ar    
  23 C23           -2.4118    -2.8951     0.0223 C.2     
  24 N24           -2.3567    -4.2417     0.0148 N.am    
  25 O25           -3.4879    -2.3311     0.0407 O.2     
  26 H26            2.9944     3.1751    -1.7005 H       
  27 H27            1.9792     1.4034    -0.5232 H       
  28 H28            2.7789     5.3376    -2.8538 H       
  29 H29           -1.0238     5.9420    -0.9762 H       
  30 H30           -0.7942     3.7751     0.1660 H       
  31 H31           -1.2053     7.8120    -1.9725 H       
  32 H32           -0.6243     9.7934    -3.4794 H       
  33 H33            2.6091     7.2293    -3.8579 H       
  34 H34            2.6323     2.8341     1.4360 H       
  35 H35            0.9413     2.7879     1.9897 H       
  36 H36            1.1406     0.3665     2.0473 H       
  37 H37            1.6426     1.6670     4.0381 H       
  38 H38            2.5853     0.1610     3.9304 H       
  39 H39            3.3336     1.7132     3.4844 H       
  40 H40           -2.1392    -0.1820     0.0318 H       
  41 H41            0.1582    -3.8103    -0.0188 H       
  42 H42            2.1993    -2.4385    -0.0358 H       
  43 H43           -1.4976    -4.6919     0.0001 H       
  44 H44           -3.1761    -4.7607     0.0241 H       
@<TRIPOS>BOND
   1    1    2 1
   2    1    5 1
   3    2   11 ar
   4    2   19 ar
   5    3    4 ar
   6    3    6 ar
   7    3   26 1
   8    4    5 1
   9    4    9 ar
  10    5   16 1
  11    5   27 1
  12    6    7 ar
  13    6   28 1
  14    7    8 ar
  15    7   10 1
  16    8    9 ar
  17    8   29 1
  18    9   30 1
  19   10   12 2
  20   10   15 1
  21   11   22 ar
  22   12   13 1
  23   12   31 1
  24   13   14 1
  25   13   32 1
  26   14   15 2
  27   15   33 1
  28   16   17 1
  29   16   34 1
  30   16   35 1
  31   17   18 1
  32   17   36 1
  33   18   37 1
  34   18   38 1
  35   18   39 1
  36   19   20 ar
  37   19   40 1
  38   20   21 ar
  39   20   23 1
  40   21   22 ar
  41   21   41 1
  42   22   42 1
  43   23   24 am
  44   23   25 2
  45   24   43 1
  46   24   44 1

#	End of record

