#	Name: ASD01911416
#	Creating user name:	WinNT
#	Creation time:	15. 06. 2019 19:57

#	Modifying user name:	WinNT
#	Modification time:	15. 06. 2019 19:57

#	Program:	/corina/corina34_cracker 3.40 0067  02.08.2006

@<TRIPOS>MOLECULE
ASD01911416
  28   30    0    0    0
SMALL
NO_CHARGES


@<TRIPOS>ATOM
   1 C1            -0.0167     1.3788     0.0096 C.ar    
   2 C2             0.0021    -0.0041     0.0020 C.ar    
   3 C3             1.2059    -0.6876    -0.0132 C.ar    
   4 C4             2.3976     0.0057    -0.0204 C.ar    
   5 C5             2.3895     1.4036    -0.0129 C.ar    
   6 C6             1.1689     2.0888     0.0021 C.ar    
   7 C7             3.6232     2.1306    -0.0198 C.1     
   8 C8             4.6346     2.7267    -0.0256 C.1     
   9 C9             5.8683     3.4538    -0.0325 C.ar    
  10 C10            5.8545     4.8562    -0.0249 C.ar    
  11 C11            7.0490     5.5500    -0.0312 C.ar    
  12 C12            8.2736     4.8468    -0.0453 C.ar    
  13 C13            8.2785     3.4577    -0.0528 C.ar    
  14 C14            7.0848     2.7643    -0.0411 C.ar    
  15 C15            7.4073     6.9845    -0.0265 C.2     
  16 N16            8.7483     7.0898    -0.0373 N.am    
  17 C17            9.3298     5.8771    -0.0487 C.2     
  18 O18           10.5261     5.6652    -0.0599 O.2     
  19 O19            6.6230     7.9117    -0.0153 O.2     
  20 F20            1.1500     3.4397     0.0091 F       
  21 H21           -0.9599     1.9049     0.0170 H       
  22 H22           -0.9275    -0.5538     0.0083 H       
  23 H23            1.2115    -1.7676    -0.0190 H       
  24 H24            3.3353    -0.5301    -0.0316 H       
  25 H25            4.9159     5.3903    -0.0144 H       
  26 H26            9.2154     2.9206    -0.0636 H       
  27 H27            7.0904     1.6844    -0.0466 H       
  28 H28            9.2325     7.9303    -0.0365 H       
@<TRIPOS>BOND
   1    1    2 ar
   2    1    6 ar
   3    1   21 1
   4    2    3 ar
   5    2   22 1
   6    3    4 ar
   7    3   23 1
   8    4    5 ar
   9    4   24 1
  10    5    6 ar
  11    5    7 1
  12    6   20 1
  13    7    8 3
  14    8    9 1
  15    9   10 ar
  16    9   14 ar
  17   10   11 ar
  18   10   25 1
  19   11   12 ar
  20   11   15 1
  21   12   13 ar
  22   12   17 1
  23   13   14 ar
  24   13   26 1
  25   14   27 1
  26   15   16 am
  27   15   19 2
  28   16   17 am
  29   16   28 1
  30   17   18 2

#	End of record

