#	Name: ASD05213037
#	Creating user name:	WinNT
#	Creation time:	15. 06. 2019 20:57

#	Modifying user name:	WinNT
#	Modification time:	15. 06. 2019 20:57

#	Program:	/corina/corina34_cracker 3.40 0067  02.08.2006

@<TRIPOS>MOLECULE
ASD05213037
  29   31    0    0    0
SMALL
NO_CHARGES


@<TRIPOS>ATOM
   1 S1            -0.0218     1.7577     0.0117 S.3     
   2 C2             0.0021    -0.0041     0.0020 C.2     
   3 N3             1.0700    -0.7253    -0.0116 N.2     
   4 C4             0.9252    -2.0665    -0.0175 C.ar    
   5 C5            -0.4136    -2.4682    -0.0075 C.ar    
   6 S6            -1.4274    -1.0273     0.0171 S.3     
   7 C7             1.9258    -3.0613    -0.0320 C.ar    
   8 C8             1.5866    -4.3903    -0.0360 C.ar    
   9 C9             0.2506    -4.7791    -0.0264 C.ar    
  10 C10           -0.7445    -3.8212    -0.0113 C.ar    
  11 C11            1.7090     2.0873    -0.0030 C.2     
  12 S12            2.4657     3.6818    -0.0017 S.3     
  13 C13            4.0450     2.8943    -0.0210 C.2     
  14 N14            3.8507     1.6153    -0.0261 N.2     
  15 N15            2.6608     1.1980    -0.0112 N.2     
  16 O16           -0.0747    -6.0995    -0.0314 O.3     
  17 C17            1.0063    -7.0339    -0.0466 C.3     
  18 C18            0.4487    -8.4587    -0.0502 C.3     
  19 N19            5.3601     3.5769    -0.0307 N.pl3   
  20 O20            5.4147     4.7936    -0.0254 O.2     
  21 O21            6.3865     2.9212    -0.0439 O.2     
  22 H22            2.9669    -2.7740    -0.0403 H       
  23 H23            2.3628    -5.1411    -0.0471 H       
  24 H24           -1.7817    -4.1220    -0.0035 H       
  25 H25            1.6092    -6.8775    -0.9411 H       
  26 H26            1.6251    -6.8881     0.8387 H       
  27 H27           -0.1542    -8.6152     0.8443 H       
  28 H28           -0.1701    -8.6045    -0.9355 H       
  29 H29            1.2733    -9.1715    -0.0618 H       
@<TRIPOS>BOND
   1    1    2 1
   2    1   11 1
   3    2    3 2
   4    2    6 1
   5    3    4 1
   6    4    5 ar
   7    4    7 ar
   8    5    6 1
   9    5   10 ar
  10    7    8 ar
  11    7   22 1
  12    8    9 ar
  13    8   23 1
  14    9   10 ar
  15    9   16 1
  16   10   24 1
  17   11   12 1
  18   11   15 2
  19   12   13 1
  20   13   14 2
  21   13   19 1
  22   14   15 1
  23   16   17 1
  24   17   18 1
  25   17   25 1
  26   17   26 1
  27   18   27 1
  28   18   28 1
  29   18   29 1
  30   19   20 2
  31   19   21 2

#	End of record

