#	Name: ASD03430795
#	Creating user name:	WinNT
#	Creation time:	15. 06. 2019 20:41

#	Modifying user name:	WinNT
#	Modification time:	15. 06. 2019 20:41

#	Program:	/corina/corina34_cracker 3.40 0067  02.08.2006

@<TRIPOS>MOLECULE
ASD03430795
  40   43    0    0    0
SMALL
NO_CHARGES


@<TRIPOS>ATOM
   1 C1            -0.0167     1.3830     0.0096 C.ar    
   2 C2             0.0021    -0.0041     0.0020 C.ar    
   3 C3             1.2036    -0.6787    -0.0135 C.ar    
   4 C4             2.4077     0.0192    -0.0109 C.ar    
   5 C5             2.3812     1.4108    -0.0080 C.ar    
   6 C6             1.1790     2.0862     0.0020 C.ar    
   7 C7             1.5556    -2.1416    -0.0486 C.3     
   8 C8             3.0417    -2.1373    -0.4329 C.3     
   9 C9             0.4335    -3.8596     1.0051 C.ar    
  10 C10            1.3205    -2.8185     1.2690 C.ar    
  11 C11            0.7248    -2.9031    -1.0412 C.2     
  12 N12            0.1049    -3.8819    -0.3524 N.am    
  13 O13            0.6297    -2.6804    -2.2297 O.2     
  14 C14            1.7860    -2.6018     2.5463 C.ar    
  15 C15            1.3739    -3.4211     3.5827 C.ar    
  16 C16            0.4932    -4.4571     3.3323 C.ar    
  17 C17            0.0235    -4.6783     2.0540 C.ar    
  18 O18            3.4724    -0.8329     0.0010 O.3     
  19 O19           -1.2016     2.0502     0.0189 O.3     
  20 C20           -1.1422     3.4779     0.0264 C.3     
  21 C21           -2.5622     4.0475     0.0362 C.3     
  22 O22           -3.2105     3.6897     1.2584 O.3     
  23 C23           -4.5499     4.1751     1.3696 C.3     
  24 H24           -0.9262    -0.5560     0.0086 H       
  25 H25            3.3081     1.9652    -0.0135 H       
  26 H26            1.1683     3.1661     0.0035 H       
  27 H27            3.5815    -2.9203     0.0997 H       
  28 H28            3.1631    -2.2464    -1.5106 H       
  29 H29           -0.4988    -4.5270    -0.7529 H       
  30 H30            2.4739    -1.7919     2.7396 H       
  31 H31            1.7391    -3.2513     4.5848 H       
  32 H32            0.1717    -5.0965     4.1412 H       
  33 H33           -0.6645    -5.4894     1.8664 H       
  34 H34           -0.6095     3.8148     0.9157 H       
  35 H35           -0.6179     3.8244    -0.8642 H       
  36 H36           -2.5188     5.1334    -0.0477 H       
  37 H37           -3.1228     3.6402    -0.8052 H       
  38 H38           -4.5477     5.2636     1.3134 H       
  39 H39           -5.1517     3.7705     0.5559 H       
  40 H40           -4.9719     3.8614     2.3244 H       
@<TRIPOS>BOND
   1    1    2 ar
   2    1    6 ar
   3    1   19 1
   4    2    3 ar
   5    2   24 1
   6    3    4 ar
   7    3    7 1
   8    4    5 ar
   9    4   18 1
  10    5    6 ar
  11    5   25 1
  12    6   26 1
  13    7    8 1
  14    7   10 1
  15    7   11 1
  16    8   18 1
  17    8   27 1
  18    8   28 1
  19    9   10 ar
  20    9   12 1
  21    9   17 ar
  22   10   14 ar
  23   11   12 am
  24   11   13 2
  25   12   29 1
  26   14   15 ar
  27   14   30 1
  28   15   16 ar
  29   15   31 1
  30   16   17 ar
  31   16   32 1
  32   17   33 1
  33   19   20 1
  34   20   21 1
  35   20   34 1
  36   20   35 1
  37   21   22 1
  38   21   36 1
  39   21   37 1
  40   22   23 1
  41   23   38 1
  42   23   39 1
  43   23   40 1

#	End of record

