#	Name: ASD01883087
#	Creating user name:	WinNT
#	Creation time:	15. 06. 2019 19:45

#	Modifying user name:	WinNT
#	Modification time:	15. 06. 2019 19:45

#	Program:	/corina/corina34_cracker 3.40 0067  02.08.2006

@<TRIPOS>MOLECULE
ASD01883087
  51   54    0    0    0
SMALL
NO_CHARGES


@<TRIPOS>ATOM
   1 O1            -1.8858     3.3837     1.1752 O.3     
   2 N2             4.3365     3.7601     1.8907 N.am    
   3 C3             4.6556     2.7528     2.7242 C.2     
   4 C4             5.2555     3.0347     3.9764 C.2     
   5 C5             5.5044     4.3757     4.3187 C.2     
   6 C6             5.1473     5.3850     3.4029 C.2     
   7 C7             4.5823     5.0545     2.2198 C.2     
   8 O8             4.4283     1.5990     2.4024 O.2     
   9 C9             5.6010     1.9752     4.8756 C.1     
  10 N10            5.8752     1.1347     5.5890 N.1     
  11 C11            3.7167     3.4536     0.5992 C.3     
  12 C12            2.2177     3.4349     0.7532 C.ar    
  13 C13            1.4901     4.5956     0.5659 C.ar    
  14 C14            0.1159     4.5810     0.7065 C.ar    
  15 C15           -0.5340     3.4005     1.0359 C.ar    
  16 C16            0.1983     2.2372     1.2234 C.ar    
  17 C17            1.5717     2.2558     1.0760 C.ar    
  18 C18            6.1277     4.7194     5.6135 C.ar    
  19 C19            7.3927     5.3115     5.6466 C.ar    
  20 C20            7.9704     5.6304     6.8555 C.ar    
  21 C21            7.2968     5.3635     8.0417 C.ar    
  22 C22            6.0383     4.7742     8.0129 C.ar    
  23 C23            5.4511     4.4584     6.8077 C.ar    
  24 O24            7.8696     5.6789     9.2312 O.3     
  25 C25            8.6237     4.7311     9.8473 C.ar    
  26 C26            8.8793     3.5246     9.2114 C.ar    
  27 C27            9.6466     2.5631     9.8397 C.ar    
  28 C28           10.1597     2.8019    11.1012 C.ar    
  29 C29            9.9065     4.0033    11.7372 C.ar    
  30 C30            9.1443     4.9704    11.1111 C.ar    
  31 C31           -2.4874     2.1330     1.5156 C.3     
  32 F32           -1.9777     1.6883     2.7402 F       
  33 F33           -3.8732     2.2948     1.6183 F       
  34 F34           -2.2003     1.1915     0.5214 F       
  35 H35            5.3287     6.4220     3.6440 H       
  36 H36            4.3130     5.8367     1.5255 H       
  37 H37            3.9977     4.2149    -0.1285 H       
  38 H38            4.0587     2.4777     0.2545 H       
  39 H39            1.9966     5.5144     0.3098 H       
  40 H40           -0.4519     5.4880     0.5604 H       
  41 H41           -0.3053     1.3170     1.4803 H       
  42 H42            2.1423     1.3504     1.2215 H       
  43 H43            7.9170     5.5185     4.7254 H       
  44 H44            8.9483     6.0881     6.8819 H       
  45 H45            5.5183     4.5677     8.9367 H       
  46 H46            4.4731     4.0008     6.7861 H       
  47 H47            8.4785     3.3374     8.2261 H       
  48 H48            9.8456     1.6237     9.3453 H       
  49 H49           10.7591     2.0487    11.5909 H       
  50 H50           10.3085     4.1874    12.7225 H       
  51 H51            8.9470     5.9087    11.6082 H       
@<TRIPOS>BOND
   1    1   31 1
   2    1   15 1
   3    2    3 am
   4    2   11 1
   5    2    7 1
   6    3    4 1
   7    3    8 2
   8    4    5 2
   9    4    9 1
  10    5    6 1
  11    5   18 1
  12    6    7 2
  13    6   35 1
  14    7   36 1
  15    9   10 3
  16   11   12 1
  17   11   37 1
  18   11   38 1
  19   12   13 ar
  20   12   17 ar
  21   13   14 ar
  22   13   39 1
  23   14   15 ar
  24   14   40 1
  25   15   16 ar
  26   16   17 ar
  27   16   41 1
  28   17   42 1
  29   18   19 ar
  30   18   23 ar
  31   19   20 ar
  32   19   43 1
  33   20   21 ar
  34   20   44 1
  35   21   22 ar
  36   21   24 1
  37   22   23 ar
  38   22   45 1
  39   23   46 1
  40   24   25 1
  41   25   26 ar
  42   25   30 ar
  43   26   27 ar
  44   26   47 1
  45   27   28 ar
  46   27   48 1
  47   28   29 ar
  48   28   49 1
  49   29   30 ar
  50   29   50 1
  51   30   51 1
  52   31   32 1
  53   31   33 1
  54   31   34 1

#	End of record

