#	Name: ASD03430786
#	Creating user name:	WinNT
#	Creation time:	15. 06. 2019 20:41

#	Modifying user name:	WinNT
#	Modification time:	15. 06. 2019 20:41

#	Program:	/corina/corina34_cracker 3.40 0067  02.08.2006

@<TRIPOS>MOLECULE
ASD03430786
  37   41    0    0    0
SMALL
NO_CHARGES


@<TRIPOS>ATOM
   1 C1            -0.0168     1.3866     0.0097 C.ar    
   2 C2             0.0021    -0.0041     0.0020 C.ar    
   3 C3             1.1991    -0.6836    -0.0173 C.ar    
   4 C4             2.4048     0.0117    -0.0184 C.ar    
   5 C5             2.3789     1.4016    -0.0136 C.ar    
   6 C6             1.1774     2.0858     0.0020 C.ar    
   7 C7             1.5479    -2.1472    -0.0530 C.3     
   8 C8             3.0333    -2.1466    -0.4405 C.3     
   9 C9             0.4286    -3.8655     1.0026 C.ar    
  10 C10            1.3138    -2.8231     1.2654 C.ar    
  11 C11            0.7148    -2.9083    -1.0441 C.2     
  12 N12            0.0980    -3.8889    -0.3547 N.am    
  13 O13            0.6157    -2.6841    -2.2319 O.2     
  14 C14            1.7789    -2.6040     2.5431 C.ar    
  15 C15            1.3695    -3.4240     3.5797 C.ar    
  16 C16            0.4916    -4.4632     3.3299 C.ar    
  17 C17            0.0220    -4.6859     2.0522 C.ar    
  18 O18            3.4679    -0.8425    -0.0102 O.3     
  19 O19           -1.2189     2.0202     0.0189 O.3     
  20 C20           -1.2441     3.3979     0.3949 C.3     
  21 C21           -0.1640     4.1371    -0.4054 C.3     
  22 C22            1.2032     3.5937     0.0162 C.3     
  23 H23           -0.9275    -0.5538     0.0117 H       
  24 H24            3.3074     1.9531    -0.0222 H       
  25 H25            3.5726    -2.9296     0.0925 H       
  26 H26            3.1522    -2.2581    -1.5182 H       
  27 H27           -0.5050    -4.5352    -0.7543 H       
  28 H28            2.4640    -1.7917     2.7360 H       
  29 H29            1.7349    -3.2532     4.5815 H       
  30 H30            0.1725    -5.1035     4.1390 H       
  31 H31           -0.6631    -5.4995     1.8649 H       
  32 H32           -2.2226     3.8221     0.1699 H       
  33 H33           -1.0393     3.4912     1.4614 H       
  34 H34           -0.3145     3.9656    -1.4712 H       
  35 H35           -0.2161     5.2050    -0.1936 H       
  36 H36            1.4380     3.9430     1.0217 H       
  37 H37            1.9647     3.9499    -0.6777 H       
@<TRIPOS>BOND
   1    1    2 ar
   2    1    6 ar
   3    1   19 1
   4    2    3 ar
   5    2   23 1
   6    3    4 ar
   7    3    7 1
   8    4    5 ar
   9    4   18 1
  10    5    6 ar
  11    5   24 1
  12    6   22 1
  13    7    8 1
  14    7   10 1
  15    7   11 1
  16    8   18 1
  17    8   25 1
  18    8   26 1
  19    9   10 ar
  20    9   12 1
  21    9   17 ar
  22   10   14 ar
  23   11   12 am
  24   11   13 2
  25   12   27 1
  26   14   15 ar
  27   14   28 1
  28   15   16 ar
  29   15   29 1
  30   16   17 ar
  31   16   30 1
  32   17   31 1
  33   19   20 1
  34   20   21 1
  35   20   32 1
  36   20   33 1
  37   21   22 1
  38   21   34 1
  39   21   35 1
  40   22   36 1
  41   22   37 1

#	End of record

