#	Name: ASD03330119
#	Creating user name:	WinNT
#	Creation time:	15. 06. 2019 20:36

#	Modifying user name:	WinNT
#	Modification time:	15. 06. 2019 20:36

#	Program:	/corina/corina34_cracker 3.40 0067  02.08.2006

@<TRIPOS>MOLECULE
ASD03330119
  36   38    0    0    0
SMALL
NO_CHARGES


@<TRIPOS>ATOM
   1 C1             0.0156     1.4057    -0.0096 C.2     
   2 C2            -0.0244     0.0425    -0.0096 C.2     
   3 C3             1.2109    -0.5699    -0.0040 C.2     
   4 C4             2.2758     0.3026     0.0006 C.2     
   5 S5             1.6841     1.9581    -0.0022 S.3     
   6 C6            -1.1579     2.2799    -0.0205 C.2     
   7 O7            -2.2750     1.7984    -0.0305 O.2     
   8 O8            -1.0009     3.6200    -0.0194 O.3     
   9 C9             1.3782    -2.0430    -0.0032 C.ar    
  10 C10            0.7792    -2.8135     0.9926 C.ar    
  11 C11            0.9369    -4.1837     0.9905 C.ar    
  12 C12            1.6909    -4.7957    -0.0014 C.ar    
  13 C13            2.2890    -4.0314    -0.9940 C.ar    
  14 C14            2.1301    -2.6613    -1.0013 C.ar    
  15 O15            1.8443    -6.1461    -0.0006 O.3     
  16 C16            2.6328    -6.7101    -1.0505 C.3     
  17 C17            3.6975    -0.0917     0.0070 C.ar    
  18 C18            4.5871     0.4728    -0.9125 C.ar    
  19 C19            5.9156     0.0991    -0.9006 C.ar    
  20 C20            6.3673    -0.8328     0.0189 C.ar    
  21 C21            5.4909    -1.3957     0.9317 C.ar    
  22 C22            4.1621    -1.0263     0.9353 C.ar    
  23 Cl23           8.0398    -1.2980     0.0270 Cl      
  24 Cl24           4.0217     1.6403    -2.0662 Cl      
  25 H25           -0.9504    -0.5133    -0.0134 H       
  26 H26           -1.8325     4.1134    -0.0270 H       
  27 H27            0.1928    -2.3380     1.7648 H       
  28 H28            0.4735    -4.7812     1.7617 H       
  29 H29            2.8752    -4.5105    -1.7641 H       
  30 H30            2.5917    -2.0677    -1.7765 H       
  31 H31            2.1833    -6.4670    -2.0132 H       
  32 H32            3.6421    -6.3007    -1.0070 H       
  33 H33            2.6746    -7.7928    -0.9320 H       
  34 H34            6.6041     0.5340    -1.6099 H       
  35 H35            5.8499    -2.1221     1.6457 H       
  36 H36            3.4812    -1.4624     1.6512 H       
@<TRIPOS>BOND
   1    1    2 2
   2    1    5 1
   3    1    6 1
   4    2    3 1
   5    2   25 1
   6    3    4 2
   7    3    9 1
   8    4    5 1
   9    4   17 1
  10    6    7 2
  11    6    8 1
  12    8   26 1
  13    9   10 ar
  14    9   14 ar
  15   10   11 ar
  16   10   27 1
  17   11   12 ar
  18   11   28 1
  19   12   13 ar
  20   12   15 1
  21   13   14 ar
  22   13   29 1
  23   14   30 1
  24   15   16 1
  25   16   31 1
  26   16   32 1
  27   16   33 1
  28   17   18 ar
  29   17   22 ar
  30   18   19 ar
  31   18   24 1
  32   19   20 ar
  33   19   34 1
  34   20   21 ar
  35   20   23 1
  36   21   22 ar
  37   21   35 1
  38   22   36 1

#	End of record

