#	Name: ASD04590667
#	Creating user name:	WinNT
#	Creation time:	15. 06. 2019 20:51

#	Modifying user name:	WinNT
#	Modification time:	15. 06. 2019 20:51

#	Program:	/corina/corina34_cracker 3.40 0067  02.08.2006

@<TRIPOS>MOLECULE
ASD04590667
  64   69    0    0    0
SMALL
NO_CHARGES


@<TRIPOS>ATOM
   1 N1             0.4213     2.0792     1.3143 N.ar    
   2 C2             0.5405     0.7604     1.2301 C.ar    
   3 N3             1.7050     0.1458     1.3600 N.ar    
   4 C4             2.8162     0.8413     1.5834 C.ar    
   5 C5             2.7229     2.2445     1.6780 C.ar    
   6 C6             1.4765     2.8459     1.5347 C.ar    
   7 N7             4.1296     0.4817     1.7552 N.pl3   
   8 C8             4.9151     1.6038     1.9617 C.ar    
   9 C9             4.0846     2.7366     1.9233 C.ar    
  10 N10           -0.5941     0.0003     0.9987 N.pl3   
  11 C11           -1.8473     0.6114     0.9612 C.ar    
  12 C12            4.6301    -0.8948     1.7253 C.3     
  13 C13            3.9515    -1.7265     2.8279 C.3     
  14 N14           -1.9579     1.8959     1.2603 N.ar    
  15 C15           -3.1226     2.5152     1.2381 C.ar    
  16 C16           -4.2818     1.8336     0.8975 C.ar    
  17 C17           -4.2044     0.4796     0.5764 C.ar    
  18 C18           -2.9651    -0.1343     0.6047 C.ar    
  19 N19           -5.5142     2.4974     0.8771 N.3     
  20 C20           -5.3573     3.9107     1.2482 C.3     
  21 C21           -6.7101     4.6178     1.1369 C.3     
  22 N22           -7.6823     3.9507     2.0141 N.3     
  23 C23           -7.8391     2.5374     1.6430 C.3     
  24 C24           -6.4863     1.8303     1.7543 C.3     
  25 C25            6.2767     1.7868     2.1826 C.ar    
  26 N26            6.7712     2.9980     2.3519 N.ar    
  27 C27            6.0157     4.0823     2.3211 C.ar    
  28 C28            4.6571     3.9956     2.1081 C.ar    
  29 F29            7.0987     0.7155     2.2246 F       
  30 C30           -8.9754     4.6472     1.9927 C.3     
  31 C31           -9.9839     3.8769     2.8473 C.3     
  32 C32            3.1972    -2.8690     2.1170 C.3     
  33 C33            3.9334    -3.0255     0.7632 C.3     
  34 C34            4.2644    -1.5610     0.3828 C.3     
  35 O35           -9.5298     3.8388     4.2017 O.3     
  36 H36            1.3725     3.9188     1.6017 H       
  37 H37           -0.5170    -0.9570     0.8626 H       
  38 H38            5.7112    -0.9019     1.8643 H       
  39 H39            4.7033    -2.1378     3.5015 H       
  40 H40            3.2498    -1.1059     3.3853 H       
  41 H41           -3.1742     3.5645     1.4882 H       
  42 H42           -5.0905    -0.0763     0.3079 H       
  43 H43           -2.8683    -1.1820     0.3611 H       
  44 H44           -4.9945     3.9792     2.2737 H       
  45 H45           -4.6423     4.3858     0.5766 H       
  46 H46           -6.6021     5.6593     1.4395 H       
  47 H47           -7.0602     4.5729     0.1056 H       
  48 H48           -8.5542     2.0623     2.3146 H       
  49 H49           -8.2020     2.4689     0.6174 H       
  50 H50           -6.5944     0.7888     1.4516 H       
  51 H51           -6.1363     1.8752     2.7856 H       
  52 H52            6.4704     5.0513     2.4655 H       
  53 H53            4.0464     4.8860     2.0843 H       
  54 H54           -8.8529     5.6533     2.3938 H       
  55 H55           -9.3391     4.7069     0.9668 H       
  56 H56          -10.9528     4.3742     2.8028 H       
  57 H57          -10.0799     2.8597     2.4675 H       
  58 H58            3.2649    -3.7895     2.6967 H       
  59 H59            2.1547    -2.5949     1.9548 H       
  60 H60            4.8461    -3.6087     0.8851 H       
  61 H61            3.2799    -3.4798     0.0184 H       
  62 H62            3.3943    -1.0757    -0.0594 H       
  63 H63            5.1110    -1.5270    -0.3029 H       
  64 H64          -10.1217     3.3648     4.8018 H       
@<TRIPOS>BOND
   1    1    2 ar
   2    1    6 ar
   3    2    3 ar
   4    2   10 1
   5    3    4 ar
   6    4    5 ar
   7    4    7 1
   8    5    6 ar
   9    5    9 1
  10    6   36 1
  11    7    8 1
  12    7   12 1
  13    8    9 ar
  14    8   25 ar
  15    9   28 ar
  16   10   11 1
  17   10   37 1
  18   11   14 ar
  19   11   18 ar
  20   12   13 1
  21   12   34 1
  22   12   38 1
  23   13   32 1
  24   13   39 1
  25   13   40 1
  26   14   15 ar
  27   15   16 ar
  28   15   41 1
  29   16   17 ar
  30   16   19 1
  31   17   18 ar
  32   17   42 1
  33   18   43 1
  34   19   20 1
  35   19   24 1
  36   20   21 1
  37   20   44 1
  38   20   45 1
  39   21   22 1
  40   21   46 1
  41   21   47 1
  42   22   23 1
  43   22   30 1
  44   23   24 1
  45   23   48 1
  46   23   49 1
  47   24   50 1
  48   24   51 1
  49   25   26 ar
  50   25   29 1
  51   26   27 ar
  52   27   28 ar
  53   27   52 1
  54   28   53 1
  55   30   31 1
  56   30   54 1
  57   30   55 1
  58   31   35 1
  59   31   56 1
  60   31   57 1
  61   32   33 1
  62   32   58 1
  63   32   59 1
  64   33   34 1
  65   33   60 1
  66   33   61 1
  67   34   62 1
  68   34   63 1
  69   35   64 1

#	End of record

