#	Name: ASD01883971
#	Creating user name:	WinNT
#	Creation time:	15. 06. 2019 19:47

#	Modifying user name:	WinNT
#	Modification time:	15. 06. 2019 19:47

#	Program:	/corina/corina34_cracker 3.40 0067  02.08.2006

@<TRIPOS>MOLECULE
ASD01883971
  52   55    0    0    0
SMALL
NO_CHARGES


@<TRIPOS>ATOM
   1 Cl1            0.0000     0.0000     0.0000 Cl      
   2 H2             0.0000     1.3700     0.0000 H       
   3 C3             8.1095    16.4651     7.4270 C.3     
   4 C4             8.1299    14.9583     7.4187 C.2     
   5 N5             8.1360    14.1851     6.3402 N.2     
   6 C6             8.1552    12.9160     6.7027 C.2     
   7 C7             8.1717    11.5400     6.1778 C.2     
   8 O8             8.1707    11.2367     5.0000 O.2     
   9 N9             8.1879    10.6707     7.2052 N.am    
  10 C10            8.2081     9.2098     7.0978 C.3     
  11 C11            9.6574     8.7215     7.0542 C.3     
  12 C12           10.2682     8.4799     8.4446 C.3     
  13 C13           10.9330     7.2280     7.8484 C.3     
  14 C14            9.7907     7.2077     6.8191 C.3     
  15 C15            8.1827    11.4446     8.4516 C.3     
  16 N16            8.1619    12.8582     8.0694 N.pl3   
  17 C17            8.1515    14.1421     8.5313 C.2     
  18 C18            8.1586    14.5737     9.9450 C.ar    
  19 C19            7.3267    13.9460    10.8738 C.ar    
  20 C20            7.3386    14.3534    12.1917 C.ar    
  21 C21            8.1725    15.3817    12.5938 C.ar    
  22 C22            8.9992    16.0084    11.6782 C.ar    
  23 C23            9.0013    15.6069    10.3583 C.ar    
  24 C24            8.1801    15.8214    14.0352 C.3     
  25 F25            7.8680    14.7327    14.8565 F       
  26 F26            9.4489    16.3077    14.3677 F       
  27 C27            7.1413    16.9265    14.2367 C.3     
  28 C28            5.9683    16.6312    15.1735 C.3     
  29 C29            7.0753    17.5915    15.6131 C.3     
  30 H30            9.1320    16.8424     7.4192 H       
  31 H31            7.5823    16.8262     6.5439 H       
  32 H32            7.5993    16.8166     8.3237 H       
  33 H33            7.7040     8.7750     7.9610 H       
  34 H34            7.6945     8.9054     6.1858 H       
  35 H35           10.2869     9.3224     6.3977 H       
  36 H36           10.9785     9.2485     8.7491 H       
  37 H37            9.5285     8.2572     9.2137 H       
  38 H38           11.9123     7.4204     7.4102 H       
  39 H39           10.9303     6.3700     8.5208 H       
  40 H40            8.9205     6.6371     7.1438 H       
  41 H41           10.1156     6.9492     5.8113 H       
  42 H42            7.2954    11.2032     9.0368 H       
  43 H43            9.0813    11.2275     9.0291 H       
  44 H44            6.6751    13.1435    10.5612 H       
  45 H45            6.6952    13.8688    12.9113 H       
  46 H46            9.6472    16.8109    11.9983 H       
  47 H47            9.6506    16.0937     9.6456 H       
  48 H48            6.9452    17.5518    13.3657 H       
  49 H49            5.0000    17.0621    14.9189 H       
  50 H50            5.9365    15.6495    15.6462 H       
  51 H51            7.7718    17.2416    16.3750 H       
  52 H52            6.8353    18.6542    15.6476 H       
@<TRIPOS>BOND
   1    1    2 1
   2    3    4 1
   3    3   30 1
   4    3   31 1
   5    3   32 1
   6    4   17 2
   7    4    5 1
   8    5    6 2
   9    6   16 1
  10    6    7 1
  11    7    8 2
  12    7    9 am
  13    9   10 1
  14    9   15 1
  15   10   11 1
  16   10   33 1
  17   10   34 1
  18   11   14 1
  19   11   12 1
  20   11   35 1
  21   12   13 1
  22   12   36 1
  23   12   37 1
  24   13   14 1
  25   13   38 1
  26   13   39 1
  27   14   40 1
  28   14   41 1
  29   15   16 1
  30   15   42 1
  31   15   43 1
  32   16   17 1
  33   17   18 1
  34   18   23 ar
  35   18   19 ar
  36   19   20 ar
  37   19   44 1
  38   20   21 ar
  39   20   45 1
  40   21   22 ar
  41   21   24 1
  42   22   23 ar
  43   22   46 1
  44   23   47 1
  45   24   25 1
  46   24   26 1
  47   24   27 1
  48   27   29 1
  49   27   28 1
  50   27   48 1
  51   28   29 1
  52   28   49 1
  53   28   50 1
  54   29   51 1
  55   29   52 1

#	End of record

