#	Name: ASD09116278
#	Creating user name:	WinNT
#	Creation time:	15. 06. 2019 21:21

#	Modifying user name:	WinNT
#	Modification time:	15. 06. 2019 21:21

#	Program:	/corina/corina34_cracker 3.40 0067  02.08.2006

@<TRIPOS>MOLECULE
ASD09116278
  65   71    0    0    0
SMALL
NO_CHARGES


@<TRIPOS>ATOM
   1 N1            -0.0320     1.4236     0.1688 N.pl3   
   2 N2            -0.0252     0.0271     0.3150 N.2     
   3 C3             1.2649     1.8107     0.1355 C.2     
   4 N4             2.0121     0.7336     0.2524 N.2     
   5 C5             1.2310    -0.3470     0.3611 C.2     
   6 N6             1.7235     3.1084     0.0019 N.pl3   
   7 C7             3.0918     3.3795     0.0959 C.ar    
   8 C8             3.9231     2.5680     0.8664 C.ar    
   9 C9             5.7442     3.9728     0.2341 C.ar    
  10 N10            4.9344     4.7209    -0.4954 N.ar    
  11 C11            3.6456     4.4585    -0.5818 C.ar    
  12 C12           -1.1537     2.2488     0.0710 C.ar    
  13 N13           -1.0719     3.5225     0.4257 N.ar    
  14 N14           -2.0769     4.3218     0.3644 N.ar    
  15 C15           -3.2626     3.9143    -0.0592 C.ar    
  16 C16           -3.4380     2.5913    -0.4748 C.ar    
  17 C17           -2.3612     1.7327    -0.4062 C.ar    
  18 C18           -4.4355     4.8188    -0.0796 C.ar    
  19 C19           -5.6336     4.3827     0.4881 C.ar    
  20 C20           -5.6874     3.0343     1.1525 C.3     
  21 C21           -5.7599     1.9091     0.1238 C.3     
  22 C22           -4.7683     2.1494    -1.0114 C.3     
  23 C23           -4.3578     6.0820    -0.6555 C.ar    
  24 C24           -5.4761     6.8928    -0.6789 C.ar    
  25 C25           -6.6671     6.4486    -0.1338 C.ar    
  26 C26           -6.7464     5.1951     0.4480 C.ar    
  27 N27            1.6801    -1.6597     0.5014 N.pl3   
  28 C28            5.2703     2.8855     0.9216 C.ar    
  29 C29            6.2108     2.0251     1.7356 C.3     
  30 C30            6.6464     2.8132     2.9754 C.3     
  31 C31            7.8312     3.7070     2.6596 C.3     
  32 C32            7.5215     4.8477     1.7111 C.3     
  33 C33            7.2165     4.3271     0.3051 C.3     
  34 O34            5.5447     3.6076     3.4390 O.3     
  35 C35            5.2376     3.1774     4.7801 C.3     
  36 C36            6.5516     2.4982     5.2399 C.3     
  37 O37            7.0082     1.8821     4.0124 O.3     
  38 H38            1.0958     3.8307    -0.1571 H       
  39 H39            3.5289     1.7183     1.4040 H       
  40 H40            3.0123     5.0899    -1.1873 H       
  41 H41           -2.4501     0.6979    -0.7022 H       
  42 H42           -4.7944     2.9019     1.7634 H       
  43 H43           -6.5672     2.9879     1.7944 H       
  44 H44           -5.5257     0.9623     0.6105 H       
  45 H45           -6.7691     1.8615    -0.2853 H       
  46 H46           -5.1617     2.9206    -1.6737 H       
  47 H47           -4.6385     1.2258    -1.5754 H       
  48 H48           -3.4279     6.4275    -1.0827 H       
  49 H49           -5.4202     7.8754    -1.1234 H       
  50 H50           -7.5404     7.0833    -0.1626 H       
  51 H51           -7.6798     4.8539     0.8707 H       
  52 H52            2.6315    -1.8468     0.5263 H       
  53 H53            1.0410    -2.3858     0.5742 H       
  54 H54            5.6989     1.1133     2.0429 H       
  55 H55            7.0858     1.7723     1.1368 H       
  56 H56            8.2066     4.1260     3.5932 H       
  57 H57            8.6181     3.0949     2.2188 H       
  58 H58            6.6577     5.3982     2.0838 H       
  59 H59            8.3796     5.5183     1.6659 H       
  60 H60            7.8175     3.4403     0.1037 H       
  61 H61            7.4439     5.0996    -0.4296 H       
  62 H62            5.0034     4.0322     5.4146 H       
  63 H63            4.4151     2.4622     4.7764 H       
  64 H64            7.2692     3.2373     5.5960 H       
  65 H65            6.3557     1.7466     6.0046 H       
@<TRIPOS>BOND
   1    1    2 1
   2    1    3 1
   3    1   12 1
   4    2    5 2
   5    3    4 2
   6    3    6 1
   7    4    5 1
   8    5   27 1
   9    6    7 1
  10    6   38 1
  11    7    8 ar
  12    7   11 ar
  13    8   28 ar
  14    8   39 1
  15    9   10 ar
  16    9   28 ar
  17    9   33 1
  18   10   11 ar
  19   11   40 1
  20   12   13 ar
  21   12   17 ar
  22   13   14 ar
  23   14   15 ar
  24   15   16 ar
  25   15   18 1
  26   16   17 ar
  27   16   22 1
  28   17   41 1
  29   18   19 ar
  30   18   23 ar
  31   19   20 1
  32   19   26 ar
  33   20   21 1
  34   20   42 1
  35   20   43 1
  36   21   22 1
  37   21   44 1
  38   21   45 1
  39   22   46 1
  40   22   47 1
  41   23   24 ar
  42   23   48 1
  43   24   25 ar
  44   24   49 1
  45   25   26 ar
  46   25   50 1
  47   26   51 1
  48   27   52 1
  49   27   53 1
  50   28   29 1
  51   29   30 1
  52   29   54 1
  53   29   55 1
  54   30   31 1
  55   30   34 1
  56   30   37 1
  57   31   32 1
  58   31   56 1
  59   31   57 1
  60   32   33 1
  61   32   58 1
  62   32   59 1
  63   33   60 1
  64   33   61 1
  65   34   35 1
  66   35   36 1
  67   35   62 1
  68   35   63 1
  69   36   37 1
  70   36   64 1
  71   36   65 1

#	End of record

