#	Name: ASD01816442
#	Creating user name:	WinNT
#	Creation time:	15. 06. 2019 19:35

#	Modifying user name:	WinNT
#	Modification time:	15. 06. 2019 19:35

#	Program:	/corina/corina34_cracker 3.40 0067  02.08.2006

@<TRIPOS>MOLECULE
ASD01816442
  56   61    0    0    0
SMALL
NO_CHARGES


@<TRIPOS>ATOM
   1 C1            -0.0168     1.3912     0.0097 C.ar    
   2 C2             0.0021    -0.0041     0.0020 C.ar    
   3 C3             1.1808    -0.6914    -0.0124 C.ar    
   4 C4             2.3919     0.0027    -0.0203 C.ar    
   5 C5             2.3735     1.4245    -0.0129 C.ar    
   6 C6             1.1449     2.1026     0.0024 C.ar    
   7 N7             3.5812    -0.6676    -0.0343 N.pl3   
   8 C8             4.7492    -0.0144    -0.0410 C.2     
   9 C9             4.7960     1.3661    -0.0340 C.2     
  10 C10            3.6017     2.1220    -0.0209 C.2     
  11 C11            5.8698     2.3855    -0.0381 C.2     
  12 N12            5.2360     3.5783    -0.0266 N.am    
  13 N13            3.9616     3.4274    -0.0172 N.2     
  14 C14            5.8790     4.8063    -0.0259 C.ar    
  15 O15            7.0665     2.1905    -0.0490 O.2     
  16 C16            3.5788    -2.1325    -0.0416 C.3     
  17 C17            3.5653    -2.6277    -1.4648 C.ar    
  18 C18            4.7574    -2.8564    -2.1272 C.ar    
  19 C19            4.7482    -3.3098    -3.4318 C.ar    
  20 C20            3.5404    -3.5365    -4.0780 C.ar    
  21 C21            2.3451    -3.3064    -3.4101 C.ar    
  22 C22            2.3608    -2.8580    -2.1038 C.ar    
  23 N23            3.5278    -3.9963    -5.4022 N.pl3   
  24 C24            2.4274    -4.2559    -6.1441 C.2     
  25 C25            2.8416    -4.6778    -7.3613 C.2     
  26 C26            4.2408    -4.6762    -7.3646 C.2     
  27 N27            4.6528    -4.2623    -6.1933 N.2     
  28 C28            6.8042     5.1128    -1.0242 C.ar    
  29 C29            7.4408     6.3358    -1.0186 C.ar    
  30 C30            7.1633     7.2593    -0.0245 C.ar    
  31 C31            6.2460     6.9605     0.9687 C.ar    
  32 C32            5.5991     5.7423     0.9695 C.ar    
  33 C33            5.9492     7.9704     2.0471 C.3     
  34 N34            4.6136     5.4267     2.0283 N.pl3   
  35 O35            5.0082     4.8494     3.1442 O.2     
  36 O36            3.3423     5.7232     1.8541 O.2     
  37 H37           -0.9626     1.9126     0.0170 H       
  38 H38           -0.9307    -0.5484     0.0080 H       
  39 H39            1.1767    -1.7714    -0.0175 H       
  40 H40            1.1206     3.1823     0.0077 H       
  41 H41            5.6713    -0.5764    -0.0518 H       
  42 H42            4.4728    -2.4999     0.4624 H       
  43 H43            2.6929    -2.4970     0.4784 H       
  44 H44            5.6966    -2.6799    -1.6241 H       
  45 H45            5.6795    -3.4876    -3.9489 H       
  46 H46            1.4041    -3.4815    -3.9103 H       
  47 H47            1.4314    -2.6788    -1.5838 H       
  48 H48            1.4021    -4.1469    -5.8226 H       
  49 H49            2.2047    -4.9649    -8.1848 H       
  50 H50            4.8722    -4.9628    -8.1926 H       
  51 H51            7.0216     4.3932    -1.7996 H       
  52 H52            8.1575     6.5739    -1.7907 H       
  53 H53            7.6645     8.2160    -0.0237 H       
  54 H54            5.1244     8.6086     1.7301 H       
  55 H55            5.6748     7.4513     2.9654 H       
  56 H56            6.8337     8.5818     2.2257 H       
@<TRIPOS>BOND
   1    1    2 ar
   2    1    6 ar
   3    1   37 1
   4    2    3 ar
   5    2   38 1
   6    3    4 ar
   7    3   39 1
   8    4    5 ar
   9    4    7 1
  10    5    6 ar
  11    5   10 1
  12    6   40 1
  13    7    8 1
  14    7   16 1
  15    8    9 2
  16    8   41 1
  17    9   10 1
  18    9   11 1
  19   10   13 2
  20   11   12 am
  21   11   15 2
  22   12   13 1
  23   12   14 1
  24   14   32 ar
  25   14   28 ar
  26   16   17 1
  27   16   42 1
  28   16   43 1
  29   17   18 ar
  30   17   22 ar
  31   18   19 ar
  32   18   44 1
  33   19   20 ar
  34   19   45 1
  35   20   21 ar
  36   20   23 1
  37   21   22 ar
  38   21   46 1
  39   22   47 1
  40   23   24 1
  41   23   27 1
  42   24   25 2
  43   24   48 1
  44   25   26 1
  45   25   49 1
  46   26   27 2
  47   26   50 1
  48   28   29 ar
  49   28   51 1
  50   29   30 ar
  51   29   52 1
  52   30   31 ar
  53   30   53 1
  54   31   32 ar
  55   31   33 1
  56   32   34 1
  57   33   54 1
  58   33   55 1
  59   33   56 1
  60   34   35 2
  61   34   36 2

#	End of record

