#	Name: ASD09116079
#	Creating user name:	WinNT
#	Creation time:	15. 06. 2019 21:20

#	Modifying user name:	WinNT
#	Modification time:	15. 06. 2019 21:20

#	Program:	/corina/corina34_cracker 3.40 0067  02.08.2006

@<TRIPOS>MOLECULE
ASD09116079
  74   79    0    0    0
SMALL
NO_CHARGES


@<TRIPOS>ATOM
   1 C1            -0.2996     1.2617     1.3665 C.ar    
   2 N2            -0.2279    -0.1070     1.1202 N.pl3   
   3 N3            -1.2260    -0.9133     0.5496 N.2     
   4 C4            -0.7498    -2.1338     0.4977 C.2     
   5 N5             0.4897    -2.1433     1.0022 N.2     
   6 C6             0.8249    -0.9281     1.3788 C.2     
   7 N7             2.0286    -0.5543     1.9443 N.pl3   
   8 N8            -1.4273    -3.2452    -0.0027 N.pl3   
   9 N9             0.7394     1.8726     1.9139 N.ar    
  10 N10           -1.4058     1.9192     1.0410 N.ar    
  11 C11           -1.4944     3.2116     1.2669 C.ar    
  12 C12           -0.4216     3.8869     1.8336 C.ar    
  13 C13            0.7150     3.1752     2.1592 C.ar    
  14 C14           -0.7695    -4.4769    -0.1090 C.ar    
  15 C15           -1.4886    -5.6599     0.0008 C.ar    
  16 C16           -0.8400    -6.8743    -0.1040 C.ar    
  17 C17            0.5315    -6.9128    -0.3187 C.ar    
  18 C18            1.2506    -5.7298    -0.4281 C.ar    
  19 C19            0.6010    -4.5154    -0.3300 C.ar    
  20 N20            1.1890    -8.1439    -0.4245 N.3     
  21 C21            2.6278    -7.9544    -0.6492 C.3     
  22 C22            3.2886    -9.3110    -0.9043 C.3     
  23 C23           -2.7295     4.0125     0.9546 C.3     
  24 C24           -2.6318     4.7162    -0.3612 C.3     
  25 C25           -1.8192     5.9940    -0.4336 C.3     
  26 C26           -0.3132     5.6744    -0.4225 C.3     
  27 C27            0.2503     6.0961     0.9633 C.3     
  28 C28           -0.5330     5.3690     2.0552 C.3     
  29 C29            0.9417    -8.9761     0.7599 C.3     
  30 C30            1.5521   -10.3631     0.5469 C.3     
  31 C31            3.0574   -10.2213     0.3050 C.3     
  32 N32            3.6392   -11.5443     0.0420 N.3     
  33 C33            5.0867   -11.4456    -0.1952 C.3     
  34 C34            5.6608   -12.8492    -0.4052 C.3     
  35 O35            4.9763   -13.4814    -1.4901 O.3     
  36 C36            3.5644   -13.5947    -1.2922 C.3     
  37 C37            2.9691   -12.1986    -1.0912 C.3     
  38 H38            2.7198    -1.2177     2.0961 H       
  39 H39            2.1826     0.3714     2.1894 H       
  40 H40           -2.3542    -3.1651    -0.2772 H       
  41 H41            1.5647     3.6681     2.6080 H       
  42 H42           -2.5551    -5.6300     0.1685 H       
  43 H43           -1.3992    -7.7943    -0.0186 H       
  44 H44            2.3173    -5.7598    -0.5944 H       
  45 H45            1.1602    -3.5954    -0.4154 H       
  46 H46            2.7783    -7.3087    -1.5144 H       
  47 H47            3.0751    -7.4923     0.2308 H       
  48 H48            2.8513    -9.7676    -1.7923 H       
  49 H49            4.3590    -9.1717    -1.0556 H       
  50 H50           -3.5892     3.3428     0.9342 H       
  51 H51           -2.8789     4.7526     1.7408 H       
  52 H52           -2.2104     4.0147    -1.0812 H       
  53 H53           -3.6452     4.9494    -0.6879 H       
  54 H54           -2.0676     6.5277    -1.3510 H       
  55 H55           -2.0604     6.6236     0.4228 H       
  56 H56           -0.1614     4.6056    -0.5732 H       
  57 H57            0.1890     6.2344    -1.2113 H       
  58 H58            1.3040     5.8246     1.0272 H       
  59 H59            0.1400     7.1731     1.0902 H       
  60 H60           -1.5808     5.6665     2.0120 H       
  61 H61           -0.1202     5.6238     3.0313 H       
  62 H62            1.3969    -8.5092     1.6333 H       
  63 H63           -0.1325    -9.0724     0.9181 H       
  64 H64            1.3819   -10.9755     1.4324 H       
  65 H65            1.0875   -10.8362    -0.3183 H       
  66 H66            3.5282    -9.7839     1.1855 H       
  67 H67            5.2696   -10.8409    -1.0835 H       
  68 H68            5.5660   -10.9815     0.6668 H       
  69 H69            6.7232   -12.7768    -0.6380 H       
  70 H70            5.5257   -13.4373     0.5025 H       
  71 H71            3.1107   -14.0615    -2.1664 H       
  72 H72            3.3683   -14.2045    -0.4103 H       
  73 H73            1.9025   -12.2843    -0.8832 H       
  74 H74            3.1181   -11.6060    -1.9938 H       
@<TRIPOS>BOND
   1    1    2 1
   2    1    9 ar
   3    1   10 ar
   4    2    3 1
   5    2    6 1
   6    3    4 2
   7    4    5 1
   8    4    8 1
   9    5    6 2
  10    6    7 1
  11    7   38 1
  12    7   39 1
  13    8   14 1
  14    8   40 1
  15    9   13 ar
  16   10   11 ar
  17   11   12 ar
  18   11   23 1
  19   12   13 ar
  20   12   28 1
  21   13   41 1
  22   14   15 ar
  23   14   19 ar
  24   15   16 ar
  25   15   42 1
  26   16   17 ar
  27   16   43 1
  28   17   18 ar
  29   17   20 1
  30   18   19 ar
  31   18   44 1
  32   19   45 1
  33   20   21 1
  34   20   29 1
  35   21   22 1
  36   21   46 1
  37   21   47 1
  38   22   31 1
  39   22   48 1
  40   22   49 1
  41   23   24 1
  42   23   50 1
  43   23   51 1
  44   24   25 1
  45   24   52 1
  46   24   53 1
  47   25   26 1
  48   25   54 1
  49   25   55 1
  50   26   27 1
  51   26   56 1
  52   26   57 1
  53   27   28 1
  54   27   58 1
  55   27   59 1
  56   28   60 1
  57   28   61 1
  58   29   30 1
  59   29   62 1
  60   29   63 1
  61   30   31 1
  62   30   64 1
  63   30   65 1
  64   31   32 1
  65   31   66 1
  66   32   33 1
  67   32   37 1
  68   33   34 1
  69   33   67 1
  70   33   68 1
  71   34   35 1
  72   34   69 1
  73   34   70 1
  74   35   36 1
  75   36   37 1
  76   36   71 1
  77   36   72 1
  78   37   73 1
  79   37   74 1

#	End of record

