#	Name: ASD01001076
#	Creating user name:	WinNT
#	Creation time:	15. 06. 2019 18:55

#	Modifying user name:	WinNT
#	Modification time:	15. 06. 2019 18:55

#	Program:	/corina/corina34_cracker 3.40 0067  02.08.2006

@<TRIPOS>MOLECULE
ASD01001076
  36   38    0    0    0
SMALL
NO_CHARGES


@<TRIPOS>ATOM
   1 C1            -0.0166     1.3747     0.0096 C.ar    
   2 C2             0.0021    -0.0041     0.0020 C.ar    
   3 C3             1.1849     2.0879     0.0020 C.ar    
   4 C4             1.2071    -0.6846    -0.0127 C.ar    
   5 C5             2.4002     1.3967    -0.0134 C.ar    
   6 C6             1.1712     3.5623     0.0095 C.2     
   7 C7             2.4036     0.0125    -0.0204 C.ar    
   8 N8             2.2163     4.3153     0.0031 N.2     
   9 N9             1.9348     5.6799     0.0122 N.am    
  10 C10            0.4750     5.8645     0.0271 C.3     
  11 C11           -0.0717     4.4232     0.0194 C.3     
  12 C12            2.8501     6.6692     0.0082 C.2     
  13 C13            0.0452     6.5934     1.2741 C.ar    
  14 C14           -0.9650     7.5348     1.2110 C.ar    
  15 C15           -1.3592     8.2034     2.3549 C.ar    
  16 C16           -0.7435     7.9302     3.5620 C.ar    
  17 C17            0.2661     6.9881     3.6253 C.ar    
  18 C18            0.6573     6.3164     2.4822 C.ar    
  19 C19            4.3198     6.3360    -0.0080 C.3     
  20 O20            2.4910     7.8279     0.0175 O.2     
  21 F21            3.5671     2.0775    -0.0213 F       
  22 F22            3.5757    -0.6592    -0.0343 F       
  23 H23           -0.9588     1.9027     0.0169 H       
  24 H24           -0.9269    -0.5549     0.0079 H       
  25 H25            1.2144    -1.7646    -0.0178 H       
  26 H26            0.1470     6.4001    -0.8638 H       
  27 H27           -0.6725     4.2468    -0.8728 H       
  28 H28           -0.6563     4.2312     0.9192 H       
  29 H29           -1.4460     7.7483     0.2679 H       
  30 H30           -2.1480     8.9395     2.3054 H       
  31 H31           -1.0510     8.4530     4.4556 H       
  32 H32            0.7474     6.7748     4.5683 H       
  33 H33            1.4461     5.5803     2.5317 H       
  34 H34            4.5516     5.7590    -0.9032 H       
  35 H35            4.9014     7.2578    -0.0091 H       
  36 H36            4.5692     5.7501     0.8766 H       
@<TRIPOS>BOND
   1    1    2 ar
   2    1    3 ar
   3    1   23 1
   4    2    4 ar
   5    2   24 1
   6    3    6 1
   7    3    5 ar
   8    4    7 ar
   9    4   25 1
  10    5   21 1
  11    5    7 ar
  12    6    8 2
  13    6   11 1
  14    7   22 1
  15    8    9 1
  16    9   10 1
  17    9   12 am
  18   10   11 1
  19   10   13 1
  20   10   26 1
  21   11   27 1
  22   11   28 1
  23   12   19 1
  24   12   20 2
  25   13   14 ar
  26   13   18 ar
  27   14   15 ar
  28   14   29 1
  29   15   16 ar
  30   15   30 1
  31   16   17 ar
  32   16   31 1
  33   17   18 ar
  34   17   32 1
  35   18   33 1
  36   19   34 1
  37   19   35 1
  38   19   36 1

#	End of record

