#	Name: ASD03920018
#	Creating user name:	WinNT
#	Creation time:	15. 06. 2019 20:47

#	Modifying user name:	WinNT
#	Modification time:	15. 06. 2019 20:47

#	Program:	/corina/corina34_cracker 3.40 0067  02.08.2006

@<TRIPOS>MOLECULE
ASD03920018
  55   58    0    0    0
SMALL
NO_CHARGES


@<TRIPOS>ATOM
   1 N1            -0.1925     1.1072    -0.0636 N.pl3   
   2 N2             0.3496     0.4412     1.0447 N.2     
   3 N3             1.4710    -0.0850     0.6934 N.2     
   4 C4             1.7125     0.1935    -0.5991 C.2     
   5 C5             0.6753     0.9402    -1.0817 C.2     
   6 C6             2.8971    -0.2346    -1.3667 C.2     
   7 O7             3.0094     0.0785    -2.5364 O.2     
   8 N8             3.8549    -0.9729    -0.7717 N.am    
   9 C9             4.9287    -1.4617    -1.5228 C.ar    
  10 C10            5.4574    -0.7013    -2.5577 C.ar    
  11 C11            6.5177    -1.1869    -3.2975 C.ar    
  12 C12            7.0527    -2.4290    -3.0091 C.ar    
  13 C13            6.5282    -3.1889    -1.9796 C.ar    
  14 C14            5.4722    -2.7062    -1.2317 C.ar    
  15 C15           -1.4612     1.8384    -0.1084 C.3     
  16 C16           -1.8254     2.3146     1.2993 C.3     
  17 C17           -0.7239     3.2361     1.8268 C.3     
  18 C18           -0.5831     4.4453     0.8999 C.3     
  19 C19           -0.2189     3.9691    -0.5077 C.3     
  20 C20           -1.3204     3.0475    -1.0353 C.3     
  21 C21            0.4573     6.6397     1.0975 C.2     
  22 C22            1.5422     7.5474     1.6171 C.3     
  23 O23           -0.4288     7.0900     0.4024 O.2     
  24 N24            0.4716     5.3276     1.4051 N.am    
  25 C25            1.2958     8.9531     1.1330 C.ar    
  26 C26            0.5282     9.8209     1.8889 C.ar    
  27 C27            0.3022    11.1112     1.4441 C.ar    
  28 C28            0.8428    11.5341     0.2440 C.ar    
  29 C29            1.6098    10.6686    -0.5124 C.ar    
  30 C30            1.8421     9.3785    -0.0656 C.ar    
  31 F31            2.5969     8.5338    -0.8018 F       
  32 Cl32          -0.1520     9.2905     3.3955 Cl      
  33 H33            0.5705     1.3231    -2.0861 H       
  34 H34            3.7995    -1.1652     0.1774 H       
  35 H35            5.0396     0.2686    -2.7840 H       
  36 H36            6.9294    -0.5960    -4.1024 H       
  37 H37            7.8816    -2.8066    -3.5893 H       
  38 H38            6.9478    -4.1589    -1.7573 H       
  39 H39            5.0664    -3.2979    -0.4245 H       
  40 H40           -2.2459     1.1819    -0.4843 H       
  41 H41           -2.7693     2.8587     1.2659 H       
  42 H42           -1.9257     1.4532     1.9596 H       
  43 H43           -0.9833     3.5754     2.8297 H       
  44 H44            0.2200     2.6920     1.8602 H       
  45 H45           -1.5270     4.9893     0.8666 H       
  46 H46           -0.1186     4.8305    -1.1681 H       
  47 H47            0.7250     3.4250    -0.4744 H       
  48 H48           -1.0609     2.7083    -2.0382 H       
  49 H49           -2.2643     3.5916    -1.0687 H       
  50 H50            1.5374     7.5324     2.7070 H       
  51 H51            2.5100     7.2022     1.2533 H       
  52 H52            1.1803     4.9676     1.9610 H       
  53 H53           -0.2971    11.7884     2.0345 H       
  54 H54            0.6652    12.5414    -0.1028 H       
  55 H55            2.0318    10.9996    -1.4498 H       
@<TRIPOS>BOND
   1    1    2 1
   2    1    5 1
   3    1   15 1
   4    2    3 2
   5    3    4 1
   6    4    5 2
   7    4    6 1
   8    5   33 1
   9    6    7 2
  10    6    8 am
  11    8    9 1
  12    8   34 1
  13    9   10 ar
  14    9   14 ar
  15   10   11 ar
  16   10   35 1
  17   11   12 ar
  18   11   36 1
  19   12   13 ar
  20   12   37 1
  21   13   14 ar
  22   13   38 1
  23   14   39 1
  24   15   16 1
  25   15   20 1
  26   15   40 1
  27   16   17 1
  28   16   41 1
  29   16   42 1
  30   17   18 1
  31   17   43 1
  32   17   44 1
  33   18   19 1
  34   18   24 1
  35   18   45 1
  36   19   20 1
  37   19   46 1
  38   19   47 1
  39   20   48 1
  40   20   49 1
  41   21   22 1
  42   21   23 2
  43   21   24 am
  44   22   25 1
  45   22   50 1
  46   22   51 1
  47   24   52 1
  48   25   26 ar
  49   25   30 ar
  50   26   27 ar
  51   26   32 1
  52   27   28 ar
  53   27   53 1
  54   28   29 ar
  55   28   54 1
  56   29   30 ar
  57   29   55 1
  58   30   31 1

#	End of record

