#	Name: ASD09080015
#	Creating user name:	WinNT
#	Creation time:	15. 06. 2019 21:20

#	Modifying user name:	WinNT
#	Modification time:	15. 06. 2019 21:20

#	Program:	/corina/corina34_cracker 3.40 0067  02.08.2006

@<TRIPOS>MOLECULE
ASD09080015
  56   57    0    0    0
SMALL
NO_CHARGES


@<TRIPOS>ATOM
   1 O1            -0.0173     1.4248     0.0099 O.3     
   2 C2            -1.4109     4.0983    -9.9218 C.ar    
   3 C3            -2.4841     3.5379   -10.5927 C.ar    
   4 C4            -3.0310     2.3433   -10.1573 C.ar    
   5 C5            -2.5070     1.7039    -9.0505 C.ar    
   6 C6            -1.4268     2.2640    -8.3718 C.ar    
   7 C7            -0.8768     3.4642    -8.8169 C.ar    
   8 Cl8           -0.7305     5.5969   -10.4741 Cl      
   9 Cl9           -4.3773     1.6471   -11.0037 Cl      
  10 C10           -0.8607     1.5818    -7.1817 C.ar    
  11 C11            0.2196     2.1416    -6.5028 C.ar    
  12 C12            0.7421     1.5028    -5.3965 C.ar    
  13 C13            0.1947     0.3095    -4.9610 C.ar    
  14 C14           -0.8777    -0.2507    -5.6312 C.ar    
  15 C15           -1.4112     0.3820    -6.7358 C.ar    
  16 C16            0.7693    -0.3830    -3.7521 C.3     
  17 C17            0.0531     0.1104    -2.4933 C.3     
  18 C18            0.7182    -0.4975    -1.2568 C.3     
  19 C19            0.0021    -0.0041     0.0020 C.3     
  20 N20           -1.3536    -0.2960    -2.5407 N.am    
  21 O21            2.0903    -0.1010    -1.2105 O.3     
  22 C22           -1.6755    -1.6031    -2.6073 C.2     
  23 C23           -3.1225    -2.0211    -2.6561 C.3     
  24 O24           -0.8007    -2.4428    -2.6279 O.2     
  25 O25           -3.2046    -3.4462    -2.7232 O.3     
  26 C26           -4.5410    -3.9497    -2.7736 C.3     
  27 C27            0.7309    -0.5033     1.2229 C.2     
  28 O28            1.2649     0.2813     1.9707 O.2     
  29 O29            0.7869    -1.8196     1.4797 O.3     
  30 C30            1.4619    -3.7527     2.7979 C.3     
  31 C31            1.5058    -2.2284     2.6732 C.3     
  32 H32            0.8606     1.8301     0.0037 H       
  33 H33           -2.8963     4.0346   -11.4586 H       
  34 H34           -2.9348     0.7722    -8.7111 H       
  35 H35           -0.0394     3.9022    -8.2941 H       
  36 H36            0.6477     3.0733    -6.8420 H       
  37 H37            1.5794     1.9359    -4.8695 H       
  38 H38           -1.3011    -1.1828    -5.2871 H       
  39 H39           -2.2488    -0.0561    -7.2582 H       
  40 H40            0.6310    -1.4597    -3.8503 H       
  41 H41            1.8332    -0.1587    -3.6763 H       
  42 H42            0.1157     1.1974    -2.4422 H       
  43 H43            0.6556    -1.5845    -1.3079 H       
  44 H44           -1.0205    -0.3814     0.0098 H       
  45 H45           -2.0533     0.3756    -2.5242 H       
  46 H46            2.2219     0.8558    -1.1639 H       
  47 H47           -3.6327    -1.6696    -1.7593 H       
  48 H48           -3.5963    -1.5880    -3.5370 H       
  49 H49           -5.0443    -3.5566    -3.6570 H       
  50 H50           -4.5175    -5.0383    -2.8231 H       
  51 H51           -5.0806    -3.6382    -1.8792 H       
  52 H52            2.0016    -4.0596     3.6938 H       
  53 H53            0.4252    -4.0819     2.8676 H       
  54 H54            1.9278    -4.2026     1.9212 H       
  55 H55            2.5426    -1.8993     2.6035 H       
  56 H56            1.0399    -1.7786     3.5499 H       
@<TRIPOS>BOND
   1    1   19 1
   2    1   32 1
   3    2    3 ar
   4    2    8 1
   5    2    7 ar
   6    3    4 ar
   7    3   33 1
   8    4    5 ar
   9    4    9 1
  10    5    6 ar
  11    5   34 1
  12    6    7 ar
  13    6   10 1
  14    7   35 1
  15   10   11 ar
  16   10   15 ar
  17   11   12 ar
  18   11   36 1
  19   12   13 ar
  20   12   37 1
  21   13   14 ar
  22   13   16 1
  23   14   15 ar
  24   14   38 1
  25   15   39 1
  26   16   17 1
  27   16   40 1
  28   16   41 1
  29   17   18 1
  30   17   20 1
  31   17   42 1
  32   18   19 1
  33   18   21 1
  34   18   43 1
  35   19   27 1
  36   19   44 1
  37   20   22 am
  38   20   45 1
  39   21   46 1
  40   22   23 1
  41   22   24 2
  42   23   25 1
  43   23   47 1
  44   23   48 1
  45   25   26 1
  46   26   49 1
  47   26   50 1
  48   26   51 1
  49   27   28 2
  50   27   29 1
  51   29   31 1
  52   30   31 1
  53   30   52 1
  54   30   53 1
  55   30   54 1
  56   31   55 1
  57   31   56 1

#	End of record

