#	Name: ASD01150005
#	Creating user name:	WinNT
#	Creation time:	15. 06. 2019 19:03

#	Modifying user name:	WinNT
#	Modification time:	15. 06. 2019 19:03

#	Program:	/corina/corina34_cracker 3.40 0067  02.08.2006

@<TRIPOS>MOLECULE
ASD01150005
  46   48    0    0    0
SMALL
NO_CHARGES


@<TRIPOS>ATOM
   1 S1            -0.0218     1.7577     0.0117 S.3     
   2 O2             0.0566    -4.7756    -1.0783 O.2     
   3 O3             0.0771    -4.7862     1.0312 O.2     
   4 N4            -2.3725    -2.6797     0.0108 N.pl3   
   5 N5             2.4483    -2.6141    -0.0358 N.pl3   
   6 N6            -1.1463    -0.6651     0.0094 N.ar    
   7 N7             1.1680    -0.6335    -0.0129 N.ar    
   8 N8             0.0586    -4.1719    -0.0204 N.pl3   
   9 C9            -3.6355    -1.9375     0.0273 C.3     
  10 C10            3.6907    -1.8378    -0.0435 C.3     
  11 C11           -4.7597    -2.7968    -0.5771 C.3     
  12 C12           -4.0489    -1.6304     1.4815 C.3     
  13 C13            4.8377    -2.6729     0.5521 C.3     
  14 C14            4.0960    -1.5035    -1.4939 C.3     
  15 C15           -5.8171    -2.9818     0.5308 C.3     
  16 C16           -5.5909    -1.7765     1.4769 C.3     
  17 C17            5.9000    -2.8169    -0.5573 C.3     
  18 C18            5.6414    -1.6078    -1.4902 C.3     
  19 C19           -1.1667    -1.9959     0.0025 C.ar    
  20 C20            1.2245    -1.9633    -0.0206 C.ar    
  21 C21            0.0385    -2.6918    -0.0128 C.ar    
  22 C22            0.0021    -0.0041     0.0020 C.ar    
  23 C23            1.7562     2.0963    -0.0035 C.3     
  24 H24           -2.3800    -3.6497     0.0056 H       
  25 H25            2.4821    -3.5835    -0.0413 H       
  26 H26           -3.5306    -1.0101    -0.5357 H       
  27 H27            3.5606    -0.9198     0.5296 H       
  28 H28           -5.2011    -2.2860    -1.4329 H       
  29 H29           -4.3657    -3.7660    -0.8828 H       
  30 H30           -3.5995    -2.3499     2.1659 H       
  31 H31           -3.7628    -0.6142     1.7528 H       
  32 H32            5.2649    -2.1597     1.4137 H       
  33 H33            4.4700    -3.6557     0.8468 H       
  34 H34            3.6665    -2.2273    -2.1865 H       
  35 H35            3.7825    -0.4925    -1.7543 H       
  36 H36           -6.8215    -2.9519     0.1084 H       
  37 H37           -5.6533    -3.9196     1.0617 H       
  38 H38           -5.9610    -1.9967     2.4782 H       
  39 H39           -6.0628    -0.8785     1.0782 H       
  40 H40            6.9031    -2.7644    -0.1340 H       
  41 H41            5.7618    -3.7529    -1.0986 H       
  42 H42            6.0175    -1.8068    -2.4937 H       
  43 H43            6.0887    -0.7018    -1.0814 H       
  44 H44            1.9209     3.1737     0.0008 H       
  45 H45            2.2177     1.6547     0.8798 H       
  46 H46            2.2007     1.6643    -0.9001 H       
@<TRIPOS>BOND
   1    1   22 1
   2    1   23 1
   3    2    8 2
   4    3    8 2
   5    4    9 1
   6    4   19 1
   7    4   24 1
   8    5   10 1
   9    5   20 1
  10    5   25 1
  11    6   19 ar
  12    6   22 ar
  13    7   20 ar
  14    7   22 ar
  15    8   21 1
  16    9   11 1
  17    9   12 1
  18    9   26 1
  19   10   13 1
  20   10   14 1
  21   10   27 1
  22   11   15 1
  23   11   28 1
  24   11   29 1
  25   12   16 1
  26   12   30 1
  27   12   31 1
  28   13   17 1
  29   13   32 1
  30   13   33 1
  31   14   18 1
  32   14   34 1
  33   14   35 1
  34   15   16 1
  35   15   36 1
  36   15   37 1
  37   16   38 1
  38   16   39 1
  39   17   18 1
  40   17   40 1
  41   17   41 1
  42   18   42 1
  43   18   43 1
  44   19   21 ar
  45   20   21 ar
  46   23   44 1
  47   23   45 1
  48   23   46 1

#	End of record

