#	Name: ASD00170070
#	Creating user name:	WinNT
#	Creation time:	15. 06. 2019 18:31

#	Modifying user name:	WinNT
#	Modification time:	15. 06. 2019 18:31

#	Program:	/corina/corina34_cracker 3.40 0067  02.08.2006

@<TRIPOS>MOLECULE
ASD00170070
  45   48    0    0    0
SMALL
NO_CHARGES


@<TRIPOS>ATOM
   1 C1            -0.0117     1.3388    -0.1032 C.2     
   2 C2             0.0139     0.0010    -0.1305 C.2     
   3 C3            -1.3048    -0.5833     0.0229 C.2     
   4 C4            -2.2978     0.3543     0.1625 C.2     
   5 S5            -1.6491     1.9282     0.1174 S.3     
   6 C6             1.2244     2.2060    -0.2406 C.3     
   7 N7             2.4115     1.3712    -0.0037 N.3     
   8 C8             2.3782     0.1605    -0.8366 C.3     
   9 C9             1.3008    -0.7906    -0.3057 C.3     
  10 N10           -3.6368     0.0615     0.3227 N.pl3   
  11 C11           -1.5516    -2.0248     0.0274 C.2     
  12 C12           -1.5555    -2.7706     1.3050 C.ar    
  13 C13            3.6458     2.1341    -0.2329 C.3     
  14 C14            3.7619     3.2241     0.8012 C.ar    
  15 C15            4.4110     2.9764     1.9964 C.ar    
  16 C16            4.5179     3.9757     2.9452 C.ar    
  17 C17            3.9750     5.2242     2.6987 C.ar    
  18 C18            3.3255     5.4715     1.5024 C.ar    
  19 C19            3.2242     4.4731     0.5520 C.ar    
  20 C20           -1.8845    -4.1268     1.3239 C.ar    
  21 C21           -1.8864    -4.8164     2.5187 C.ar    
  22 C22           -1.5629    -4.1665     3.6966 C.ar    
  23 C23           -1.2358    -2.8221     3.6848 C.ar    
  24 C24           -1.2246    -2.1223     2.4960 C.ar    
  25 O25           -1.7538    -2.6112    -1.0204 O.2     
  26 Cl26           4.1083     6.4797     3.8901 Cl      
  27 H27            1.2670     2.6260    -1.2455 H       
  28 H28            1.1904     3.0106     0.4940 H       
  29 H29            2.1472     0.4335    -1.8663 H       
  30 H30            3.3493    -0.3332    -0.7998 H       
  31 H31            1.6136    -1.2016     0.6542 H       
  32 H32            1.1407    -1.5996    -1.0183 H       
  33 H33           -3.9430    -0.8570     0.2630 H       
  34 H34           -4.2719     0.7742     0.4950 H       
  35 H35            4.5046     1.4673    -0.1559 H       
  36 H36            3.6188     2.5785    -1.2278 H       
  37 H37            4.8344     2.0017     2.1889 H       
  38 H38            5.0247     3.7819     3.8790 H       
  39 H39            2.9015     6.4459     1.3094 H       
  40 H40            2.7172     4.6660    -0.3819 H       
  41 H41           -2.1375    -4.6352     0.4053 H       
  42 H42           -2.1411    -5.8658     2.5348 H       
  43 H43           -1.5662    -4.7108     4.6294 H       
  44 H44           -0.9847    -2.3206     4.6077 H       
  45 H45           -0.9688    -1.0731     2.4880 H       
@<TRIPOS>BOND
   1    1    2 2
   2    1    6 1
   3    1    5 1
   4    2    3 1
   5    2    9 1
   6    3    4 2
   7    3   11 1
   8    4    5 1
   9    4   10 1
  10    6    7 1
  11    6   27 1
  12    6   28 1
  13    7    8 1
  14    7   13 1
  15    8    9 1
  16    8   29 1
  17    8   30 1
  18    9   31 1
  19    9   32 1
  20   10   33 1
  21   10   34 1
  22   11   12 1
  23   11   25 2
  24   12   20 ar
  25   12   24 ar
  26   13   14 1
  27   13   35 1
  28   13   36 1
  29   14   15 ar
  30   14   19 ar
  31   15   16 ar
  32   15   37 1
  33   16   17 ar
  34   16   38 1
  35   17   18 ar
  36   17   26 1
  37   18   19 ar
  38   18   39 1
  39   19   40 1
  40   20   21 ar
  41   20   41 1
  42   21   22 ar
  43   21   42 1
  44   22   23 ar
  45   22   43 1
  46   23   24 ar
  47   23   44 1
  48   24   45 1

#	End of record

