#	Name: ASD01814167
#	Creating user name:	WinNT
#	Creation time:	15. 06. 2019 19:31

#	Modifying user name:	WinNT
#	Modification time:	15. 06. 2019 19:31

#	Program:	/corina/corina34_cracker 3.40 0067  02.08.2006

@<TRIPOS>MOLECULE
ASD01814167
  51   55    0    0    0
SMALL
NO_CHARGES


@<TRIPOS>ATOM
   1 N1            -0.9395     1.9123    -1.4682 N.2     
   2 C2            -1.2127     0.7655    -2.0444 C.2     
   3 C3            -0.3630     0.2522    -3.0364 C.2     
   4 C4             0.7424     0.9515    -3.3941 C.2     
   5 N5             1.0031     2.1424    -2.7783 N.pl3   
   6 C6             0.1496     2.6116    -1.8135 C.2     
   7 N7             2.0357     3.0751    -2.9206 N.2     
   8 C8             1.8287     4.0717    -2.0836 C.2     
   9 C9             0.6650     3.8254    -1.3745 C.2     
  10 C10            2.4070     5.3870    -1.6224 C.3     
  11 N11            1.5207     5.9254    -0.5860 N.am    
  12 C12            0.4264     4.9642    -0.4166 C.3     
  13 C13            1.6813     7.0839     0.0838 C.2     
  14 O14            0.8200     7.4663     0.8524 O.2     
  15 C15            2.9011     7.8874    -0.1152 C.ar    
  16 C16            2.8132     9.2807    -0.2490 C.ar    
  17 C17            4.1514     7.2652    -0.1657 C.ar    
  18 C18            5.2878     8.0205    -0.3514 C.ar    
  19 C19            5.1973     9.3988    -0.4888 C.ar    
  20 C20            3.9654    10.0271    -0.4353 C.ar    
  21 O21            1.6048     9.8950    -0.1968 O.3     
  22 C22            1.6030    11.3240    -0.1967 C.3     
  23 C23            1.5950    13.3649    -1.6349 C.3     
  24 C24            1.6587    11.8359    -1.6387 C.3     
  25 C25            0.3215    11.8340     0.4685 C.3     
  26 C26            0.2966    13.3631     0.4112 C.3     
  27 N27            0.3510    13.8027    -0.9889 N.3     
  28 Cl28          -0.7237    -1.2652    -3.7986 Cl      
  29 C29            0.1897    15.2593    -1.0900 C.3     
  30 F30            6.3179    10.1312    -0.6701 F       
  31 H31           -2.0948     0.2142    -1.7539 H       
  32 H32            1.4078     0.5717    -4.1553 H       
  33 H33            3.4035     5.2281    -1.2103 H       
  34 H34            2.4596     6.0815    -2.4608 H       
  35 H35           -0.5258     5.4440    -0.6430 H       
  36 H36            0.4186     4.5903     0.6072 H       
  37 H37            4.2263     6.1931    -0.0589 H       
  38 H38            6.2535     7.5386    -0.3899 H       
  39 H39            3.9022    11.1002    -0.5391 H       
  40 H40            2.4696    11.6894     0.3543 H       
  41 H41            2.4487    13.7626    -1.0862 H       
  42 H42            1.6200    13.7320    -2.6610 H       
  43 H43            2.5894    11.5116    -2.1043 H       
  44 H44            0.8128    11.4378    -2.1991 H       
  45 H45           -0.5454    11.4359    -0.0588 H       
  46 H46            0.2969    11.5084     1.5084 H       
  47 H47           -0.6213    13.7289     0.8712 H       
  48 H48            1.1564    13.7608     0.9504 H       
  49 H49            0.1589    15.5494    -2.1403 H       
  50 H50           -0.7394    15.5566    -0.6036 H       
  51 H51            1.0297    15.7527    -0.6012 H       
@<TRIPOS>BOND
   1    1    2 2
   2    1    6 1
   3    2    3 1
   4    2   31 1
   5    3    4 2
   6    3   28 1
   7    4    5 1
   8    4   32 1
   9    5    7 1
  10    5    6 1
  11    6    9 2
  12    7    8 2
  13    8   10 1
  14    8    9 1
  15    9   12 1
  16   10   11 1
  17   10   33 1
  18   10   34 1
  19   11   12 1
  20   11   13 am
  21   12   35 1
  22   12   36 1
  23   13   14 2
  24   13   15 1
  25   15   17 ar
  26   15   16 ar
  27   16   20 ar
  28   16   21 1
  29   17   18 ar
  30   17   37 1
  31   18   19 ar
  32   18   38 1
  33   19   20 ar
  34   19   30 1
  35   20   39 1
  36   21   22 1
  37   22   25 1
  38   22   24 1
  39   22   40 1
  40   23   24 1
  41   23   27 1
  42   23   41 1
  43   23   42 1
  44   24   43 1
  45   24   44 1
  46   25   26 1
  47   25   45 1
  48   25   46 1
  49   26   27 1
  50   26   47 1
  51   26   48 1
  52   27   29 1
  53   29   49 1
  54   29   50 1
  55   29   51 1

#	End of record

