#	Name: ASD05740012
#	Creating user name:	WinNT
#	Creation time:	15. 06. 2019 21:02

#	Modifying user name:	WinNT
#	Modification time:	15. 06. 2019 21:02

#	Program:	/corina/corina34_cracker 3.40 0067  02.08.2006

@<TRIPOS>MOLECULE
ASD05740012
  54   57    0    0    0
SMALL
NO_CHARGES


@<TRIPOS>ATOM
   1 C1            -0.0158     1.3137     0.0093 C.ar    
   2 C2             1.0178     3.5471     0.0114 C.ar    
   3 C3             0.9050     4.2160     1.2219 C.ar    
   4 C4             0.6583     5.5598     1.2513 C.ar    
   5 C5             0.5186     6.2653     0.0521 C.ar    
   6 C6             0.6322     5.5912    -1.1762 C.ar    
   7 C7             0.8885     4.2258    -1.1822 C.ar    
   8 C8             0.2530     7.7072     0.0498 C.2     
   9 C9             0.1275     8.3336    -1.1476 C.2     
  10 C10            0.2536     7.5936    -2.3432 C.2     
  11 O11            0.4963     6.2738    -2.3329 O.3     
  12 C12           -0.1462     9.8146    -1.2006 C.3     
  13 C13            1.1543    10.5606    -1.3537 C.ar    
  14 C14            1.6627    10.8502    -2.6132 C.ar    
  15 O15            0.1389     8.1675    -3.4111 O.2     
  16 C16            1.8654    10.9772    -0.2431 C.ar    
  17 C17            3.0621    11.6633    -0.4242 C.ar    
  18 N18            3.5166    11.9155    -1.6419 N.ar    
  19 C19            2.8564    11.5350    -2.7194 C.ar    
  20 N20            3.7869    12.0883     0.6832 N.am    
  21 S21            5.2122    12.9055     0.4761 S.o2    
  22 O22            5.6714    13.1498     1.7985 O.2     
  23 O23            5.9565    12.0907    -0.4191 O.2     
  24 C24            0.1226     8.4725     1.3414 C.3     
  25 N25            0.0021    -0.0041     0.0020 N.ar    
  26 C26           -1.1250    -0.6974     0.0095 C.ar    
  27 C27           -2.3337    -0.0192     0.0251 C.ar    
  28 C28           -2.3119     1.3665     0.0324 C.ar    
  29 N29           -1.1457     1.9920     0.0292 N.ar    
  30 C30            4.7307    14.4588    -0.3277 C.3     
  31 C31            5.9761    15.3124    -0.5753 C.3     
  32 C32            1.2906     2.0650     0.0008 C.3     
  33 F33            2.0344     1.7197     1.1342 F       
  34 F34            2.0126     1.7319    -1.1502 F       
  35 H35            1.0127     3.6704     2.1477 H       
  36 H36            0.5712     6.0746     2.1967 H       
  37 H37            0.9784     3.6959    -2.1189 H       
  38 H38           -0.7932    10.0343    -2.0499 H       
  39 H39           -0.6377    10.1265    -0.2791 H       
  40 H40            1.1296    10.5425    -3.5006 H       
  41 H41            1.4966    10.7729     0.7512 H       
  42 H42            3.2577    11.7582    -3.6969 H       
  43 H43            3.4578    11.9061     1.5773 H       
  44 H44            0.2548     7.7915     2.1821 H       
  45 H45            0.8846     9.2510     1.3810 H       
  46 H46           -0.8659     8.9286     1.3952 H       
  47 H47           -1.1034    -1.7772     0.0031 H       
  48 H48           -3.2699    -0.5576     0.0312 H       
  49 H49           -3.2342     1.9283     0.0442 H       
  50 H50            4.2449    14.2404    -1.2787 H       
  51 H51            4.0398    15.0024     0.3168 H       
  52 H52            5.6867    16.2457    -1.0582 H       
  53 H53            6.4618    15.5308     0.3758 H       
  54 H54            6.6669    14.7687    -1.2197 H       
@<TRIPOS>BOND
   1    1   25 ar
   2    1   32 1
   3    1   29 ar
   4    2    3 ar
   5    2   32 1
   6    2    7 ar
   7    3    4 ar
   8    3   35 1
   9    4    5 ar
  10    4   36 1
  11    5    6 ar
  12    5    8 1
  13    6    7 ar
  14    6   11 1
  15    7   37 1
  16    8    9 2
  17    8   24 1
  18    9   10 1
  19    9   12 1
  20   10   11 1
  21   10   15 2
  22   12   13 1
  23   12   38 1
  24   12   39 1
  25   13   14 ar
  26   13   16 ar
  27   14   19 ar
  28   14   40 1
  29   16   17 ar
  30   16   41 1
  31   17   18 ar
  32   17   20 1
  33   18   19 ar
  34   19   42 1
  35   20   21 am
  36   20   43 1
  37   21   22 2
  38   21   23 2
  39   21   30 1
  40   24   44 1
  41   24   45 1
  42   24   46 1
  43   25   26 ar
  44   26   27 ar
  45   26   47 1
  46   27   28 ar
  47   27   48 1
  48   28   29 ar
  49   28   49 1
  50   30   31 1
  51   30   50 1
  52   30   51 1
  53   31   52 1
  54   31   53 1
  55   31   54 1
  56   32   33 1
  57   32   34 1

#	End of record

