#	Name: ASD01150532
#	Creating user name:	WinNT
#	Creation time:	15. 06. 2019 19:04

#	Modifying user name:	WinNT
#	Modification time:	15. 06. 2019 19:04

#	Program:	/corina/corina34_cracker 3.40 0067  02.08.2006

@<TRIPOS>MOLECULE
ASD01150532
  53   56    0    0    0
SMALL
NO_CHARGES


@<TRIPOS>ATOM
   1 C1             0.5879     1.6499    -1.0297 C.ar    
   2 C2             0.4410     0.2808    -1.1383 C.ar    
   3 C3             1.8092    -0.0246     0.8106 C.ar    
   4 C4             1.9592     1.3503     0.9224 C.ar    
   5 C5             1.3478     2.1891     0.0015 C.ar    
   6 N6             1.4966     3.5761     0.1106 N.am    
   7 C7             0.4126     4.3674     0.0280 C.2     
   8 N8             0.5191     5.7054     0.1291 N.am    
   9 C9             1.7278     6.2748     0.3167 C.2     
  10 C10            2.9174     5.4148     0.4080 C.2     
  11 N11            2.7711     4.1197     0.3101 N.2     
  12 O12            1.8323     7.4838     0.4088 O.2     
  13 C13           -0.6784     6.5441     0.0350 C.3     
  14 O14           -0.6823     3.8659    -0.1414 O.2     
  15 C15           -1.2643     6.7393     1.4097 C.ar    
  16 O16            4.1484     5.9577     0.5961 O.3     
  17 C17            5.2516     5.0528     0.6737 C.3     
  18 C18            1.0487    -0.5571    -0.2227 C.ar    
  19 C19           -0.8611     7.8065     2.1904 C.ar    
  20 C20           -1.3911     7.9873     3.4514 C.ar    
  21 C21           -2.3376     7.0954     3.9487 C.ar    
  22 C22           -2.7410     6.0315     3.1515 C.ar    
  23 C23           -2.2121     5.8540     1.8926 C.ar    
  24 N24            2.4237    -0.8739     1.7374 N.am    
  25 C25            2.1657    -2.1965     1.7140 C.2     
  26 O26            1.3201    -2.6362     0.9639 O.2     
  27 C27            2.9278    -3.1291     2.6199 C.3     
  28 O28           -2.9689     7.0742     5.1547 O.3     
  29 C29           -4.1494     6.2594     5.0564 C.3     
  30 C30           -3.7810     5.2567     3.9373 C.3     
  31 C31            3.3476    -0.3254     2.7333 C.3     
  32 H32            0.1154     2.3019    -1.7495 H       
  33 H33           -0.1503    -0.1357    -1.9403 H       
  34 H34            2.5503     1.7667     1.7247 H       
  35 H35           -0.4111     7.5130    -0.3869 H       
  36 H36           -1.4128     6.0582    -0.6073 H       
  37 H37            6.1730     5.6152     0.8248 H       
  38 H38            5.1024     4.3688     1.5092 H       
  39 H39            5.3209     4.4840    -0.2535 H       
  40 H40            0.9319    -1.6272    -0.3104 H       
  41 H41           -0.1270     8.5022     1.8115 H       
  42 H42           -1.0704     8.8235     4.0551 H       
  43 H43           -2.5304     5.0193     1.2857 H       
  44 H44            3.5721    -2.5484     3.2800 H       
  45 H45            2.2252    -3.7104     3.2170 H       
  46 H46            3.5372    -3.8030     2.0178 H       
  47 H47           -4.3382     5.7383     5.9950 H       
  48 H48           -5.0110     6.8611     4.7674 H       
  49 H49           -4.6481     5.0294     3.3172 H       
  50 H50           -3.3538     4.3455     4.3560 H       
  51 H51            2.8095    -0.1345     3.6619 H       
  52 H52            4.1491    -1.0406     2.9182 H       
  53 H53            3.7716     0.6072     2.3609 H       
@<TRIPOS>BOND
   1    1    2 ar
   2    1    5 ar
   3    1   32 1
   4    2   18 ar
   5    2   33 1
   6    3    4 ar
   7    3   24 1
   8    3   18 ar
   9    4    5 ar
  10    4   34 1
  11    5    6 1
  12    6    7 am
  13    6   11 1
  14    7    8 am
  15    7   14 2
  16    8    9 am
  17    8   13 1
  18    9   10 1
  19    9   12 2
  20   10   11 2
  21   10   16 1
  22   13   15 1
  23   13   35 1
  24   13   36 1
  25   15   19 ar
  26   15   23 ar
  27   16   17 1
  28   17   37 1
  29   17   38 1
  30   17   39 1
  31   18   40 1
  32   19   20 ar
  33   19   41 1
  34   20   21 ar
  35   20   42 1
  36   21   22 ar
  37   21   28 1
  38   22   23 ar
  39   22   30 1
  40   23   43 1
  41   24   25 am
  42   24   31 1
  43   25   26 2
  44   25   27 1
  45   27   44 1
  46   27   45 1
  47   27   46 1
  48   28   29 1
  49   29   30 1
  50   29   47 1
  51   29   48 1
  52   30   49 1
  53   30   50 1
  54   31   51 1
  55   31   52 1
  56   31   53 1

#	End of record

