#	Name: ASD01230283
#	Creating user name:	WinNT
#	Creation time:	15. 06. 2019 19:12

#	Modifying user name:	WinNT
#	Modification time:	15. 06. 2019 19:12

#	Program:	/corina/corina34_cracker 3.40 0067  02.08.2006

@<TRIPOS>MOLECULE
ASD01230283
  86   91    0    0    0
SMALL
NO_CHARGES


@<TRIPOS>ATOM
   1 C1            -0.2931    -0.3037     2.2370 C.3     
   2 C2            -0.7155    -8.4287    -5.0601 C.3     
   3 N3            -0.7708    -1.6188     1.8027 N.am    
   4 N4            -1.7101    -9.4789    -4.8036 N.3     
   5 C5            -2.2052    -1.9166     1.8112 C.3     
   6 C6            -1.0907   -10.8104    -4.8387 C.3     
   7 C7             0.1093    -2.5547     1.3953 C.2     
   8 C8            -2.3978    -9.2517    -3.5255 C.3     
   9 O9             1.2908    -2.2808     1.3073 O.2     
  10 O10           -1.4325    -8.9875    -2.5055 O.3     
  11 C11           -0.3606    -3.9113     1.0562 C.ar    
  12 C12           -3.3255    -8.0714    -3.6571 C.ar    
  13 C13           -1.5862    -4.0860     0.4065 C.ar    
  14 C14           -4.2355    -8.0216    -4.6971 C.ar    
  15 C15           -2.0217    -5.3525     0.0911 C.ar    
  16 C16           -5.0874    -6.9414    -4.8200 C.ar    
  17 C17           -1.2433    -6.4598     0.4188 C.ar    
  18 C18           -5.0294    -5.9049    -3.8981 C.ar    
  19 C19           -0.0222    -6.2889     1.0664 C.ar    
  20 C20           -4.1146    -5.9578    -2.8550 C.ar    
  21 C21            0.4214    -5.0244     1.3788 C.ar    
  22 C22           -3.2690    -7.0431    -2.7343 C.ar    
  23 N23           -1.6861    -7.7380     0.0993 N.pl3   
  24 N24           -5.8923    -4.8070    -4.0205 N.pl3   
  25 N25           -3.0230    -8.1751    -0.0763 N.2     
  26 N26           -5.5668    -3.4668    -3.7629 N.2     
  27 C27           -3.1136    -9.2204    -0.8314 C.2     
  28 C28           -6.6302    -2.7343    -3.9901 C.2     
  29 C29           -1.7340    -9.5960    -1.2482 C.3     
  30 C30           -7.6603    -3.5801    -4.3967 C.2     
  31 C31           -1.3139   -11.0471    -1.2755 C.3     
  32 C32           -9.0726    -3.2062    -4.7723 C.3     
  33 C33            0.1563   -11.0608    -1.7414 C.3     
  34 C34           -9.6978    -4.3815    -5.5337 C.3     
  35 C35            1.0465   -10.2187    -0.8341 C.3     
  36 C36           -9.4812    -5.6754    -4.7442 C.3     
  37 C37            0.5086    -8.7864    -0.6600 C.3     
  38 C38           -7.9971    -6.0597    -4.7881 C.3     
  39 C39           -0.8815    -8.9266    -0.1363 C.3     
  40 C40           -7.1795    -4.8495    -4.4117 C.2     
  41 C41           -4.3850    -9.9304    -1.2196 C.3     
  42 C42           -6.7226    -1.2379    -3.8375 C.3     
  43 F43           -5.4482    -9.4323    -0.4590 F       
  44 F44           -4.6427    -9.7161    -2.5779 F       
  45 F45           -4.2442   -11.3020    -0.9824 F       
  46 F46           -5.4607    -0.7225    -3.5226 F       
  47 F47           -7.1709    -0.6737    -5.0366 F       
  48 F48           -7.6220    -0.9284    -2.8116 F       
  49 H49           -1.1431     0.3138     2.5275 H       
  50 H50            0.3768    -0.4235     3.0884 H       
  51 H51            0.2422     0.1770     1.4182 H       
  52 H52           -0.2120    -8.6283    -6.0060 H       
  53 H53           -1.2141    -7.4607    -5.1112 H       
  54 H54            0.0176    -8.4177    -4.2536 H       
  55 H55           -2.6316    -1.6779     0.8369 H       
  56 H56           -2.3553    -2.9750     2.0241 H       
  57 H57           -2.6959    -1.3185     2.5790 H       
  58 H58           -0.2873   -10.8570    -4.1036 H       
  59 H59           -1.8407   -11.5663    -4.6057 H       
  60 H60           -0.6845   -10.9961    -5.8330 H       
  61 H61           -2.9734   -10.1385    -3.2600 H       
  62 H62           -2.1906    -3.2277     0.1528 H       
  63 H63           -4.2799    -8.8280    -5.4141 H       
  64 H64           -2.9684    -5.4880    -0.4108 H       
  65 H65           -5.7976    -6.9028    -5.6327 H       
  66 H66            0.5790    -7.1495     1.3200 H       
  67 H67           -4.0670    -5.1529    -2.1365 H       
  68 H68            1.3704    -4.8923     1.8771 H       
  69 H69           -2.5600    -7.0868    -1.9207 H       
  70 H70           -1.3948   -11.4793    -0.2781 H       
  71 H71           -1.9346   -11.6036    -1.9777 H       
  72 H72           -9.6508    -3.0036    -3.8708 H       
  73 H73           -9.0612    -2.3211    -5.4084 H       
  74 H74            0.5194   -12.0885    -1.7405 H       
  75 H75            0.2107   -10.6674    -2.7565 H       
  76 H76          -10.7664    -4.2065    -5.6580 H       
  77 H77           -9.2281    -4.4708    -6.5132 H       
  78 H78            1.1067   -10.6955     0.1442 H       
  79 H79            2.0467   -10.1711    -1.2648 H       
  80 H80           -9.7869    -5.5247    -3.7089 H       
  81 H81          -10.0765    -6.4745    -5.1860 H       
  82 H82            1.1284    -8.2392     0.0504 H       
  83 H83            0.4990    -8.2724    -1.6211 H       
  84 H84           -7.8064    -6.8688    -4.0831 H       
  85 H85           -7.7302    -6.3793    -5.7954 H       
  86 H86           -0.8774    -9.5542     0.7548 H       
@<TRIPOS>BOND
   1    1    3 1
   2    1   49 1
   3    1   50 1
   4    1   51 1
   5    2    4 1
   6    2   52 1
   7    2   53 1
   8    2   54 1
   9    3    5 1
  10    3    7 am
  11    4    6 1
  12    4    8 1
  13    5   55 1
  14    5   56 1
  15    5   57 1
  16    6   58 1
  17    6   59 1
  18    6   60 1
  19    7    9 2
  20    7   11 1
  21    8   10 1
  22    8   12 1
  23    8   61 1
  24   10   29 1
  25   11   13 ar
  26   11   21 ar
  27   12   14 ar
  28   12   22 ar
  29   13   15 ar
  30   13   62 1
  31   14   16 ar
  32   14   63 1
  33   15   17 ar
  34   15   64 1
  35   16   18 ar
  36   16   65 1
  37   17   19 ar
  38   17   23 1
  39   18   20 ar
  40   18   24 1
  41   19   21 ar
  42   19   66 1
  43   20   22 ar
  44   20   67 1
  45   21   68 1
  46   22   69 1
  47   23   25 1
  48   23   39 1
  49   24   26 1
  50   24   40 1
  51   25   27 2
  52   26   28 2
  53   27   29 1
  54   27   41 1
  55   28   30 1
  56   28   42 1
  57   29   31 1
  58   29   39 1
  59   30   32 1
  60   30   40 2
  61   31   33 1
  62   31   70 1
  63   31   71 1
  64   32   34 1
  65   32   72 1
  66   32   73 1
  67   33   35 1
  68   33   74 1
  69   33   75 1
  70   34   36 1
  71   34   76 1
  72   34   77 1
  73   35   37 1
  74   35   78 1
  75   35   79 1
  76   36   38 1
  77   36   80 1
  78   36   81 1
  79   37   39 1
  80   37   82 1
  81   37   83 1
  82   38   40 1
  83   38   84 1
  84   38   85 1
  85   39   86 1
  86   41   43 1
  87   41   44 1
  88   41   45 1
  89   42   46 1
  90   42   47 1
  91   42   48 1

#	End of record

