#	Name: ASD03331668
#	Creating user name:	WinNT
#	Creation time:	15. 06. 2019 20:39

#	Modifying user name:	WinNT
#	Modification time:	15. 06. 2019 20:39

#	Program:	/corina/corina34_cracker 3.40 0067  02.08.2006

@<TRIPOS>MOLECULE
ASD03331668
  41   43    0    0    0
SMALL
NO_CHARGES


@<TRIPOS>ATOM
   1 C1            -0.0166     1.3766     0.0096 C.ar    
   2 C2             0.0021    -0.0041     0.0020 C.ar    
   3 C3             1.2139    -0.6894    -0.0132 C.ar    
   4 C4             2.4079    -0.0030    -0.0205 C.ar    
   5 C5             1.1879     2.0828     0.0019 C.ar    
   6 C6             1.5314     3.5069     0.0063 C.2     
   7 C7             2.4105     1.3876    -0.0130 C.ar    
   8 N8             3.4148     2.3326    -0.0167 N.pl3   
   9 C9             2.8713     3.5881    -0.0061 C.2     
  10 S10            3.7937     5.0894    -0.0068 S.o2    
  11 O11            2.9442     6.0825     0.5512 O.2     
  12 O12            5.0737     4.7742     0.5238 O.2     
  13 N13            4.0352     5.5156    -1.5886 N.am    
  14 C14            2.8927     5.8705    -2.4343 C.3     
  15 C15            4.1451     6.4507    -5.9483 C.ar    
  16 C16            3.6921     5.8182    -4.8056 C.ar    
  17 C17            3.3851     6.5602    -3.6804 C.ar    
  18 C18            3.5295     7.9349    -3.6984 C.ar    
  19 C19            3.9812     8.5675    -4.8415 C.ar    
  20 C20            4.2890     7.8254    -5.9664 C.ar    
  21 O21           -1.1679    -0.6972     0.0099 O.3     
  22 C22           -1.0771    -2.1233     0.0014 C.3     
  23 C23            4.7823     8.5150    -7.2122 C.3     
  24 H24           -0.9574     1.9071     0.0169 H       
  25 H25            1.2176    -1.7693    -0.0191 H       
  26 H26            3.3421    -0.5447    -0.0316 H       
  27 H27            0.8380     4.3348     0.0173 H       
  28 H28            4.3647     2.1365    -0.0264 H       
  29 H29            4.9331     5.5303    -1.9553 H       
  30 H30            2.3499     4.9663    -2.7098 H       
  31 H31            2.2293     6.5399    -1.8865 H       
  32 H32            4.3891     5.8706    -6.8259 H       
  33 H33            3.5793     4.7442    -4.7916 H       
  34 H34            3.2890     8.5146    -2.8195 H       
  35 H35            4.0933     9.6416    -4.8557 H       
  36 H36           -0.5500    -2.4485    -0.8957 H       
  37 H37           -0.5324    -2.4580     0.8842 H       
  38 H38           -2.0795    -2.5513     0.0090 H       
  39 H39            3.9328     8.7783    -7.8424 H       
  40 H40            5.3243     9.4196    -6.9364 H       
  41 H41            5.4467     7.8459    -7.7590 H       
@<TRIPOS>BOND
   1    1    2 ar
   2    1    5 ar
   3    1   24 1
   4    2    3 ar
   5    2   21 1
   6    3    4 ar
   7    3   25 1
   8    4    7 ar
   9    4   26 1
  10    5    7 ar
  11    5    6 1
  12    6    9 2
  13    6   27 1
  14    7    8 1
  15    8    9 1
  16    8   28 1
  17    9   10 1
  18   10   11 2
  19   10   12 2
  20   10   13 am
  21   13   14 1
  22   13   29 1
  23   14   17 1
  24   14   30 1
  25   14   31 1
  26   15   16 ar
  27   15   20 ar
  28   15   32 1
  29   16   17 ar
  30   16   33 1
  31   17   18 ar
  32   18   19 ar
  33   18   34 1
  34   19   20 ar
  35   19   35 1
  36   20   23 1
  37   21   22 1
  38   22   36 1
  39   22   37 1
  40   22   38 1
  41   23   39 1
  42   23   40 1
  43   23   41 1

#	End of record

