#	Name: ASD00170732
#	Creating user name:	WinNT
#	Creation time:	15. 06. 2019 18:32

#	Modifying user name:	WinNT
#	Modification time:	15. 06. 2019 18:32

#	Program:	/corina/corina34_cracker 3.40 0067  02.08.2006

@<TRIPOS>MOLECULE
ASD00170732
  79   85    0    0    0
SMALL
NO_CHARGES


@<TRIPOS>ATOM
   1 C1             2.0865     4.7396    -5.6471 C.3     
   2 C2             1.0922     5.7134    -4.9765 C.3     
   3 C3            -0.2901     5.2496    -5.4877 C.3     
   4 C4             0.0325     4.0505    -6.4067 C.3     
   5 O5             1.3072     3.5590    -5.9382 O.3     
   6 O6            -1.1148     4.8363    -4.3963 O.3     
   7 O7             1.1635     5.6007    -3.5538 O.3     
   8 C8             3.2290     4.4004    -4.6876 C.3     
   9 O9             4.1955     3.5940    -5.3641 O.3     
  10 N10           -0.9943     3.0142    -6.2722 N.pl3   
  11 C11           -2.1882     2.9619    -6.9463 C.ar    
  12 C12           -2.8368     1.7999    -6.4958 C.ar    
  13 N13           -2.0208     1.2139    -5.5872 N.2     
  14 C14           -0.9362     1.9219    -5.4588 C.2     
  15 N15           -2.7877     3.7257    -7.8540 N.ar    
  16 C16           -3.9726     3.4015    -8.3267 C.ar    
  17 N17           -4.6210     2.3202    -7.9338 N.ar    
  18 C18           -4.1005     1.4957    -7.0306 C.ar    
  19 N19           -4.7877     0.3644    -6.6250 N.pl3   
  20 C20           -5.9892     0.0129    -7.2518 C.ar    
  21 C21           -6.1706     0.2759    -8.6033 C.ar    
  22 C22           -7.3559    -0.0715    -9.2209 C.ar    
  23 C23           -8.3652    -0.6828    -8.4916 C.ar    
  24 C24           -8.1848    -0.9459    -7.1417 C.ar    
  25 C25           -6.9980    -0.6043    -6.5238 C.ar    
  26 O26           -9.5324    -1.0238    -9.1004 O.3     
  27 N27          -11.4128    -2.9513   -10.1658 N.3     
  28 C28          -12.6160    -3.4478   -10.8488 C.3     
  29 C29          -12.2070    -4.1653   -12.1391 C.3     
  30 C30          -11.1063    -5.1590   -11.8011 C.2     
  31 C31          -10.4129    -5.1056   -10.6576 C.2     
  32 C32          -10.6427    -4.0603    -9.5835 C.3     
  33 C33          -10.6874    -6.2547   -12.6541 C.2     
  34 C34           -9.6731    -7.0039   -12.1118 C.2     
  35 S35           -9.2255    -6.3948   -10.5858 S.3     
  36 N36           -9.0960    -8.1006   -12.7193 N.pl3   
  37 C37          -11.2856    -6.5336   -13.9595 C.2     
  38 C38          -10.7899    -5.8345   -15.1646 C.ar    
  39 O39          -12.1919    -7.3415   -14.0538 O.2     
  40 C40          -11.4300    -6.0144   -16.3918 C.ar    
  41 C41          -10.9625    -5.3591   -17.5132 C.ar    
  42 C42           -9.8600    -4.5241   -17.4214 C.ar    
  43 C43           -9.2213    -4.3428   -16.2058 C.ar    
  44 C44           -9.6833    -4.9875   -15.0779 C.ar    
  45 Cl45          -9.2771    -3.7029   -18.8354 Cl      
  46 Cl46         -11.7564    -5.5815   -19.0409 Cl      
  47 C47          -10.5284    -1.6500    -8.2892 C.3     
  48 C48          -11.7611    -1.9575    -9.1416 C.3     
  49 H49            2.4801     5.1727    -6.5666 H       
  50 H50            1.2912     6.7382    -5.2899 H       
  51 H51           -0.7756     6.0460    -6.0518 H       
  52 H52            0.1096     4.3771    -7.4437 H       
  53 H53           -1.2988     5.5366    -3.7553 H       
  54 H54            2.0295     5.8220    -3.1846 H       
  55 H55            3.7004     5.3212    -4.3442 H       
  56 H56            2.8342     3.8531    -3.8317 H       
  57 H57            4.9499     3.3406    -4.8148 H       
  58 H58           -0.1149     1.6834    -4.7993 H       
  59 H59           -4.4318     4.0439    -9.0634 H       
  60 H60           -4.4368    -0.1848    -5.9065 H       
  61 H61           -5.3852     0.7525    -9.1710 H       
  62 H62           -7.4972     0.1330   -10.2719 H       
  63 H63           -8.9713    -1.4215    -6.5745 H       
  64 H64           -6.8575    -0.8095    -5.4728 H       
  65 H65          -13.1431    -4.1443   -10.1967 H       
  66 H66          -13.2694    -2.6094   -11.0902 H       
  67 H67          -13.0652    -4.6941   -12.5539 H       
  68 H68          -11.8371    -3.4388   -12.8626 H       
  69 H69           -9.6834    -3.6897    -9.2224 H       
  70 H70          -11.2021    -4.5006    -8.7581 H       
  71 H71           -9.3526    -8.3459   -13.6220 H       
  72 H72           -8.4338    -8.6260   -12.2436 H       
  73 H73          -12.2889    -6.6651   -16.4640 H       
  74 H74           -8.3624    -3.6913   -16.1404 H       
  75 H75           -9.1841    -4.8450   -14.1308 H       
  76 H76          -10.1309    -2.5776    -7.8773 H       
  77 H77          -10.8072    -0.9810    -7.4751 H       
  78 H78          -12.1059    -1.0433    -9.6249 H       
  79 H79          -12.5531    -2.3532    -8.5058 H       
@<TRIPOS>BOND
   1    1    2 1
   2    1    8 1
   3    1    5 1
   4    1   49 1
   5    2    3 1
   6    2    7 1
   7    2   50 1
   8    3    6 1
   9    3    4 1
  10    3   51 1
  11    4    5 1
  12    4   10 1
  13    4   52 1
  14    6   53 1
  15    7   54 1
  16    8    9 1
  17    8   55 1
  18    8   56 1
  19    9   57 1
  20   10   11 1
  21   10   14 1
  22   11   12 ar
  23   11   15 ar
  24   12   13 1
  25   12   18 ar
  26   13   14 2
  27   14   58 1
  28   15   16 ar
  29   16   17 ar
  30   16   59 1
  31   17   18 ar
  32   18   19 1
  33   19   20 1
  34   19   60 1
  35   20   21 ar
  36   20   25 ar
  37   21   22 ar
  38   21   61 1
  39   22   23 ar
  40   22   62 1
  41   23   24 ar
  42   23   26 1
  43   24   25 ar
  44   24   63 1
  45   25   64 1
  46   26   47 1
  47   27   28 1
  48   27   32 1
  49   27   48 1
  50   28   29 1
  51   28   65 1
  52   28   66 1
  53   29   30 1
  54   29   67 1
  55   29   68 1
  56   30   31 2
  57   30   33 1
  58   31   32 1
  59   31   35 1
  60   32   69 1
  61   32   70 1
  62   33   34 2
  63   33   37 1
  64   34   35 1
  65   34   36 1
  66   36   71 1
  67   36   72 1
  68   37   38 1
  69   37   39 2
  70   38   40 ar
  71   38   44 ar
  72   40   41 ar
  73   40   73 1
  74   41   42 ar
  75   41   46 1
  76   42   43 ar
  77   42   45 1
  78   43   44 ar
  79   43   74 1
  80   44   75 1
  81   47   48 1
  82   47   76 1
  83   47   77 1
  84   48   78 1
  85   48   79 1

#	End of record

