#	Name: ASD00238004
#	Creating user name:	WinNT
#	Creation time:	15. 06. 2019 18:33

#	Modifying user name:	WinNT
#	Modification time:	15. 06. 2019 18:33

#	Program:	/corina/corina34_cracker 3.40 0067  02.08.2006

@<TRIPOS>MOLECULE
ASD00238004
  80   83    0    0    0
SMALL
NO_CHARGES


@<TRIPOS>ATOM
   1 C1             2.4760     5.5602    -0.4416 C.ar    
   2 C2             3.6093     6.1377    -0.9345 C.ar    
   3 C3             4.7347     5.3616    -1.2205 C.ar    
   4 C4             4.7205     3.9980    -1.0097 C.ar    
   5 C5             3.5653     3.3825    -0.5032 C.ar    
   6 N6             3.5452     2.0569    -0.2965 N.ar    
   7 C7             2.5005     1.4157     0.1738 C.ar    
   8 C8             1.2688     2.1344     0.5069 C.ar    
   9 C9             0.1434     1.4779     1.0079 C.ar    
  10 C10           -0.9924     2.2088     1.3043 C.ar    
  11 C11           -1.0206     3.5908     1.1065 C.ar    
  12 C12            0.0711     4.2486     0.6168 C.ar    
  13 C13            1.2290     3.5349     0.3109 C.ar    
  14 C14            2.4338     4.1825    -0.2187 C.ar    
  15 C15            4.7502     1.2857    -0.6121 C.3     
  16 C16            4.7449     0.9163    -2.0968 C.3     
  17 C17            6.0033     0.1109    -2.4264 C.3     
  18 C18            5.9980    -0.2585    -3.9112 C.3     
  19 C19            7.2565    -1.0639    -4.2408 C.3     
  20 C20            7.2512    -1.4333    -5.7255 C.3     
  21 C21            8.5096    -2.2387    -6.0551 C.3     
  22 C22            8.5043    -2.6081    -7.5399 C.3     
  23 C23            9.7627    -3.4135    -7.8695 C.3     
  24 C24            9.7575    -3.7829    -9.3542 C.3     
  25 N25           10.9657    -4.5562    -9.6707 N.4     
  26 C26           10.9887    -5.7819    -8.8612 C.3     
  27 C27           10.9607    -4.9109   -11.0962 C.3     
  28 C28           12.1561    -3.7492    -9.3711 C.3     
  29 C29            2.5683    -0.0503     0.3692 C.ar    
  30 C30            3.5307    -0.6003     1.2162 C.ar    
  31 C31            3.5884    -1.9673     1.3944 C.ar    
  32 C32            2.6944    -2.7921     0.7352 C.ar    
  33 C33            1.7376    -2.2527    -0.1061 C.ar    
  34 C34            1.6662    -0.8870    -0.2885 C.ar    
  35 N35           -2.1221     1.5586     1.8059 N.pl3   
  36 N36            5.8849     5.9711    -1.7248 N.pl3   
  37 H37            1.6125     6.1695    -0.2194 H       
  38 H38            3.6363     7.2038    -1.1054 H       
  39 H39            5.5955     3.4060    -1.2341 H       
  40 H40            0.1594     0.4091     1.1622 H       
  41 H41           -1.9164     4.1457     1.3431 H       
  42 H42            0.0378     5.3177     0.4671 H       
  43 H43            5.6334     1.8845    -0.3898 H       
  44 H44            4.7672     0.3763    -0.0115 H       
  45 H45            3.8617     0.3175    -2.3191 H       
  46 H46            4.7279     1.8257    -2.6974 H       
  47 H47            6.8865     0.7097    -2.2041 H       
  48 H48            6.0203    -0.7985    -1.8258 H       
  49 H49            5.1148    -0.8573    -4.1335 H       
  50 H50            5.9810     0.6509    -4.5118 H       
  51 H51            8.1397    -0.4651    -4.0185 H       
  52 H52            7.2735    -1.9733    -3.6402 H       
  53 H53            6.3680    -2.0321    -5.9478 H       
  54 H54            7.2342    -0.5239    -6.3261 H       
  55 H55            9.3928    -1.6399    -5.8328 H       
  56 H56            8.5266    -3.1481    -5.4545 H       
  57 H57            7.6211    -3.2069    -7.7622 H       
  58 H58            8.4873    -1.6987    -8.1405 H       
  59 H59           10.6460    -2.8147    -7.6472 H       
  60 H60            9.7798    -4.3229    -7.2689 H       
  61 H61            8.8743    -4.3817    -9.5765 H       
  62 H62            9.7405    -2.8735    -9.9548 H       
  63 H63           10.1054    -6.3807    -9.0835 H       
  64 H64           11.8852    -6.3556    -9.0961 H       
  65 H65           10.9924    -5.5187    -7.8035 H       
  66 H66           10.9437    -4.0014   -11.6968 H       
  67 H67           11.8572    -5.4847   -11.3311 H       
  68 H68           10.0774    -5.5097   -11.3185 H       
  69 H69           12.1598    -3.4860    -8.3133 H       
  70 H70           13.0526    -4.3230    -9.6059 H       
  71 H71           12.1390    -2.8397    -9.9717 H       
  72 H72            4.2294     0.0425     1.7310 H       
  73 H73            4.3332    -2.3943     2.0496 H       
  74 H74            2.7438    -3.8615     0.8777 H       
  75 H75            1.0427    -2.9019    -0.6182 H       
  76 H76            0.9163    -0.4668    -0.9424 H       
  77 H77           -2.1075     0.5987     1.9448 H       
  78 H78           -2.9212     2.0669     2.0153 H       
  79 H79            5.8998     6.9293    -1.8750 H       
  80 H80            6.6691     5.4365    -1.9250 H       
@<TRIPOS>BOND
   1    1    2 ar
   2    1   14 ar
   3    1   37 1
   4    2    3 ar
   5    2   38 1
   6    3    4 ar
   7    3   36 1
   8    4    5 ar
   9    4   39 1
  10    5    6 ar
  11    5   14 ar
  12    6    7 ar
  13    6   15 1
  14    7    8 ar
  15    7   29 1
  16    8    9 ar
  17    8   13 ar
  18    9   10 ar
  19    9   40 1
  20   10   11 ar
  21   10   35 1
  22   11   12 ar
  23   11   41 1
  24   12   13 ar
  25   12   42 1
  26   13   14 ar
  27   15   16 1
  28   15   43 1
  29   15   44 1
  30   16   17 1
  31   16   45 1
  32   16   46 1
  33   17   18 1
  34   17   47 1
  35   17   48 1
  36   18   19 1
  37   18   49 1
  38   18   50 1
  39   19   20 1
  40   19   51 1
  41   19   52 1
  42   20   21 1
  43   20   53 1
  44   20   54 1
  45   21   22 1
  46   21   55 1
  47   21   56 1
  48   22   23 1
  49   22   57 1
  50   22   58 1
  51   23   24 1
  52   23   59 1
  53   23   60 1
  54   24   25 1
  55   24   61 1
  56   24   62 1
  57   25   26 1
  58   25   27 1
  59   25   28 1
  60   26   63 1
  61   26   64 1
  62   26   65 1
  63   27   66 1
  64   27   67 1
  65   27   68 1
  66   28   69 1
  67   28   70 1
  68   28   71 1
  69   29   30 ar
  70   29   34 ar
  71   30   31 ar
  72   30   72 1
  73   31   32 ar
  74   31   73 1
  75   32   33 ar
  76   32   74 1
  77   33   34 ar
  78   33   75 1
  79   34   76 1
  80   35   77 1
  81   35   78 1
  82   36   79 1
  83   36   80 1

#	End of record

