#	Name: ASD01917982
#	Creating user name:	WinNT
#	Creation time:	15. 06. 2019 20:10

#	Modifying user name:	WinNT
#	Modification time:	15. 06. 2019 20:10

#	Program:	/corina/corina34_cracker 3.40 0067  02.08.2006

@<TRIPOS>MOLECULE
ASD01917982
  40   43    0    0    0
SMALL
NO_CHARGES


@<TRIPOS>ATOM
   1 N1             4.8190    -0.4150    -2.1408 N.ar    
   2 C2             5.2864     0.2833    -3.1572 C.ar    
   3 C3             5.1754     1.6608    -3.1826 C.ar    
   4 C4             4.5632     2.3099    -2.1224 C.ar    
   5 C5             4.0811     1.5425    -1.0669 C.ar    
   6 C6             4.2302     0.1635    -1.1133 C.ar    
   7 O7             3.4738     2.1347    -0.0053 O.3     
   8 C8             3.4562     3.4938     0.0439 C.2     
   9 N9             2.2080     5.5081    -0.0226 N.pl3   
  10 C10            2.2743     4.1522    -0.0661 C.2     
  11 C11            4.6567     4.1939     0.2128 C.2     
  12 C12            4.6306     5.5833     0.2620 C.2     
  13 C13            3.3391     6.2579     0.1341 C.2     
  14 C14            5.8717     6.3559     0.4389 C.2     
  15 N15            5.8267     7.7022     0.4843 N.am    
  16 C16            6.9835     8.4290     0.7569 C.ar    
  17 N17            8.1436     7.7999     0.8632 N.ar    
  18 C18            6.9100     9.8089     0.9092 C.ar    
  19 C19            8.0669    10.5187     1.1794 C.ar    
  20 C20            9.2618     9.8210     1.2883 C.ar    
  21 C21            9.2621     8.4501     1.1199 C.ar    
  22 O22            6.9373     5.7792     0.5441 O.2     
  23 N23            1.1463     6.4205    -0.1085 N.2     
  24 C24            1.6627     7.6227    -0.0135 C.2     
  25 N25            2.9777     7.5312     0.1391 N.2     
  26 C26           10.5571     7.6874     1.2311 C.3     
  27 H27            5.7626    -0.2280    -3.9808 H       
  28 H28            5.5617     2.2247    -4.0188 H       
  29 H29            4.4630     3.3852    -2.1156 H       
  30 H30            3.8596    -0.4418    -0.2993 H       
  31 H31            1.3644     3.5840    -0.1915 H       
  32 H32            5.5918     3.6613     0.3041 H       
  33 H33            4.9889     8.1650     0.3271 H       
  34 H34            5.9631    10.3200     0.8176 H       
  35 H35            8.0406    11.5914     1.3024 H       
  36 H36           10.1825    10.3451     1.4984 H       
  37 H37            1.1022     8.5454    -0.0446 H       
  38 H38           11.0287     7.6272     0.2502 H       
  39 H39           11.2234     8.2017     1.9236 H       
  40 H40           10.3558     6.6816     1.5999 H       
@<TRIPOS>BOND
   1    1    2 ar
   2    1    6 ar
   3    2    3 ar
   4    2   27 1
   5    3    4 ar
   6    3   28 1
   7    4    5 ar
   8    4   29 1
   9    5    6 ar
  10    5    7 1
  11    6   30 1
  12    7    8 1
  13    8   11 1
  14    8   10 2
  15    9   10 1
  16    9   23 1
  17    9   13 1
  18   10   31 1
  19   11   12 2
  20   11   32 1
  21   12   13 1
  22   12   14 1
  23   13   25 2
  24   14   15 am
  25   14   22 2
  26   15   16 1
  27   15   33 1
  28   16   18 ar
  29   16   17 ar
  30   17   21 ar
  31   18   19 ar
  32   18   34 1
  33   19   20 ar
  34   19   35 1
  35   20   21 ar
  36   20   36 1
  37   21   26 1
  38   23   24 2
  39   24   25 1
  40   24   37 1
  41   26   38 1
  42   26   39 1
  43   26   40 1

#	End of record

