#	Name: ASD01948302
#	Creating user name:	WinNT
#	Creation time:	15. 06. 2019 20:14

#	Modifying user name:	WinNT
#	Modification time:	15. 06. 2019 20:14

#	Program:	/corina/corina34_cracker 3.40 0067  02.08.2006

@<TRIPOS>MOLECULE
ASD01948302
  47   49    0    0    0
SMALL
NO_CHARGES


@<TRIPOS>ATOM
   1 C1            -0.0493     1.5921     0.2122 C.2     
   2 N2            -0.1214     0.2307     0.1671 N.am    
   3 C3             0.9896    -0.5214     0.0628 C.2     
   4 C4             2.2479     0.0846    -0.0018 C.2     
   5 C5             2.3358     1.4658     0.0424 C.2     
   6 C6             1.1459     2.2247     0.1525 C.2     
   7 C7             3.4937    -0.7554    -0.1177 C.3     
   8 C8             2.9516     3.1268    -2.1134 C.ar    
   9 C9             3.8511     2.9781    -1.0663 C.ar    
  10 N10            3.5681     2.0945    -0.0191 N.pl3   
  11 C11            3.2338     3.9995    -3.1464 C.ar    
  12 C12            4.4114     4.7253    -3.1395 C.ar    
  13 C13            5.3105     4.5809    -2.0982 C.ar    
  14 C14            5.0344     3.7090    -1.0609 C.ar    
  15 N15            1.2052     3.6273     0.1990 N.am    
  16 S16           -0.1893     4.5111     0.3278 S.o2    
  17 N17           -0.8604     4.1563     1.7995 N.am    
  18 O18            0.8983    -1.7392     0.0247 O.2     
  19 C19           -1.4304    -0.4237     0.2339 C.3     
  20 F20            5.9123     3.5678    -0.0439 F       
  21 I21            4.8341     6.0463    -4.7097 I       
  22 C22           -0.5051     4.9515     2.9775 C.3     
  23 C23           -1.8094     3.0471     1.9236 C.3     
  24 O24            0.2041     5.8754     0.3846 O.2     
  25 O25           -1.0807     3.9995    -0.6535 O.2     
  26 C26           -1.6349     5.6892     3.6988 C.3     
  27 C27           -0.9958     4.4553     4.3391 C.3     
  28 H28           -0.9568     2.1721     0.2920 H       
  29 H29            3.2284    -1.8103    -0.0476 H       
  30 H30            3.9727    -0.5642    -1.0779 H       
  31 H31            4.1809    -0.4992     0.6886 H       
  32 H32            2.0340     2.5573    -2.1226 H       
  33 H33            4.2350     1.9224     0.6639 H       
  34 H34            2.5340     4.1152    -3.9608 H       
  35 H35            6.2292     5.1487    -2.0958 H       
  36 H36            2.0629     4.0782     0.1558 H       
  37 H37           -1.8261    -0.5483    -0.7741 H       
  38 H38           -1.3246    -1.4004     0.7060 H       
  39 H39           -2.1143     0.1907     0.8194 H       
  40 H40            0.4698     5.4375     2.9400 H       
  41 H41           -1.2679     2.1296     2.1538 H       
  42 H42           -2.5169     3.2621     2.7245 H       
  43 H43           -2.3496     2.9244     0.9849 H       
  44 H44           -1.4031     6.6603     4.1363 H       
  45 H45           -2.6425     5.5828     3.2970 H       
  46 H46           -1.5829     3.5372     4.3584 H       
  47 H47           -0.3435     4.6146     5.1977 H       
@<TRIPOS>BOND
   1    1    2 1
   2    1    6 2
   3    1   28 1
   4    2    3 am
   5    2   19 1
   6    3    4 1
   7    3   18 2
   8    4    5 2
   9    4    7 1
  10    5    6 1
  11    5   10 1
  12    6   15 1
  13    7   29 1
  14    7   30 1
  15    7   31 1
  16    8    9 ar
  17    8   11 ar
  18    8   32 1
  19    9   10 1
  20    9   14 ar
  21   10   33 1
  22   11   12 ar
  23   11   34 1
  24   12   13 ar
  25   12   21 1
  26   13   14 ar
  27   13   35 1
  28   14   20 1
  29   15   16 am
  30   15   36 1
  31   16   17 am
  32   16   24 2
  33   16   25 2
  34   17   22 1
  35   17   23 1
  36   19   37 1
  37   19   38 1
  38   19   39 1
  39   22   26 1
  40   22   27 1
  41   22   40 1
  42   23   41 1
  43   23   42 1
  44   23   43 1
  45   26   27 1
  46   26   44 1
  47   26   45 1
  48   27   46 1
  49   27   47 1

#	End of record

