#	Name: ASD01918222
#	Creating user name:	WinNT
#	Creation time:	15. 06. 2019 20:11

#	Modifying user name:	WinNT
#	Modification time:	15. 06. 2019 20:11

#	Program:	/corina/corina34_cracker 3.40 0067  02.08.2006

@<TRIPOS>MOLECULE
ASD01918222
  45   46    0    0    0
SMALL
NO_CHARGES


@<TRIPOS>ATOM
   1 C1            -0.0132     1.3766     0.0663 C.ar    
   2 C2             0.0059    -0.0038     0.0651 C.ar    
   3 C3             1.2125    -0.6824     0.0296 C.ar    
   4 C4             2.4064     0.0165    -0.0053 C.ar    
   5 C5             2.4026     1.3954    -0.0051 C.ar    
   6 C6             1.1889     2.0881     0.0311 C.ar    
   7 C7             1.1776     3.5201     0.0321 C.1     
   8 C8             1.1683     4.6940     0.0328 C.1     
   9 C9             1.1570     6.1260     0.0338 C.ar    
  10 N10           -0.0704     8.1396     0.0767 N.ar    
  11 C11           -0.0556     6.8273     0.0757 C.ar    
  12 C12            2.3592     6.8468    -0.0014 C.ar    
  13 C13            2.2970     8.2266     0.0010 C.ar    
  14 C14            1.0502     8.8525     0.0381 C.ar    
  15 C15            0.9754    10.3299     0.0412 C.2     
  16 N16           -0.2220    10.9441    -0.0324 N.am    
  17 O17            1.9938    10.9898     0.1102 O.2     
  18 C18           -1.4387    10.1548    -0.2392 C.3     
  19 C19           -0.3068    12.4012     0.0943 C.3     
  20 C20            0.5147    13.0584    -1.0166 C.3     
  21 C21           -1.7679    12.8392    -0.0246 C.3     
  22 C22            0.2442    12.8276     1.4565 C.3     
  23 Cl23          -1.4858    -0.8907     0.1087 Cl      
  24 C24           -1.9542     9.6494     1.1098 C.3     
  25 H25           -0.9547     1.9051     0.0898 H       
  26 H26            1.2218    -1.7624     0.0296 H       
  27 H27            3.3436    -0.5195    -0.0325 H       
  28 H28            3.3354     1.9391    -0.0320 H       
  29 H29           -0.9875     6.2822     0.1072 H       
  30 H30            3.3102     6.3357    -0.0293 H       
  31 H31            3.2027     8.8143    -0.0251 H       
  32 H32           -2.2002    10.7773    -0.7090 H       
  33 H33           -1.2153     9.3051    -0.8843 H       
  34 H34            0.1222    12.7546    -1.9870 H       
  35 H35            0.4516    14.1425    -0.9223 H       
  36 H36            1.5557    12.7463    -0.9318 H       
  37 H37           -2.3532    12.3710     0.7668 H       
  38 H38           -1.8310    13.9233     0.0697 H       
  39 H39           -2.1605    12.5355    -0.9951 H       
  40 H40            1.2851    12.5155     1.5412 H       
  41 H41            0.1811    13.9116     1.5508 H       
  42 H42           -0.3411    12.3593     2.2479 H       
  43 H43           -2.8594     9.0621     0.9559 H       
  44 H44           -1.1927     9.0269     1.5796 H       
  45 H45           -2.1776    10.4991     1.7549 H       
@<TRIPOS>BOND
   1    1    2 ar
   2    1    6 ar
   3    1   25 1
   4    2    3 ar
   5    2   23 1
   6    3    4 ar
   7    3   26 1
   8    4    5 ar
   9    4   27 1
  10    5    6 ar
  11    5   28 1
  12    6    7 1
  13    7    8 3
  14    8    9 1
  15    9   12 ar
  16    9   11 ar
  17   10   11 ar
  18   10   14 ar
  19   11   29 1
  20   12   13 ar
  21   12   30 1
  22   13   14 ar
  23   13   31 1
  24   14   15 1
  25   15   16 am
  26   15   17 2
  27   16   18 1
  28   16   19 1
  29   18   24 1
  30   18   32 1
  31   18   33 1
  32   19   20 1
  33   19   21 1
  34   19   22 1
  35   20   34 1
  36   20   35 1
  37   20   36 1
  38   21   37 1
  39   21   38 1
  40   21   39 1
  41   22   40 1
  42   22   41 1
  43   22   42 1
  44   24   43 1
  45   24   44 1
  46   24   45 1

#	End of record

