#	Name: ASD01152494
#	Creating user name:	WinNT
#	Creation time:	15. 06. 2019 19:05

#	Modifying user name:	WinNT
#	Modification time:	15. 06. 2019 19:05

#	Program:	/corina/corina34_cracker 3.40 0067  02.08.2006

@<TRIPOS>MOLECULE
ASD01152494
  49   51    0    0    0
SMALL
NO_CHARGES


@<TRIPOS>ATOM
   1 C1            -0.3500     1.3556    -0.0017 C.2     
   2 N2            -0.3386     0.0564    -0.1371 N.2     
   3 N3            -1.3668    -0.7401     0.3665 N.am    
   4 C4            -2.5198    -0.2264     0.8263 C.2     
   5 C5            -2.7983     1.2530     0.7015 C.3     
   6 C6            -1.4653     1.9778     0.7282 C.2     
   7 C7            -3.5205     1.5349    -0.6175 C.3     
   8 O8            -1.3288     3.0284     1.3206 O.2     
   9 C9            -1.1908    -2.1281     0.3935 C.ar    
  10 O10           -3.3408    -0.9537     1.3434 O.2     
  11 C11           -3.9036     2.9910    -0.6793 C.ar    
  12 C12           -2.1830    -2.9638    -0.0989 C.ar    
  13 C13           -0.0196    -2.6709     0.9084 C.ar    
  14 C14            0.1550    -4.0408     0.9349 C.ar    
  15 C15           -0.8335    -4.8759     0.4500 C.ar    
  16 C16           -2.0045    -4.3396    -0.0703 C.ar    
  17 C17           -3.0354     3.9215    -1.2268 C.ar    
  18 C18           -5.1280     3.4132    -0.1955 C.ar    
  19 N19           -5.4733     4.6847    -0.2449 N.ar    
  20 C20           -4.6741     5.6021    -0.7528 C.ar    
  21 C21           -3.4317     5.2548    -1.2625 C.ar    
  22 O22            0.6503     2.1157    -0.5193 O.3     
  23 C23            1.6972     1.4289    -1.2079 C.3     
  24 N24           -3.0026    -5.1858    -0.5659 N.am    
  25 C25           -3.2337    -6.3743     0.0262 C.2     
  26 O26           -2.5218    -6.7480     0.9343 O.2     
  27 C27           -4.3766    -7.2389    -0.4400 C.3     
  28 O28           -2.6113     6.2040    -1.7851 O.3     
  29 C29           -3.0906     7.5502    -1.7798 C.3     
  30 H30           -3.4134     1.5846     1.5381 H       
  31 H31           -2.8599     1.2973    -1.4514 H       
  32 H32           -4.4184     0.9200    -0.6787 H       
  33 H33           -3.0924    -2.5444    -0.5033 H       
  34 H34            0.7550    -2.0209     1.2878 H       
  35 H35            1.0662    -4.4601     1.3352 H       
  36 H36           -0.6937    -5.9466     0.4719 H       
  37 H37           -2.0743     3.6194    -1.6160 H       
  38 H38           -5.8108     2.6918     0.2284 H       
  39 H39           -4.9919     6.6340    -0.7761 H       
  40 H40            2.1829     0.7302    -0.5266 H       
  41 H41            1.2785     0.8813    -2.0523 H       
  42 H42            2.4288     2.1511    -1.5700 H       
  43 H43           -3.5282    -4.9170    -1.3355 H       
  44 H44           -4.8986    -6.7413    -1.2573 H       
  45 H45           -3.9895    -8.1972    -0.7862 H       
  46 H46           -5.0683    -7.4034     0.3862 H       
  47 H47           -4.0129     7.6097    -2.3577 H       
  48 H48           -3.2840     7.8629    -0.7537 H       
  49 H49           -2.3406     8.2047    -2.2238 H       
@<TRIPOS>BOND
   1    1    2 2
   2    1   22 1
   3    1    6 1
   4    2    3 1
   5    3    4 am
   6    3    9 1
   7    4    5 1
   8    4   10 2
   9    5    6 1
  10    5    7 1
  11    5   30 1
  12    6    8 2
  13    7   11 1
  14    7   31 1
  15    7   32 1
  16    9   12 ar
  17    9   13 ar
  18   11   17 ar
  19   11   18 ar
  20   12   16 ar
  21   12   33 1
  22   13   14 ar
  23   13   34 1
  24   14   15 ar
  25   14   35 1
  26   15   16 ar
  27   15   36 1
  28   16   24 1
  29   17   21 ar
  30   17   37 1
  31   18   19 ar
  32   18   38 1
  33   19   20 ar
  34   20   21 ar
  35   20   39 1
  36   21   28 1
  37   22   23 1
  38   23   40 1
  39   23   41 1
  40   23   42 1
  41   24   25 am
  42   24   43 1
  43   25   26 2
  44   25   27 1
  45   27   44 1
  46   27   45 1
  47   27   46 1
  48   28   29 1
  49   29   47 1
  50   29   48 1
  51   29   49 1

#	End of record

