#	Name: ASD01883391
#	Creating user name:	WinNT
#	Creation time:	15. 06. 2019 19:46

#	Modifying user name:	WinNT
#	Modification time:	15. 06. 2019 19:46

#	Program:	/corina/corina34_cracker 3.40 0067  02.08.2006

@<TRIPOS>MOLECULE
ASD01883391
  61   65    0    0    0
SMALL
NO_CHARGES


@<TRIPOS>ATOM
   1 N1             0.0021     1.3082    -0.0152 N.am    
   2 C2            -0.7518     1.3829     1.0973 C.2     
   3 C3            -1.9997     0.7182     1.1499 C.2     
   4 C4            -2.4239    -0.0108     0.0261 C.2     
   5 C5            -1.5912    -0.0513    -1.1076 C.2     
   6 C6            -0.4117     0.6073    -1.1028 C.2     
   7 O7            -0.3596     2.0222     2.0588 O.2     
   8 C8            -2.8143     0.7866     2.3257 C.1     
   9 N9            -3.4606     0.8409     3.2584 N.1     
  10 C10            1.2919     2.0017    -0.0562 C.3     
  11 N11           -3.6309    -0.6732     0.0341 N.pl3   
  12 C12            2.3909     1.0649     0.4490 C.3     
  13 C13            3.8350     1.5648     0.3740 C.3     
  14 C14            3.1289     1.4665     1.7277 C.3     
  15 C15           -4.8964     0.0654     0.1606 C.3     
  16 C16           -5.8354    -0.3813    -0.9650 C.3     
  17 N17           -5.9647    -1.8444    -0.9388 N.3     
  18 C18           -4.6754    -2.4981    -1.1997 C.3     
  19 C19           -3.6892    -2.1376    -0.0898 C.3     
  20 C20           -6.9877    -2.2996    -1.8897 C.3     
  21 C21           -6.9236    -3.7998    -2.0165 C.ar    
  22 C22           -7.6799    -4.5961    -1.1769 C.ar    
  23 C23           -7.6230    -5.9722    -1.2904 C.ar    
  24 C24           -6.8065    -6.5548    -2.2479 C.ar    
  25 C25           -6.0479    -5.7532    -3.0906 C.ar    
  26 C26           -6.1126    -4.3774    -2.9762 C.ar    
  27 O27           -6.7485    -7.9081    -2.3611 O.3     
  28 C28           -7.5556    -8.6696    -1.4607 C.3     
  29 Cl29          -5.0239    -6.4783    -4.2904 Cl      
  30 C30           -7.3595   -10.1615    -1.7372 C.3     
  31 C31           -8.0510   -11.1511    -0.7973 C.3     
  32 C32           -8.5741   -10.9558    -2.2217 C.3     
  33 H33           -1.8967    -0.6057    -1.9826 H       
  34 H34            0.2190     0.5690    -1.9787 H       
  35 H35            1.5116     2.3000    -1.0814 H       
  36 H36            1.2488     2.8869     0.5784 H       
  37 H37            2.2169     0.0021     0.2806 H       
  38 H38            4.6110     0.8309     0.1566 H       
  39 H39            4.0020     2.5611    -0.0353 H       
  40 H40            2.8313     2.3981     2.2090 H       
  41 H41            3.4403     0.6678     2.4010 H       
  42 H42           -5.3527    -0.1526     1.1262 H       
  43 H43           -4.7061     1.1353     0.0757 H       
  44 H44           -6.8159     0.0731    -0.8226 H       
  45 H45           -5.4256    -0.0696    -1.9257 H       
  46 H46           -4.8145    -3.5788    -1.2275 H       
  47 H47           -4.2817    -2.1568    -2.1571 H       
  48 H48           -2.7011    -2.5253    -0.3378 H       
  49 H49           -4.0273    -2.5657     0.8538 H       
  50 H50           -7.9742    -2.0072    -1.5297 H       
  51 H51           -6.8067    -1.8446    -2.8635 H       
  52 H52           -8.3158    -4.1423    -0.4312 H       
  53 H53           -8.2137    -6.5935    -0.6336 H       
  54 H54           -5.5232    -3.7530    -3.6314 H       
  55 H55           -7.2624    -8.4487    -0.4344 H       
  56 H56           -8.6043    -8.4084    -1.6031 H       
  57 H57           -6.3836   -10.4419    -2.1337 H       
  58 H58           -7.5302   -12.0826    -0.5757 H       
  59 H59           -8.6456   -10.7392     0.0181 H       
  60 H60           -9.5129   -10.4155    -2.3435 H       
  61 H61           -8.3975   -11.7589    -2.9373 H       
@<TRIPOS>BOND
   1    1    2 am
   2    1   10 1
   3    1    6 1
   4    2    3 1
   5    2    7 2
   6    3    4 2
   7    3    8 1
   8    4    5 1
   9    4   11 1
  10    5    6 2
  11    5   33 1
  12    6   34 1
  13    8    9 3
  14   10   12 1
  15   10   35 1
  16   10   36 1
  17   11   15 1
  18   11   19 1
  19   12   13 1
  20   12   14 1
  21   12   37 1
  22   13   14 1
  23   13   38 1
  24   13   39 1
  25   14   40 1
  26   14   41 1
  27   15   16 1
  28   15   42 1
  29   15   43 1
  30   16   17 1
  31   16   44 1
  32   16   45 1
  33   17   18 1
  34   17   20 1
  35   18   19 1
  36   18   46 1
  37   18   47 1
  38   19   48 1
  39   19   49 1
  40   20   21 1
  41   20   50 1
  42   20   51 1
  43   21   22 ar
  44   21   26 ar
  45   22   23 ar
  46   22   52 1
  47   23   24 ar
  48   23   53 1
  49   24   25 ar
  50   24   27 1
  51   25   26 ar
  52   25   29 1
  53   26   54 1
  54   27   28 1
  55   28   30 1
  56   28   55 1
  57   28   56 1
  58   30   31 1
  59   30   32 1
  60   30   57 1
  61   31   32 1
  62   31   58 1
  63   31   59 1
  64   32   60 1
  65   32   61 1

#	End of record

