#	Name: ASD04880063
#	Creating user name:	WinNT
#	Creation time:	15. 06. 2019 20:52

#	Modifying user name:	WinNT
#	Modification time:	15. 06. 2019 20:52

#	Program:	/corina/corina34_cracker 3.40 0067  02.08.2006

@<TRIPOS>MOLECULE
ASD04880063
  46   48    0    0    0
SMALL
NO_CHARGES


@<TRIPOS>ATOM
   1 C1            -0.0144     1.2121     0.0087 C.2     
   2 O2             0.0564    -0.0019    -0.0145 O.2     
   3 C3             1.2176     2.0237    -0.0196 C.ar    
   4 C4             2.4671     1.4037     0.0724 C.ar    
   5 C5             3.6172     2.1678     0.0450 C.ar    
   6 C6             3.5303     3.5544    -0.0743 C.ar    
   7 C7             2.2896     4.1698    -0.1657 C.ar    
   8 C8             1.1381     3.4127    -0.1443 C.ar    
   9 O9             4.6622     4.3043    -0.1007 O.3     
  10 C10            4.5005     5.7187    -0.2248 C.3     
  11 O11            4.8344     1.5679     0.1347 O.3     
  12 N12           -1.2184     1.8161     0.0546 N.am    
  13 N13           -1.4332     3.1854     0.1972 N.2     
  14 C14           -2.6763     3.5242     0.2143 C.2     
  15 C15           -3.5381     2.2903     0.0697 C.3     
  16 C16           -2.5206     1.1378    -0.0439 C.3     
  17 C17           -3.1806     4.9024     0.3538 C.ar    
  18 C18           -2.2839     5.9670     0.4808 C.ar    
  19 C19           -2.7621     7.2570     0.6108 C.ar    
  20 C20           -4.1353     7.4942     0.6151 C.ar    
  21 C21           -5.0254     6.4380     0.4891 C.ar    
  22 C22           -4.5557     5.1482     0.3536 C.ar    
  23 O23           -4.6036     8.7638     0.7435 O.3     
  24 C24           -6.0223     8.9355     0.7401 C.3     
  25 O25           -1.8924     8.2951     0.7350 O.3     
  26 C26           -0.4989     7.9790     0.7231 C.3     
  27 H27            2.5329     0.3297     0.1651 H       
  28 H28            2.2265     5.2440    -0.2576 H       
  29 H29            0.1741     3.8938    -0.2200 H       
  30 H30            3.9778     5.9446    -1.1542 H       
  31 H31            3.9205     6.0935     0.6186 H       
  32 H32            5.4799     6.1970    -0.2333 H       
  33 H33            5.2148     1.3202    -0.7191 H       
  34 H34           -4.1712     2.1611     0.9475 H       
  35 H35           -4.1440     2.3508    -0.8343 H       
  36 H36           -2.6175     0.6313    -1.0042 H       
  37 H37           -2.6490     0.4329     0.7775 H       
  38 H38           -1.2199     5.7818     0.4777 H       
  39 H39           -6.0889     6.6264     0.4932 H       
  40 H40           -5.2509     4.3282     0.2511 H       
  41 H41           -6.4307     8.5665    -0.2007 H       
  42 H42           -6.4578     8.3775     1.5690 H       
  43 H43           -6.2605     9.9935     0.8495 H       
  44 H44            0.0824     8.8949     0.8298 H       
  45 H45           -0.2719     7.3062     1.5501 H       
  46 H46           -0.2442     7.4948    -0.2196 H       
@<TRIPOS>BOND
   1    1    2 2
   2    1    3 1
   3    1   12 am
   4    3    4 ar
   5    3    8 ar
   6    4    5 ar
   7    4   27 1
   8    5    6 ar
   9    5   11 1
  10    6    7 ar
  11    6    9 1
  12    7    8 ar
  13    7   28 1
  14    8   29 1
  15    9   10 1
  16   10   30 1
  17   10   31 1
  18   10   32 1
  19   11   33 1
  20   12   13 1
  21   12   16 1
  22   13   14 2
  23   14   15 1
  24   14   17 1
  25   15   16 1
  26   15   34 1
  27   15   35 1
  28   16   36 1
  29   16   37 1
  30   17   18 ar
  31   17   22 ar
  32   18   19 ar
  33   18   38 1
  34   19   20 ar
  35   19   25 1
  36   20   21 ar
  37   20   23 1
  38   21   22 ar
  39   21   39 1
  40   22   40 1
  41   23   24 1
  42   24   41 1
  43   24   42 1
  44   24   43 1
  45   25   26 1
  46   26   44 1
  47   26   45 1
  48   26   46 1

#	End of record

