#	Name: ASD00310009
#	Creating user name:	WinNT
#	Creation time:	15. 06. 2019 18:33

#	Modifying user name:	WinNT
#	Modification time:	15. 06. 2019 18:33

#	Program:	/corina/corina34_cracker 3.40 0067  02.08.2006

@<TRIPOS>MOLECULE
ASD00310009
  18   19    0    0    0
SMALL
NO_CHARGES


@<TRIPOS>ATOM
   1 N1            -0.0162     1.3426     0.0094 N.pl3   
   2 C2             0.0021    -0.0041     0.0020 C.2     
   3 C3             1.3067    -0.4492    -0.0128 C.2     
   4 C4             2.1540     0.7598    -0.0144 C.ar    
   5 C5             3.5290     0.9762    -0.0264 C.ar    
   6 C6             4.0171     2.2655    -0.0241 C.ar    
   7 C7             3.1426     3.3446    -0.0095 C.ar    
   8 C8             1.7788     3.1426     0.0024 C.ar    
   9 C9             1.2683     1.8482    -0.0001 C.ar    
  10 C10            1.7462    -1.7965    -0.0236 C.2     
  11 O11            0.9349    -2.6997    -0.0204 O.2     
  12 Cl12           3.7725     4.9623    -0.0057 Cl      
  13 Br13           5.8840     2.5661    -0.0403 Br      
  14 H14           -0.8216     1.8831     0.0163 H       
  15 H15           -0.8720    -0.6384     0.0073 H       
  16 H16            4.2101     0.1382    -0.0370 H       
  17 H17            1.1073     3.9883     0.0141 H       
  18 H18            2.8028    -2.0198    -0.0345 H       
@<TRIPOS>BOND
   1    1    2 1
   2    1    9 1
   3    1   14 1
   4    2    3 2
   5    2   15 1
   6    3    4 1
   7    3   10 1
   8    4    5 ar
   9    4    9 ar
  10    5    6 ar
  11    5   16 1
  12    6    7 ar
  13    6   13 1
  14    7    8 ar
  15    7   12 1
  16    8    9 ar
  17    8   17 1
  18   10   11 2
  19   10   18 1

#	End of record

