#	Name: ASD08070364
#	Creating user name:	WinNT
#	Creation time:	15. 06. 2019 21:14

#	Modifying user name:	WinNT
#	Modification time:	15. 06. 2019 21:14

#	Program:	/corina/corina34_cracker 3.40 0067  02.08.2006

@<TRIPOS>MOLECULE
ASD08070364
  41   43    0    0    0
SMALL
NO_CHARGES


@<TRIPOS>ATOM
   1 C1            -0.0179     1.4712     0.0101 C.2     
   2 C2             0.0021    -0.0041     0.0020 C.ar    
   3 C3             1.2220    -0.6911    -0.0133 C.ar    
   4 C4             1.2286    -2.0824    -0.0204 C.ar    
   5 C5             0.0326    -2.7803    -0.0122 C.ar    
   6 C6            -1.1739    -2.1005     0.0025 C.ar    
   7 C7            -1.1965    -0.7228     0.0155 C.ar    
   8 O8             1.0267     2.0935     0.0035 O.2     
   9 N9            -1.1942     2.1292     0.0193 N.am    
  10 C10           -1.2140     3.5940     0.0273 C.3     
  11 C11           -2.5304     4.0832    -0.5732 C.3     
  12 C12           -2.6260     5.5984    -0.3587 C.3     
  13 C13           -2.8360     5.8615     1.1311 C.3     
  14 C14           -1.8050     5.1285     1.9490 C.ar    
  15 C15           -1.6121     5.5366     3.2628 C.ar    
  16 C16           -0.6857     4.9032     4.0647 C.ar    
  17 C17            0.0570     3.8528     3.5579 C.ar    
  18 C18           -0.1322     3.4470     2.2533 C.ar    
  19 C19           -1.0630     4.0851     1.4434 C.ar    
  20 C20           -2.5609     3.7717    -2.0708 C.3     
  21 O21            2.4095    -2.7569    -0.0357 O.3     
  22 O22            2.3922    -0.0033    -0.0217 O.3     
  23 H23            0.0407    -3.8603    -0.0177 H       
  24 H24           -2.1019    -2.6530     0.0084 H       
  25 H25           -2.1405    -0.1983     0.0314 H       
  26 H26           -2.0275     1.6328     0.0205 H       
  27 H27           -0.3844     3.9680    -0.5726 H       
  28 H28           -3.3661     3.5888    -0.0778 H       
  29 H29           -1.7030     6.0749    -0.6891 H       
  30 H30           -3.4683     5.9969    -0.9242 H       
  31 H31           -2.7524     6.9313     1.3225 H       
  32 H32           -3.8310     5.5221     1.4193 H       
  33 H33           -2.1921     6.3567     3.6595 H       
  34 H34           -0.5407     5.2268     5.0848 H       
  35 H35            0.7830     3.3520     4.1813 H       
  36 H36            0.4488     2.6268     1.8580 H       
  37 H37           -2.4734     2.6956    -2.2200 H       
  38 H38           -3.5015     4.1222    -2.4957 H       
  39 H39           -1.7295     4.2757    -2.5637 H       
  40 H40            2.7599    -2.9564     0.8432 H       
  41 H41            2.7401     0.1919     0.8592 H       
@<TRIPOS>BOND
   1    1    2 1
   2    1    8 2
   3    1    9 am
   4    2    3 ar
   5    2    7 ar
   6    3    4 ar
   7    3   22 1
   8    4    5 ar
   9    4   21 1
  10    5    6 ar
  11    5   23 1
  12    6    7 ar
  13    6   24 1
  14    7   25 1
  15    9   10 1
  16    9   26 1
  17   10   11 1
  18   10   19 1
  19   10   27 1
  20   11   12 1
  21   11   20 1
  22   11   28 1
  23   12   13 1
  24   12   29 1
  25   12   30 1
  26   13   14 1
  27   13   31 1
  28   13   32 1
  29   14   15 ar
  30   14   19 ar
  31   15   16 ar
  32   15   33 1
  33   16   17 ar
  34   16   34 1
  35   17   18 ar
  36   17   35 1
  37   18   19 ar
  38   18   36 1
  39   20   37 1
  40   20   38 1
  41   20   39 1
  42   21   40 1
  43   22   41 1

#	End of record

