#	Name: ASD08830096
#	Creating user name:	WinNT
#	Creation time:	15. 06. 2019 21:19

#	Modifying user name:	WinNT
#	Modification time:	15. 06. 2019 21:19

#	Program:	/corina/corina34_cracker 3.40 0067  02.08.2006

@<TRIPOS>MOLECULE
ASD08830096
  46   48    0    0    0
SMALL
NO_CHARGES


@<TRIPOS>ATOM
   1 C1            -0.0178     1.4633     0.0101 C.ar    
   2 C2             0.0021    -0.0041     0.0020 C.2     
   3 C3            -1.2926    -0.7753     0.0102 C.3     
   4 C4            -0.9927    -2.2755    -0.0007 C.3     
   5 N5            -2.2547    -3.0273     0.0073 N.3     
   6 O6             1.0607    -0.5962    -0.0113 O.2     
   7 C7             1.1847     2.1823     0.0025 C.ar    
   8 C8             1.1616     3.5475     0.0101 C.ar    
   9 C9            -0.0553     4.2256     0.0258 C.ar    
  10 C10           -1.2533     3.5146     0.0339 C.ar    
  11 C11           -1.2395     2.1493     0.0196 C.ar    
  12 N12           -0.0741     5.6143     0.0340 N.3     
  13 C13           -2.0181    -4.4568    -0.2410 C.3     
  14 C14           -3.3490    -5.2097    -0.1649 C.3     
  15 O15           -4.2665    -4.6418    -1.1035 O.3     
  16 C16           -4.5205    -3.2506    -0.8906 C.3     
  17 C17           -3.2015    -2.4779    -0.9741 C.3     
  18 C18           -1.4536     6.1224     0.0504 C.3     
  19 C19           -1.4276     7.6516     0.1192 C.3     
  20 O20           -0.6761     8.1609    -0.9859 O.3     
  21 C21            0.6724     7.6868    -1.0324 C.3     
  22 C22            0.6677     6.1580    -1.1129 C.3     
  23 H23           -1.8592    -0.5245     0.9070 H       
  24 H24           -1.8762    -0.5150    -0.8728 H       
  25 H25           -0.4261    -2.5263    -0.8975 H       
  26 H26           -0.4091    -2.5358     0.8824 H       
  27 H27            2.1285     1.6574    -0.0090 H       
  28 H28            2.0881     4.1025     0.0042 H       
  29 H29           -2.1945     4.0442     0.0465 H       
  30 H30           -2.1687     1.5989     0.0255 H       
  31 H31           -1.5824    -4.5869    -1.2316 H       
  32 H32           -1.3346    -4.8488     0.5123 H       
  33 H33           -3.1869    -6.2606    -0.4046 H       
  34 H34           -3.7584    -5.1242     0.8417 H       
  35 H35           -5.2057    -2.8846    -1.6552 H       
  36 H36           -4.9640    -3.1082     0.0948 H       
  37 H37           -3.3819    -1.4252    -0.7560 H       
  38 H38           -2.7847    -2.5763    -1.9764 H       
  39 H39           -1.9682     5.8076    -0.8575 H       
  40 H40           -1.9765     5.7277     0.9215 H       
  41 H41           -2.4468     8.0353     0.0740 H       
  42 H42           -0.9607     7.9661     1.0526 H       
  43 H43            1.1719     8.0960    -1.9105 H       
  44 H44            1.2003     8.0023    -0.1325 H       
  45 H45            1.6932     5.7892    -1.0910 H       
  46 H46            0.1870     5.8438    -2.0394 H       
@<TRIPOS>BOND
   1    1    2 1
   2    1    7 ar
   3    1   11 ar
   4    2    3 1
   5    2    6 2
   6    3    4 1
   7    3   23 1
   8    3   24 1
   9    4    5 1
  10    4   25 1
  11    4   26 1
  12    5   13 1
  13    5   17 1
  14    7    8 ar
  15    7   27 1
  16    8    9 ar
  17    8   28 1
  18    9   10 ar
  19    9   12 1
  20   10   11 ar
  21   10   29 1
  22   11   30 1
  23   12   18 1
  24   12   22 1
  25   13   14 1
  26   13   31 1
  27   13   32 1
  28   14   15 1
  29   14   33 1
  30   14   34 1
  31   15   16 1
  32   16   17 1
  33   16   35 1
  34   16   36 1
  35   17   37 1
  36   17   38 1
  37   18   19 1
  38   18   39 1
  39   18   40 1
  40   19   20 1
  41   19   41 1
  42   19   42 1
  43   20   21 1
  44   21   22 1
  45   21   43 1
  46   21   44 1
  47   22   45 1
  48   22   46 1

#	End of record

