#	Name: ASD05720136
#	Creating user name:	WinNT
#	Creation time:	15. 06. 2019 21:01

#	Modifying user name:	WinNT
#	Modification time:	15. 06. 2019 21:01

#	Program:	/corina/corina34_cracker 3.40 0067  02.08.2006

@<TRIPOS>MOLECULE
ASD05720136
  38   41    0    0    0
SMALL
NO_CHARGES


@<TRIPOS>ATOM
   1 O1            -0.6062     1.2021    -0.0404 O.3     
   2 N2             2.0180    -6.0735    -0.5026 N.pl3   
   3 N3             1.9998    -4.6930    -0.7281 N.2     
   4 N4             0.4255    -7.5877     0.6598 N.ar    
   5 N5            -1.4438    -6.5490     1.5421 N.ar    
   6 N6            -1.8187    -4.2285     1.3577 N.pl3   
   7 N7            -0.7947     0.0844     1.8155 N.2     
   8 N8            -1.4454     2.3735     1.8951 N.pl3   
   9 C9             3.0753    -6.9885    -0.9398 C.3     
  10 C10            0.1600    -5.2587     0.4125 C.ar    
  11 C11            0.9022    -6.4343     0.1922 C.ar    
  12 C12            0.9146    -4.1703    -0.2082 C.2     
  13 C13            0.5290    -2.7389    -0.2362 C.ar    
  14 C14            3.1950    -6.9383    -2.4643 C.3     
  15 C15            4.4051    -6.5694    -0.3098 C.3     
  16 C16           -1.0521    -5.3521     1.1158 C.ar    
  17 C17            0.0530    -2.1261     0.9166 C.ar    
  18 C18            0.6449    -2.0083    -1.4220 C.ar    
  19 C19           -0.3075    -0.7804     0.8828 C.ar    
  20 C20           -0.1873    -0.0555    -0.3131 C.ar    
  21 C21            0.2890    -0.6779    -1.4572 C.ar    
  22 C22           -0.7148    -7.6268     1.3135 C.ar    
  23 C23           -0.9663     1.2537     1.2539 C.2     
  24 H24            2.8294    -8.0035    -0.6279 H       
  25 H25            4.6511    -5.5544    -0.6217 H       
  26 H26            3.4409    -5.9232    -2.7762 H       
  27 H27            3.9816    -7.6190    -2.7896 H       
  28 H28            2.2476    -7.2368    -2.9132 H       
  29 H29            4.3199    -6.6052     0.7763 H       
  30 H30            5.1918    -7.2502    -0.6351 H       
  31 H31           -0.0374    -2.6896     1.8335 H       
  32 H32            1.0157    -2.4890    -2.3152 H       
  33 H33            0.3813    -0.1189    -2.3766 H       
  34 H34           -1.0704    -8.5793     1.6780 H       
  35 H35           -2.5186    -4.2542     2.0289 H       
  36 H36           -1.6571    -3.4140     0.8564 H       
  37 H37           -1.5443     3.2064     1.4077 H       
  38 H38           -1.6840     2.3299     2.8342 H       
@<TRIPOS>BOND
   1    1   20 1
   2    1   23 1
   3    2    3 1
   4    2    9 1
   5    2   11 1
   6    3   12 2
   7    4   11 ar
   8    4   22 ar
   9    5   16 ar
  10    5   22 ar
  11    6   16 1
  12    6   35 1
  13    6   36 1
  14    7   19 1
  15    7   23 2
  16    8   23 1
  17    8   37 1
  18    8   38 1
  19    9   14 1
  20    9   15 1
  21    9   24 1
  22   10   11 ar
  23   10   12 1
  24   10   16 ar
  25   12   13 1
  26   13   17 ar
  27   13   18 ar
  28   14   26 1
  29   14   27 1
  30   14   28 1
  31   15   25 1
  32   15   29 1
  33   15   30 1
  34   17   19 ar
  35   17   31 1
  36   18   21 ar
  37   18   32 1
  38   19   20 ar
  39   20   21 ar
  40   21   33 1
  41   22   34 1

#	End of record

