#	Name: ASD01870443
#	Creating user name:	WinNT
#	Creation time:	15. 06. 2019 19:39

#	Modifying user name:	WinNT
#	Modification time:	15. 06. 2019 19:39

#	Program:	/corina/corina34_cracker 3.40 0067  02.08.2006

@<TRIPOS>MOLECULE
ASD01870443
  52   56    0    0    0
SMALL
NO_CHARGES


@<TRIPOS>ATOM
   1 N1            -0.6067     1.2333     0.3954 N.am    
   2 C2            -0.7713    -0.0969     0.5370 C.2     
   3 C3            -2.1527    -0.6694     0.7246 C.3     
   4 O4             0.1922    -0.8330     0.5134 O.2     
   5 C5            -2.1738    -2.2017     0.8714 C.3     
   6 N6            -3.1662    -1.9851     1.9419 N.am    
   7 C7            -2.6503    -0.6231     2.1806 C.3     
   8 S8            -4.3738    -2.9019     2.6079 S.o2    
   9 C9            -3.6672    -3.8006     3.9487 C.ar    
  10 O10           -5.3008    -1.9898     3.1805 O.2     
  11 O11           -4.7351    -3.8638     1.6263 O.2     
  12 C12           -4.0792    -3.5595     5.2495 C.ar    
  13 C13            0.6769     1.9203     0.2064 C.3     
  14 C14            0.4007     3.4338     0.1609 C.3     
  15 C15           -1.0121     3.5636     0.8156 C.3     
  16 C16           -1.6850     2.2352     0.3984 C.3     
  17 C17            1.3242     4.1437     1.1677 C.3     
  18 N18            0.6215     4.1971     2.4609 N.3     
  19 C19           -0.6760     3.5061     2.3220 C.3     
  20 C20            1.3881     3.6207     3.4693 C.ar    
  21 C21            2.7759     3.7594     3.4810 C.ar    
  22 C22            3.4992     3.1728     4.4980 C.ar    
  23 N23            2.8945     2.4880     5.4507 N.ar    
  24 C24            1.5838     2.3341     5.4748 C.ar    
  25 C25            0.7881     2.8942     4.4976 C.ar    
  26 C26           -3.4957    -4.2911     6.2735 C.ar    
  27 C27           -2.5298    -5.2295     5.9655 C.ar    
  28 N28           -2.1609    -5.4333     4.7156 N.ar    
  29 C29           -2.6978    -4.7604     3.7155 C.ar    
  30 Cl30          -2.1717    -5.0721     2.0908 Cl      
  31 H31           -2.8727    -0.2880     0.0006 H       
  32 H32           -2.5734    -2.7211     0.0004 H       
  33 H33           -1.2320    -2.6223     1.2239 H       
  34 H34           -1.8485    -0.5800     2.9178 H       
  35 H35           -3.4304     0.1179     2.3549 H       
  36 H36           -4.8365    -2.8192     5.4613 H       
  37 H37            1.3435     1.6917     1.0379 H       
  38 H38            1.1322     1.6000    -0.7307 H       
  39 H39            0.4497     3.8474    -0.8463 H       
  40 H40           -1.5661     4.4506     0.5084 H       
  41 H41           -2.1224     2.3302    -0.5954 H       
  42 H42           -2.4505     1.9568     1.1228 H       
  43 H43            2.2533     3.5838     1.2751 H       
  44 H44            1.5393     5.1548     0.8222 H       
  45 H45           -1.4425     4.0226     2.8997 H       
  46 H46           -0.5891     2.4703     2.6500 H       
  47 H47            3.2770     4.3180     2.7043 H       
  48 H48            4.5743     3.2746     4.5149 H       
  49 H49            1.1283     1.7658     6.2723 H       
  50 H50           -0.2838     2.7647     4.5234 H       
  51 H51           -3.7927    -4.1287     7.2991 H       
  52 H52           -2.0711    -5.8028     6.7575 H       
@<TRIPOS>BOND
   1    1    2 am
   2    1   13 1
   3    1   16 1
   4    2    3 1
   5    2    4 2
   6    3    5 1
   7    3    7 1
   8    3   31 1
   9    5    6 1
  10    5   32 1
  11    5   33 1
  12    6    7 1
  13    6    8 am
  14    7   34 1
  15    7   35 1
  16    8    9 1
  17    8   10 2
  18    8   11 2
  19    9   12 ar
  20    9   29 ar
  21   12   26 ar
  22   12   36 1
  23   13   14 1
  24   13   37 1
  25   13   38 1
  26   14   15 1
  27   14   17 1
  28   14   39 1
  29   15   16 1
  30   15   19 1
  31   15   40 1
  32   16   41 1
  33   16   42 1
  34   17   18 1
  35   17   43 1
  36   17   44 1
  37   18   19 1
  38   18   20 1
  39   19   45 1
  40   19   46 1
  41   20   21 ar
  42   20   25 ar
  43   21   22 ar
  44   21   47 1
  45   22   23 ar
  46   22   48 1
  47   23   24 ar
  48   24   25 ar
  49   24   49 1
  50   25   50 1
  51   26   27 ar
  52   26   51 1
  53   27   28 ar
  54   27   52 1
  55   28   29 ar
  56   29   30 1

#	End of record

