#	Name: ASD07300574
#	Creating user name:	WinNT
#	Creation time:	15. 06. 2019 21:10

#	Modifying user name:	WinNT
#	Modification time:	15. 06. 2019 21:10

#	Program:	/corina/corina34_cracker 3.40 0067  02.08.2006

@<TRIPOS>MOLECULE
ASD07300574
  53   57    0    0    0
SMALL
NO_CHARGES


@<TRIPOS>ATOM
   1 C1            -0.0034     1.3930     0.2418 C.2     
   2 C2             0.0021    -0.0041     0.0020 C.2     
   3 N3             1.1908     2.0671     0.2269 N.pl3   
   4 N4             1.1441    -0.6202    -0.2281 N.2     
   5 C5             2.3024     0.0467    -0.2404 C.2     
   6 C6             2.3477     1.3757    -0.0173 C.2     
   7 N7            -0.9702     2.2587     0.5010 N.2     
   8 C8            -0.4513     3.4736     0.6494 C.2     
   9 C9             0.9142     3.3828     0.4824 C.2     
  10 N10           -1.1861    -0.7177     0.0100 N.pl3   
  11 C11           -2.4814    -0.0309     0.1360 C.3     
  12 C12           -3.4039    -0.5296    -0.9821 C.3     
  13 O13           -3.4384    -1.9587    -0.9615 O.3     
  14 C14           -2.1751    -2.5783    -1.2140 C.3     
  15 C15           -1.1899    -2.1840    -0.1135 C.3     
  16 C16            1.6346     5.7094    -0.0649 C.ar    
  17 C17            1.8894     4.4900     0.5655 C.ar    
  18 C18            3.0843     4.3342     1.2782 C.ar    
  19 C19            3.9635     5.4018     1.3257 C.ar    
  20 C20            3.6371     6.5773     0.6740 C.ar    
  21 N21            2.5034     6.6960     0.0096 N.ar    
  22 C22            4.5921     7.7421     0.7241 C.3     
  23 C23            4.9275     8.1882    -0.7004 C.3     
  24 O24            5.8330     9.2927    -0.6529 O.3     
  25 C25            6.2123     9.7890    -1.9382 C.3     
  26 C26           -1.2224     4.7324     0.9526 C.3     
  27 C27           -2.2937     5.1637    -0.0510 C.3     
  28 C28           -2.7040     4.5858     1.3049 C.3     
  29 H29            3.2201    -0.4895    -0.4320 H       
  30 H30            3.2949     1.8944    -0.0316 H       
  31 H31           -2.9243    -0.2575     1.1059 H       
  32 H32           -2.3371     1.0453     0.0402 H       
  33 H33           -4.4094    -0.1389    -0.8259 H       
  34 H34           -3.0255    -0.1884    -1.9457 H       
  35 H35           -2.2965    -3.6615    -1.2248 H       
  36 H36           -1.7922    -2.2446    -2.1785 H       
  37 H37           -0.1908    -2.5330    -0.3744 H       
  38 H38           -1.5005    -2.6311     0.8308 H       
  39 H39            0.7191     5.8431    -0.6222 H       
  40 H40            3.3138     3.4049     1.7783 H       
  41 H41            4.8947     5.3180     1.8663 H       
  42 H42            4.1295     8.5682     1.2642 H       
  43 H43            5.5064     7.4406     1.2352 H       
  44 H44            5.3901     7.3621    -1.2405 H       
  45 H45            4.0131     8.4897    -1.2115 H       
  46 H46            6.9001    10.6257    -1.8160 H       
  47 H47            6.7016     8.9961    -2.5039 H       
  48 H48            5.3247    10.1237    -2.4749 H       
  49 H49           -0.6601     5.5181     1.4572 H       
  50 H50           -2.4365     6.2331    -0.2063 H       
  51 H51           -2.4408     4.5369    -0.9305 H       
  52 H52           -3.1211     3.5788     1.3175 H       
  53 H53           -3.1167     5.2750     2.0417 H       
@<TRIPOS>BOND
   1    1    2 1
   2    1    3 1
   3    1    7 2
   4    2    4 2
   5    2   10 1
   6    3    6 1
   7    3    9 1
   8    4    5 1
   9    5    6 2
  10    5   29 1
  11    6   30 1
  12    7    8 1
  13    8    9 2
  14    8   26 1
  15    9   17 1
  16   10   11 1
  17   10   15 1
  18   11   12 1
  19   11   31 1
  20   11   32 1
  21   12   13 1
  22   12   33 1
  23   12   34 1
  24   13   14 1
  25   14   15 1
  26   14   35 1
  27   14   36 1
  28   15   37 1
  29   15   38 1
  30   16   17 ar
  31   16   21 ar
  32   16   39 1
  33   17   18 ar
  34   18   19 ar
  35   18   40 1
  36   19   20 ar
  37   19   41 1
  38   20   21 ar
  39   20   22 1
  40   22   23 1
  41   22   42 1
  42   22   43 1
  43   23   24 1
  44   23   44 1
  45   23   45 1
  46   24   25 1
  47   25   46 1
  48   25   47 1
  49   25   48 1
  50   26   27 1
  51   26   28 1
  52   26   49 1
  53   27   28 1
  54   27   50 1
  55   27   51 1
  56   28   52 1
  57   28   53 1

#	End of record

