#	Name: ASD01870091
#	Creating user name:	WinNT
#	Creation time:	15. 06. 2019 19:38

#	Modifying user name:	WinNT
#	Modification time:	15. 06. 2019 19:38

#	Program:	/corina/corina34_cracker 3.40 0067  02.08.2006

@<TRIPOS>MOLECULE
ASD01870091
  48   52    0    0    0
SMALL
NO_CHARGES


@<TRIPOS>ATOM
   1 C1            -0.0168     1.3846     0.0097 C.ar    
   2 C2             0.0021    -0.0041     0.0020 C.ar    
   3 N3             1.1121     2.0740     0.0026 N.ar    
   4 C4             2.2882     1.4762    -0.0119 C.ar    
   5 C5             2.3819     0.0985    -0.0207 C.ar    
   6 C6             1.2204    -0.6610    -0.0132 C.ar    
   7 C7             3.7309    -0.5730    -0.0382 C.3     
   8 C8             4.6537    -0.2736    -1.2213 C.3     
   9 C9             4.1441     0.6702    -2.2799 C.2     
  10 O10            3.3691     1.5477    -1.9839 O.2     
  11 C11            4.6017     0.5189    -3.7077 C.3     
  12 C12            3.9404     1.5945    -4.5719 C.3     
  13 C13            4.4049     1.4409    -6.0215 C.3     
  14 C14            5.9255     1.5961    -6.0890 C.3     
  15 C15            6.5868     0.5205    -5.2248 C.3     
  16 C16            6.1223     0.6741    -3.7752 C.3     
  17 C17            4.2069    -0.8655    -4.2258 C.3     
  18 C18            4.6714    -1.0191    -5.6755 C.3     
  19 C19            4.0101     0.0565    -6.5396 C.3     
  20 C20            6.1920    -0.8639    -5.7429 C.3     
  21 C21            4.9633     0.3122     0.1578 C.3     
  22 O22           -1.2045     2.0404     0.0188 O.3     
  23 C23           -1.1569     3.4686     0.0264 C.3     
  24 H24           -0.9215    -0.5639     0.0082 H       
  25 H25            3.1890     2.0719    -0.0173 H       
  26 H26            1.2660    -1.7400    -0.0194 H       
  27 H27            3.7610    -1.5784     0.3818 H       
  28 H28            5.2910    -1.0821    -1.5796 H       
  29 H29            2.8571     1.4839    -4.5238 H       
  30 H30            4.2217     2.5808    -4.2028 H       
  31 H31            3.9338     2.2071    -6.6371 H       
  32 H32            6.2565     1.4866    -7.1217 H       
  33 H33            6.2068     2.5824    -5.7199 H       
  34 H34            7.6701     0.6311    -5.2729 H       
  35 H35            6.4036     1.6604    -3.4061 H       
  36 H36            6.5934    -0.0922    -3.1596 H       
  37 H37            4.6780    -1.6318    -3.6102 H       
  38 H38            3.1235    -0.9761    -4.1778 H       
  39 H39            4.3901    -2.0054    -6.0446 H       
  40 H40            2.9268    -0.0541    -6.4916 H       
  41 H41            4.3411    -0.0530    -7.5724 H       
  42 H42            6.5229    -0.9734    -6.7757 H       
  43 H43            6.6631    -1.6302    -5.1273 H       
  44 H44            4.7984     1.3803     0.2994 H       
  45 H45            5.8045    -0.1106     0.7069 H       
  46 H46           -2.1719     3.8658     0.0333 H       
  47 H47           -0.6271     3.8098     0.9157 H       
  48 H48           -0.6355     3.8194    -0.8642 H       
@<TRIPOS>BOND
   1    1    2 ar
   2    1    3 ar
   3    1   22 1
   4    2    6 ar
   5    2   24 1
   6    3    4 ar
   7    4    5 ar
   8    4   25 1
   9    5    6 ar
  10    5    7 1
  11    6   26 1
  12    7    8 1
  13    7   21 1
  14    7   27 1
  15    8    9 1
  16    8   21 1
  17    8   28 1
  18    9   10 2
  19    9   11 1
  20   11   12 1
  21   11   17 1
  22   11   16 1
  23   12   13 1
  24   12   29 1
  25   12   30 1
  26   13   14 1
  27   13   19 1
  28   13   31 1
  29   14   15 1
  30   14   32 1
  31   14   33 1
  32   15   16 1
  33   15   20 1
  34   15   34 1
  35   16   35 1
  36   16   36 1
  37   17   18 1
  38   17   37 1
  39   17   38 1
  40   18   19 1
  41   18   20 1
  42   18   39 1
  43   19   40 1
  44   19   41 1
  45   20   42 1
  46   20   43 1
  47   21   44 1
  48   21   45 1
  49   22   23 1
  50   23   46 1
  51   23   47 1
  52   23   48 1

#	End of record

