#	Name: ASD02198728
#	Creating user name:	WinNT
#	Creation time:	15. 06. 2019 20:20

#	Modifying user name:	WinNT
#	Modification time:	15. 06. 2019 20:20

#	Program:	/corina/corina34_cracker 3.40 0067  02.08.2006

@<TRIPOS>MOLECULE
ASD02198728
  55   59    0    0    0
SMALL
NO_CHARGES


@<TRIPOS>ATOM
   1 C1             0.1558     1.3998    -0.0234 C.2     
   2 C2             0.2048     0.0873     0.3172 C.2     
   3 N3             1.3878    -0.5256     0.5460 N.pl3   
   4 N4             2.5186     0.0720     0.4598 N.2     
   5 C5             2.6139     1.3444     0.1377 C.2     
   6 C6             1.3807     2.1009    -0.1307 C.2     
   7 C7             1.3774    -1.8805     0.8950 C.ar    
   8 C8             2.0064    -2.3047     2.0649 C.ar    
   9 C9             1.9939    -3.6463     2.4077 C.ar    
  10 C10            1.3556    -4.5655     1.5864 C.ar    
  11 C11            0.7298    -4.1407     0.4206 C.ar    
  12 C12            0.7358    -2.8034     0.0794 C.ar    
  13 C13            3.9340     2.0009     0.0477 C.2     
  14 N14            4.4353     2.6716    -1.0323 N.pl3   
  15 N15            5.7122     3.1349    -0.6917 N.2     
  16 C16            5.9802     2.7665     0.5358 C.2     
  17 C17            4.8893     2.0575     1.0387 C.2     
  18 C18            3.7882     2.8613    -2.2600 C.ar    
  19 C19            3.8617     4.0901    -2.9027 C.ar    
  20 C20            3.2230     4.2739    -4.1134 C.ar    
  21 C21            2.5107     3.2358    -4.6856 C.ar    
  22 C22            2.4352     2.0111    -4.0478 C.ar    
  23 C23            3.0766     1.8193    -2.8397 C.ar    
  24 O24            1.4128     3.2844    -0.4341 O.2     
  25 N25            1.3428    -5.9215     1.9324 N.am    
  26 C26            0.6813    -6.8838     1.2761 C.2     
  27 C27            2.0583    -6.5172     3.0706 C.3     
  28 C28            1.7036    -8.0145     2.9871 C.3     
  29 N29            0.8292    -8.1041     1.8081 N.am    
  30 O30            0.0074    -6.6688     0.2872 O.2     
  31 C31            0.2169    -9.3329     1.2969 C.3     
  32 F32           -0.8016    -9.0062     0.3951 F       
  33 F33            1.1875   -10.1016     0.6455 F       
  34 O34            2.6310    -1.4029     2.8673 O.3     
  35 C35            3.2540    -1.9088     4.0496 C.3     
  36 H36           -0.7869     1.8924    -0.2111 H       
  37 H37           -0.7130    -0.4748     0.4070 H       
  38 H38            2.4806    -3.9773     3.3132 H       
  39 H39            0.2344    -4.8576    -0.2174 H       
  40 H40            0.2487    -2.4756    -0.8271 H       
  41 H41            6.8932     2.9799     1.0717 H       
  42 H42            4.8106     1.6248     2.0251 H       
  43 H43            4.4176     4.9013    -2.4562 H       
  44 H44            3.2795     5.2294    -4.6136 H       
  45 H45            2.0121     3.3820    -5.6323 H       
  46 H46            1.8779     1.2024    -4.4970 H       
  47 H47            3.0175     0.8625    -2.3423 H       
  48 H48            3.1335    -6.3723     2.9649 H       
  49 H49            1.7046    -6.0920     4.0099 H       
  50 H50            2.6025    -8.6131     2.8398 H       
  51 H51            1.1736    -8.3328     3.8848 H       
  52 H52           -0.2015    -9.9028     2.1265 H       
  53 H53            2.5045    -2.3900     4.6779 H       
  54 H54            4.0187    -2.6354     3.7749 H       
  55 H55            3.7142    -1.0868     4.5979 H       
@<TRIPOS>BOND
   1    1    2 2
   2    1    6 1
   3    1   36 1
   4    2    3 1
   5    2   37 1
   6    3    4 1
   7    3    7 1
   8    4    5 2
   9    5    6 1
  10    5   13 1
  11    6   24 2
  12    7    8 ar
  13    7   12 ar
  14    8    9 ar
  15    8   34 1
  16    9   10 ar
  17    9   38 1
  18   10   11 ar
  19   10   25 1
  20   11   12 ar
  21   11   39 1
  22   12   40 1
  23   13   14 1
  24   13   17 2
  25   14   15 1
  26   14   18 1
  27   15   16 2
  28   16   17 1
  29   16   41 1
  30   17   42 1
  31   18   19 ar
  32   18   23 ar
  33   19   20 ar
  34   19   43 1
  35   20   21 ar
  36   20   44 1
  37   21   22 ar
  38   21   45 1
  39   22   23 ar
  40   22   46 1
  41   23   47 1
  42   25   27 1
  43   25   26 am
  44   26   30 2
  45   26   29 am
  46   27   28 1
  47   27   48 1
  48   27   49 1
  49   28   29 1
  50   28   50 1
  51   28   51 1
  52   29   31 1
  53   31   32 1
  54   31   33 1
  55   31   52 1
  56   34   35 1
  57   35   53 1
  58   35   54 1
  59   35   55 1

#	End of record

