#	Name: ASD00122049
#	Creating user name:	WinNT
#	Creation time:	15. 06. 2019 18:31

#	Modifying user name:	WinNT
#	Modification time:	15. 06. 2019 18:31

#	Program:	/corina/corina34_cracker 3.40 0067  02.08.2006

@<TRIPOS>MOLECULE
ASD00122049
  46   46    0    0    0
SMALL
NO_CHARGES


@<TRIPOS>ATOM
   1 C1            -0.0166     1.3728     0.0096 C.ar    
   2 C2             0.0021    -0.0041     0.0020 C.ar    
   3 C3             1.2226    -0.6843    -0.0133 C.ar    
   4 C4             2.4197     0.0363    -0.0208 C.ar    
   5 C5             2.3926     1.4130    -0.0132 C.ar    
   6 C6             1.1765     2.0859     0.0020 C.ar    
   7 O7             1.1539     3.4428     0.0095 O.3     
   8 C8            -0.1299     4.0702     0.0251 C.3     
   9 C9             0.0453     5.5901     0.0316 C.3     
  10 C10            1.2471    -2.1601    -0.0209 C.2     
  11 O11            0.2045    -2.7855    -0.0140 O.2     
  12 N12            2.4253    -2.8144    -0.0357 N.am    
  13 C13            2.4497    -4.2792    -0.0433 C.3     
  14 C14            3.9004    -4.7650    -0.0598 C.3     
  15 N15            3.9248    -6.2298    -0.0675 N.am    
  16 C16            5.1030    -6.8841    -0.0822 C.2     
  17 O17            5.1254    -8.2303    -0.0892 O.3     
  18 O18            6.1450    -6.2591    -0.0892 O.2     
  19 C19            6.4299    -8.8678    -0.1051 C.3     
  20 C20            7.2169    -8.4500     1.1387 C.3     
  21 C21            6.2547   -10.3877    -0.1110 C.3     
  22 C22            7.1926    -8.4374    -1.3596 C.3     
  23 H23           -0.9595     1.8993     0.0169 H       
  24 H24           -0.9253    -0.5575     0.0082 H       
  25 H25            3.3651    -0.4858    -0.0323 H       
  26 H26            3.3175     1.9707    -0.0186 H       
  27 H27           -0.6904     3.7729    -0.8612 H       
  28 H28           -0.6735     3.7633     0.9187 H       
  29 H29           -0.9340     6.0687     0.0435 H       
  30 H30            0.6058     5.8875     0.9179 H       
  31 H31            0.5888     5.8971    -0.8619 H       
  32 H32            3.2571    -2.3155    -0.0412 H       
  33 H33            1.9507    -4.6555     0.8497 H       
  34 H34            1.9334    -4.6466    -0.9302 H       
  35 H35            4.3995    -4.3887    -0.9528 H       
  36 H36            4.4168    -4.3977     0.8270 H       
  37 H37            3.0930    -6.7288    -0.0619 H       
  38 H38            6.6735    -8.7566     2.0325 H       
  39 H39            8.1961    -8.9285     1.1268 H       
  40 H40            7.3417    -7.3671     1.1429 H       
  41 H41            5.6940   -10.6853    -0.9971 H       
  42 H42            7.2340   -10.8663    -0.1230 H       
  43 H43            5.7113   -10.6943     0.7827 H       
  44 H44            7.3174    -7.3546    -1.3554 H       
  45 H45            8.1719    -8.9159    -1.3716 H       
  46 H46            6.6319    -8.7350    -2.2457 H       
@<TRIPOS>BOND
   1    1    2 ar
   2    1    6 ar
   3    1   23 1
   4    2    3 ar
   5    2   24 1
   6    3    4 ar
   7    3   10 1
   8    4    5 ar
   9    4   25 1
  10    5    6 ar
  11    5   26 1
  12    6    7 1
  13    7    8 1
  14    8    9 1
  15    8   27 1
  16    8   28 1
  17    9   29 1
  18    9   30 1
  19    9   31 1
  20   10   11 2
  21   10   12 am
  22   12   13 1
  23   12   32 1
  24   13   14 1
  25   13   33 1
  26   13   34 1
  27   14   15 1
  28   14   35 1
  29   14   36 1
  30   15   16 am
  31   15   37 1
  32   16   17 1
  33   16   18 2
  34   17   19 1
  35   19   20 1
  36   19   21 1
  37   19   22 1
  38   20   38 1
  39   20   39 1
  40   20   40 1
  41   21   41 1
  42   21   42 1
  43   21   43 1
  44   22   44 1
  45   22   45 1
  46   22   46 1

#	End of record

