#	Name: ASD03430258
#	Creating user name:	WinNT
#	Creation time:	15. 06. 2019 20:40

#	Modifying user name:	WinNT
#	Modification time:	15. 06. 2019 20:40

#	Program:	/corina/corina34_cracker 3.40 0067  02.08.2006

@<TRIPOS>MOLECULE
ASD03430258
  48   53    0    0    0
SMALL
NO_CHARGES


@<TRIPOS>ATOM
   1 C1            -0.3136     1.2669     0.7027 C.ar    
   2 C2            -0.2072    -0.1035     0.5181 C.ar    
   3 C3             1.0243    -0.6795     0.2903 C.ar    
   4 C4             2.1758     0.1019     0.2520 C.ar    
   5 C5             2.0649     1.4765     0.4326 C.ar    
   6 C6             0.8281     2.0579     0.6587 C.ar    
   7 O7             3.2854    -0.6633     0.0439 O.3     
   8 C8             1.4598    -2.0976     0.0363 C.3     
   9 C9             2.8893    -1.9371    -0.4994 C.3     
  10 C10            0.5771    -4.0090     0.9791 C.ar    
  11 C11            1.4180    -2.9393     1.2771 C.ar    
  12 C12            0.5710    -2.7989    -0.9504 C.2     
  13 N13            0.0994    -3.8981    -0.3289 N.am    
  14 O14            0.3253    -2.4452    -2.0843 O.2     
  15 C15            2.0076    -2.8361     2.5169 C.ar    
  16 C16            1.7686    -3.8001     3.4806 C.ar    
  17 C17            0.9365    -4.8668     3.1953 C.ar    
  18 C18            0.3428    -4.9746     1.9545 C.ar    
  19 C19           -0.8083    -4.8642    -0.9527 C.3     
  20 C20           -0.0103    -6.0104    -1.5186 C.ar    
  21 N21            0.3436    -7.0088    -0.7360 N.ar    
  22 C22            0.3427    -6.0078    -2.8691 C.ar    
  23 C23            1.0841    -7.0825    -3.3763 C.ar    
  24 C24            1.4350    -8.1033    -2.5111 C.ar    
  25 C25            1.0416    -8.0336    -1.1864 C.ar    
  26 O26           -1.5388     1.8202     0.9196 O.3     
  27 C27           -1.5592     3.1433     1.4665 C.3     
  28 C28           -0.5466     3.9982     0.6924 C.3     
  29 O29            0.7475     3.4050     0.8399 O.3     
  30 C30           -0.0471    -4.9252    -3.7215 C.1     
  31 N31           -0.3563    -4.0663    -4.3977 N.1     
  32 H32           -1.0922    -0.7215     0.5532 H       
  33 H33            2.9495     2.0949     0.3969 H       
  34 H34            2.8936    -1.9114    -1.5890 H       
  35 H35            3.5337    -2.7337    -0.1274 H       
  36 H36            2.6575    -2.0022     2.7375 H       
  37 H37            2.2313    -3.7196     4.4531 H       
  38 H38            0.7507    -5.6195     3.9472 H       
  39 H39           -0.3058    -5.8108     1.7391 H       
  40 H40           -1.5065    -5.2414    -0.2055 H       
  41 H41           -1.3626    -4.3765    -1.7545 H       
  42 H42            1.3742    -7.1135    -4.4162 H       
  43 H43            2.0064    -8.9478    -2.8668 H       
  44 H44            1.3143    -8.8292    -0.5089 H       
  45 H45           -2.5569     3.5694     1.3609 H       
  46 H46           -1.2827     3.1099     2.5203 H       
  47 H47           -0.8192     4.0256    -0.3626 H       
  48 H48           -0.5355     5.0106     1.0962 H       
@<TRIPOS>BOND
   1    1    2 ar
   2    1    6 ar
   3    1   26 1
   4    2    3 ar
   5    2   32 1
   6    3    4 ar
   7    3    8 1
   8    4    5 ar
   9    4    7 1
  10    5    6 ar
  11    5   33 1
  12    6   29 1
  13    7    9 1
  14    8    9 1
  15    8   11 1
  16    8   12 1
  17    9   34 1
  18    9   35 1
  19   10   11 ar
  20   10   13 1
  21   10   18 ar
  22   11   15 ar
  23   12   13 am
  24   12   14 2
  25   13   19 1
  26   15   16 ar
  27   15   36 1
  28   16   17 ar
  29   16   37 1
  30   17   18 ar
  31   17   38 1
  32   18   39 1
  33   19   20 1
  34   19   40 1
  35   19   41 1
  36   20   21 ar
  37   20   22 ar
  38   21   25 ar
  39   22   23 ar
  40   22   30 1
  41   23   24 ar
  42   23   42 1
  43   24   25 ar
  44   24   43 1
  45   25   44 1
  46   26   27 1
  47   27   28 1
  48   27   45 1
  49   27   46 1
  50   28   29 1
  51   28   47 1
  52   28   48 1
  53   30   31 3

#	End of record

