#	Name: ASD01410514
#	Creating user name:	WinNT
#	Creation time:	15. 06. 2019 19:18

#	Modifying user name:	WinNT
#	Modification time:	15. 06. 2019 19:18

#	Program:	/corina/corina34_cracker 3.40 0067  02.08.2006

@<TRIPOS>MOLECULE
ASD01410514
  76   79    0    0    0
SMALL
NO_CHARGES


@<TRIPOS>ATOM
   1 C1             1.4184     3.5054    -1.7734 C.ar    
   2 C2             2.0114     3.2019    -2.9911 C.ar    
   3 C3             3.1620     2.4385    -3.0106 C.ar    
   4 N4             3.7001     1.9975    -1.8896 N.ar    
   5 C5             3.1644     2.2658    -0.7100 C.ar    
   6 C6             2.0071     3.0280    -0.6152 C.ar    
   7 O7             3.7511     1.7920     0.4177 O.3     
   8 C8             4.8221     0.9648     0.2811 C.ar    
   9 C9             6.0848     1.4988     0.0364 C.ar    
  10 C10            7.1795     0.6662    -0.1039 C.ar    
  11 C11            7.0258    -0.7088    -0.0019 C.ar    
  12 C12            5.7549    -1.2523     0.2447 C.ar    
  13 C13            4.6549    -0.4019     0.3912 C.ar    
  14 F14            6.2407     2.8369    -0.0648 F       
  15 N15            8.1287    -1.5477    -0.1442 N.am    
  16 C16            8.8016    -1.9668     0.9457 C.2     
  17 C17            8.5573    -1.9742    -1.4786 C.3     
  18 O18            9.8045    -2.6414     0.8185 O.2     
  19 C19            8.3191    -1.6055     2.2980 C.ar    
  20 N20            7.1653    -0.9628     2.4351 N.ar    
  21 C21            6.7007    -0.6236     3.6171 C.ar    
  22 C22            7.4053    -0.9275     4.7733 C.ar    
  23 C23            8.6156    -1.5984     4.6749 C.ar    
  24 C24            9.0769    -1.9479     3.4160 C.ar    
  25 C25            1.4057     3.6996    -4.2781 C.3     
  26 N26            1.9737     5.0128    -4.6109 N.3     
  27 C27            7.4911    -1.5860    -2.5050 C.3     
  28 C28            9.8792    -1.2900    -1.8327 C.3     
  29 Cl29           6.7789    -0.4723     6.3271 Cl      
  30 C30            5.2351    -2.0481    -3.1700 C.3     
  31 O31            6.2998    -2.3366    -2.2615 O.3     
  32 C32            3.4070     4.9053    -4.9117 C.3     
  33 O33           10.9107    -1.7705    -0.9683 O.3     
  34 C34           12.1934    -1.1915    -1.2163 C.3     
  35 C35            1.2432     5.6358    -5.7221 C.3     
  36 C36            1.7659     7.0568    -5.9448 C.3     
  37 C37            3.2630     7.0010    -6.2612 C.3     
  38 C38            3.9943     6.3045    -5.1103 C.3     
  39 F39            3.8343     7.0490    -3.9367 F       
  40 F40            5.3554     6.2006    -5.4165 F       
  41 C41            1.4004     3.3310     0.7306 C.3     
  42 F42            0.2500     4.1084     0.5591 F       
  43 F43            1.0630     2.1335     1.3703 F       
  44 F44            2.3251     4.0325     1.5116 F       
  45 C45            5.5825    -2.7106     0.3545 C.2     
  46 O46            6.5531    -3.4412     0.3240 O.2     
  47 O47            4.3482    -3.2350     0.4888 O.3     
  48 H48            0.5206     4.1042    -1.7304 H       
  49 H49            3.6272     2.1992    -3.9555 H       
  50 H50            8.1560     1.0868    -0.2935 H       
  51 H51            3.6746    -0.8134     0.5814 H       
  52 H52            8.6939    -3.0556    -1.4879 H       
  53 H53            5.7583    -0.1010     3.6893 H       
  54 H54            9.1831    -1.8466     5.5597 H       
  55 H55           10.0150    -2.4709     3.3023 H       
  56 H56            1.6261     2.9947    -5.0798 H       
  57 H57            0.3259     3.7900    -4.1604 H       
  58 H58            7.2739    -0.5214    -2.4183 H       
  59 H59            7.8575    -1.8015    -3.5087 H       
  60 H60           10.1385    -1.5141    -2.8674 H       
  61 H61            9.7748    -0.2120    -1.7096 H       
  62 H62            4.3675    -2.6580    -2.9184 H       
  63 H63            4.9711    -0.9931    -3.0971 H       
  64 H64            5.5547    -2.2732    -4.1875 H       
  65 H65            3.9159     4.4120    -4.0836 H       
  66 H66            3.5443     4.3213    -5.8218 H       
  67 H67           12.5008    -1.4136    -2.2382 H       
  68 H68           12.1370    -0.1115    -1.0804 H       
  69 H69           12.9209    -1.6079    -0.5195 H       
  70 H70            1.3907     5.0484    -6.6283 H       
  71 H71            0.1805     5.6731    -5.4825 H       
  72 H72            1.2343     7.5134    -6.7797 H       
  73 H73            1.6062     7.6487    -5.0436 H       
  74 H74            3.4198     6.4420    -7.1837 H       
  75 H75            3.6486     8.0138    -6.3779 H       
  76 H76            4.2853    -4.1975     0.5571 H       
@<TRIPOS>BOND
   1    1    2 ar
   2    1    6 ar
   3    1   48 1
   4    2    3 ar
   5    2   25 1
   6    3    4 ar
   7    3   49 1
   8    4    5 ar
   9    5    6 ar
  10    5    7 1
  11    6   41 1
  12    7    8 1
  13    8    9 ar
  14    8   13 ar
  15    9   10 ar
  16    9   14 1
  17   10   11 ar
  18   10   50 1
  19   11   12 ar
  20   11   15 1
  21   12   13 ar
  22   12   45 1
  23   13   51 1
  24   15   16 am
  25   15   17 1
  26   16   18 2
  27   16   19 1
  28   17   28 1
  29   17   27 1
  30   17   52 1
  31   19   20 ar
  32   19   24 ar
  33   20   21 ar
  34   21   22 ar
  35   21   53 1
  36   22   23 ar
  37   22   29 1
  38   23   24 ar
  39   23   54 1
  40   24   55 1
  41   25   26 1
  42   25   56 1
  43   25   57 1
  44   26   35 1
  45   26   32 1
  46   27   31 1
  47   27   58 1
  48   27   59 1
  49   28   33 1
  50   28   60 1
  51   28   61 1
  52   30   31 1
  53   30   62 1
  54   30   63 1
  55   30   64 1
  56   32   38 1
  57   32   65 1
  58   32   66 1
  59   33   34 1
  60   34   67 1
  61   34   68 1
  62   34   69 1
  63   35   36 1
  64   35   70 1
  65   35   71 1
  66   36   37 1
  67   36   72 1
  68   36   73 1
  69   37   38 1
  70   37   74 1
  71   37   75 1
  72   38   39 1
  73   38   40 1
  74   41   42 1
  75   41   43 1
  76   41   44 1
  77   45   46 2
  78   45   47 1
  79   47   76 1

#	End of record

