#	Name: ASD01881604
#	Creating user name:	WinNT
#	Creation time:	15. 06. 2019 19:43

#	Modifying user name:	WinNT
#	Modification time:	15. 06. 2019 19:43

#	Program:	/corina/corina34_cracker 3.40 0067  02.08.2006

@<TRIPOS>MOLECULE
ASD01881604
  44   46    0    0    0
SMALL
NO_CHARGES


@<TRIPOS>ATOM
   1 C1            -0.0167     1.3833     0.0096 C.ar    
   2 C2             0.0021    -0.0041     0.0020 C.ar    
   3 C3             1.2081    -0.6771    -0.0131 C.ar    
   4 C4             2.3962     0.0305    -0.0202 C.ar    
   5 C5             2.3801     1.4128    -0.0126 C.ar    
   6 C6             1.1763     2.0908     0.0021 C.ar    
   7 O7            -1.2021     2.0479     0.0189 O.3     
   8 C8             1.2293    -2.1840    -0.0214 C.3     
   9 O9             1.2231    -2.6530    -1.3712 O.3     
  10 N10            1.2898    -8.0342    -2.3920 N.pl3   
  11 N11            1.2744    -7.9264    -3.7905 N.2     
  12 N12            1.2532    -6.6842    -4.1239 N.2     
  13 C13            1.2528    -5.9040    -3.0247 C.ar    
  14 C14            1.2762    -6.7485    -1.9012 C.ar    
  15 C15            1.2355    -4.5151    -2.8366 C.ar    
  16 C16            1.2403    -4.0001    -1.5568 C.ar    
  17 C17            1.2632    -4.8497    -0.4534 C.ar    
  18 C18            1.2817    -6.2057    -0.6213 C.ar    
  19 C19            1.3100    -9.2718    -1.6082 C.3     
  20 C20            2.7594    -9.6881    -1.3496 C.3     
  21 C21            3.4773    -8.5816    -0.5743 C.3     
  22 C22            2.7805   -10.9805    -0.5310 C.3     
  23 C23            3.4698    -9.9185    -2.6850 C.3     
  24 Br24           1.2046    -3.3538    -4.3287 Br      
  25 H25           -0.9255    -0.5572     0.0083 H       
  26 H26            3.3382    -0.4976    -0.0313 H       
  27 H27            3.3093     1.9633    -0.0182 H       
  28 H28            1.1643     3.1708     0.0076 H       
  29 H29           -1.5410     2.2354     0.9049 H       
  30 H30            2.1291    -2.5375     0.4820 H       
  31 H31            0.3494    -2.5626     0.4988 H       
  32 H32            1.2671    -4.4334     0.5431 H       
  33 H33            1.2997    -6.8560     0.2407 H       
  34 H34            0.8039    -9.1076    -0.6569 H       
  35 H35            0.7986   -10.0601    -2.1606 H       
  36 H36            2.9712    -8.4174     0.3770 H       
  37 H37            4.5099    -8.8782    -0.3901 H       
  38 H38            3.4623    -7.6608    -1.1575 H       
  39 H39            2.2690   -11.7688    -1.0834 H       
  40 H40            3.8130   -11.2771    -0.3468 H       
  41 H41            2.2744   -10.8164     0.4203 H       
  42 H42            3.4548    -8.9978    -3.2682 H       
  43 H43            4.5023   -10.2151    -2.5008 H       
  44 H44            2.9583   -10.7068    -3.2373 H       
@<TRIPOS>BOND
   1    1    2 ar
   2    1    6 ar
   3    1    7 1
   4    2    3 ar
   5    2   25 1
   6    3    4 ar
   7    3    8 1
   8    4    5 ar
   9    4   26 1
  10    5    6 ar
  11    5   27 1
  12    6   28 1
  13    7   29 1
  14    8    9 1
  15    8   30 1
  16    8   31 1
  17    9   16 1
  18   10   11 1
  19   10   14 1
  20   10   19 1
  21   11   12 2
  22   12   13 1
  23   13   14 ar
  24   13   15 ar
  25   14   18 ar
  26   15   16 ar
  27   15   24 1
  28   16   17 ar
  29   17   18 ar
  30   17   32 1
  31   18   33 1
  32   19   20 1
  33   19   34 1
  34   19   35 1
  35   20   21 1
  36   20   22 1
  37   20   23 1
  38   21   36 1
  39   21   37 1
  40   21   38 1
  41   22   39 1
  42   22   40 1
  43   22   41 1
  44   23   42 1
  45   23   43 1
  46   23   44 1

#	End of record

