#	Name: ASD04590517
#	Creating user name:	WinNT
#	Creation time:	15. 06. 2019 20:51

#	Modifying user name:	WinNT
#	Modification time:	15. 06. 2019 20:51

#	Program:	/corina/corina34_cracker 3.40 0067  02.08.2006

@<TRIPOS>MOLECULE
ASD04590517
  63   68    0    0    0
SMALL
NO_CHARGES


@<TRIPOS>ATOM
   1 C1            -0.0018     1.3979     0.1370 C.ar    
   2 C2             0.0143     0.0110     0.0940 C.ar    
   3 C3             2.4072     0.0295     0.0918 C.ar    
   4 C4             2.3907     1.4348     0.1350 C.ar    
   5 C5             1.1787     2.1106     0.1576 C.ar    
   6 N6             3.7069    -0.3555     0.0781 N.2     
   7 C7             4.4802     0.7028     0.1095 C.2     
   8 N8             3.7129     1.8361     0.1454 N.pl3   
   9 C9             5.9575     0.6764     0.1065 C.2     
  10 C10            6.7681    -0.4816     0.0692 C.2     
  11 C11            8.0628    -0.0803     0.0789 C.2     
  12 N12            8.0776     1.2780     0.1207 N.pl3   
  13 N13            6.7517     1.7288     0.1323 N.2     
  14 N14            6.3133    -1.8096     0.0296 N.am    
  15 C15            7.1993    -2.8247    -0.0035 C.2     
  16 O16            8.3928    -2.5905     0.0010 O.2     
  17 C17            1.1973    -0.6717     0.0717 C.ar    
  18 C18            6.7217    -4.2194    -0.0450 C.2     
  19 N19            5.4641    -4.6176    -0.0548 N.2     
  20 C20           -1.2864    -0.7497     0.0721 C.3     
  21 N21           -1.7109    -0.9539    -1.3193 N.3     
  22 C22           -2.8420    -1.8900    -1.3931 C.3     
  23 C23           -0.5912    -1.4236    -2.1482 C.3     
  24 C24           -1.0612    -1.5657    -3.5983 C.3     
  25 O25           -2.1805    -2.4546    -3.6463 O.3     
  26 C26           -3.2895    -2.0275    -2.8507 C.3     
  27 N27            5.4039    -5.9001    -0.0945 N.pl3   
  28 C28            6.6548    -6.4282    -0.1135 C.2     
  29 C29            7.5280    -5.3863    -0.0883 C.2     
  30 N30            8.9294    -5.4513    -0.0956 N.am    
  31 C31            9.5483    -6.6481    -0.1305 C.2     
  32 C32           11.0117    -6.7156    -0.2595 C.2     
  33 O33            8.8963    -7.6725    -0.0552 O.2     
  34 C34           11.6760    -7.9369    -0.1666 C.2     
  35 C35           13.0647    -7.9617    -0.2940 C.2     
  36 C36           13.7504    -6.8091    -0.5045 C.2     
  37 N37           13.1114    -5.6184    -0.5955 N.am    
  38 C38           11.7716    -5.5390    -0.4866 C.2     
  39 O39           11.2144    -4.4582    -0.5711 O.2     
  40 H40           -0.9455     1.9230     0.1500 H       
  41 H41            1.1601     3.1899     0.1908 H       
  42 H42            4.0368     2.7500     0.1733 H       
  43 H43            8.9288    -0.7254     0.0579 H       
  44 H44            8.8693     1.8382     0.1364 H       
  45 H45            5.3615    -1.9964     0.0261 H       
  46 H46            1.1983    -1.7512     0.0389 H       
  47 H47           -1.1499    -1.7168     0.5560 H       
  48 H48           -2.0488    -0.1813     0.6048 H       
  49 H49           -2.5336    -2.8642    -1.0136 H       
  50 H50           -3.6687    -1.5100    -0.7929 H       
  51 H51            0.2252    -0.7030    -2.0992 H       
  52 H52           -0.2468    -2.3903    -1.7808 H       
  53 H53           -1.3552    -0.5891    -3.9830 H       
  54 H54           -0.2506    -1.9680    -4.2059 H       
  55 H55           -4.0905    -2.7637    -2.9177 H       
  56 H56           -3.6483    -1.0644    -3.2137 H       
  57 H57            4.5831    -6.4168    -0.1085 H       
  58 H58            6.9082    -7.4775    -0.1466 H       
  59 H59            9.4529    -4.6350    -0.0756 H       
  60 H60           11.1243    -8.8500     0.0018 H       
  61 H61           13.5956    -8.8997    -0.2246 H       
  62 H62           14.8256    -6.8423    -0.6010 H       
  63 H63           13.6267    -4.8105    -0.7460 H       
@<TRIPOS>BOND
   1    1    2 ar
   2    1    5 ar
   3    1   40 1
   4    2   17 ar
   5    2   20 1
   6    3    4 ar
   7    3    6 1
   8    3   17 ar
   9    4    5 ar
  10    4    8 1
  11    5   41 1
  12    6    7 2
  13    7    8 1
  14    7    9 1
  15    8   42 1
  16    9   10 1
  17    9   13 2
  18   10   11 2
  19   10   14 1
  20   11   12 1
  21   11   43 1
  22   12   13 1
  23   12   44 1
  24   14   15 am
  25   14   45 1
  26   15   16 2
  27   15   18 1
  28   17   46 1
  29   18   19 2
  30   18   29 1
  31   19   27 1
  32   20   21 1
  33   20   47 1
  34   20   48 1
  35   21   22 1
  36   21   23 1
  37   22   26 1
  38   22   49 1
  39   22   50 1
  40   23   24 1
  41   23   51 1
  42   23   52 1
  43   24   25 1
  44   24   53 1
  45   24   54 1
  46   25   26 1
  47   26   55 1
  48   26   56 1
  49   27   28 1
  50   27   57 1
  51   28   29 2
  52   28   58 1
  53   29   30 1
  54   30   31 am
  55   30   59 1
  56   31   32 1
  57   31   33 2
  58   32   34 2
  59   32   38 1
  60   34   35 1
  61   34   60 1
  62   35   36 2
  63   35   61 1
  64   36   37 1
  65   36   62 1
  66   37   38 am
  67   37   63 1
  68   38   39 2

#	End of record

