#	Name: ASD01900040
#	Creating user name:	WinNT
#	Creation time:	15. 06. 2019 19:51

#	Modifying user name:	WinNT
#	Modification time:	15. 06. 2019 19:51

#	Program:	/corina/corina34_cracker 3.40 0067  02.08.2006

@<TRIPOS>MOLECULE
ASD01900040
  35   36    0    0    0
SMALL
NO_CHARGES


@<TRIPOS>ATOM
   1 C1             0.0473     1.4603     0.4767 C.3     
   2 C2             0.0358    -0.0451     0.2038 C.3     
   3 C3            -1.3845    -0.5486     0.2249 C.2     
   4 O4            -2.2976     0.2210     0.4372 O.2     
   5 O5            -0.6572     2.9903     2.2818 O.3     
   6 C6            -0.5614     1.7305     1.8285 C.2     
   7 O7            -0.9632     0.8131     2.5044 O.2     
   8 N8            -1.6400    -1.8540     0.0078 N.am    
   9 C9            -2.9471    -2.3396     0.1233 C.ar    
  10 C10           -4.0198    -1.5495    -0.2683 C.ar    
  11 C11           -5.3102    -2.0319    -0.1536 C.ar    
  12 C12           -5.5335    -3.3008     0.3513 C.ar    
  13 C13           -4.4663    -4.0902     0.7422 C.ar    
  14 C14           -3.1736    -3.6147     0.6243 C.ar    
  15 Cl15          -4.7507    -5.6815     1.3752 Cl      
  16 Cl16          -6.6517    -1.0447    -0.6430 Cl      
  17 C17            1.4893     1.9714     0.4553 C.3     
  18 C18            2.1073     1.6971    -0.9172 C.3     
  19 C19            2.0957     0.1917    -1.1901 C.3     
  20 C20            0.6538    -0.3194    -1.1687 C.3     
  21 H21           -0.5314     1.9732    -0.2915 H       
  22 H22            0.6145    -0.5581     0.9720 H       
  23 H23           -1.0549     3.1138     3.1545 H       
  24 H24           -0.9177    -2.4568    -0.2286 H       
  25 H25           -3.8461    -0.5589    -0.6618 H       
  26 H26           -6.5424    -3.6755     0.4408 H       
  27 H27           -2.3410    -4.2313     0.9292 H       
  28 H28            1.4975     3.0439     0.6496 H       
  29 H29            2.0680     1.4585     1.2234 H       
  30 H30            1.5285     2.2101    -1.6854 H       
  31 H31            3.1346     2.0613    -0.9325 H       
  32 H32            2.5360    -0.0037    -2.1679 H       
  33 H33            2.6745    -0.3212    -0.4219 H       
  34 H34            0.6456    -1.3919    -1.3631 H       
  35 H35            0.0751     0.1935    -1.9368 H       
@<TRIPOS>BOND
   1    1    2 1
   2    1   17 1
   3    1    6 1
   4    1   21 1
   5    2    3 1
   6    2   20 1
   7    2   22 1
   8    3    4 2
   9    3    8 am
  10    5    6 1
  11    5   23 1
  12    6    7 2
  13    8    9 1
  14    8   24 1
  15    9   10 ar
  16    9   14 ar
  17   10   11 ar
  18   10   25 1
  19   11   12 ar
  20   11   16 1
  21   12   13 ar
  22   12   26 1
  23   13   14 ar
  24   13   15 1
  25   14   27 1
  26   17   18 1
  27   17   28 1
  28   17   29 1
  29   18   19 1
  30   18   30 1
  31   18   31 1
  32   19   20 1
  33   19   32 1
  34   19   33 1
  35   20   34 1
  36   20   35 1

#	End of record

