#	Name: ASD03091188
#	Creating user name:	WinNT
#	Creation time:	15. 06. 2019 20:30

#	Modifying user name:	WinNT
#	Modification time:	15. 06. 2019 20:30

#	Program:	/corina/corina34_cracker 3.40 0067  02.08.2006

@<TRIPOS>MOLECULE
ASD03091188
  64   68    0    0    0
SMALL
NO_CHARGES


@<TRIPOS>ATOM
   1 C1            -0.0303     1.4707     0.0314 C.2     
   2 C2             0.0014    -0.0358     0.0090 C.3     
   3 O3             1.0070     2.0991     0.0338 O.2     
   4 N4            -1.2114     2.1198     0.0433 N.am    
   5 C5            -1.2422     3.5843     0.0651 C.3     
   6 C6            -1.1300     4.1181    -1.3644 C.3     
   7 C7            -2.5589     4.0576     0.6843 C.3     
   8 N8             3.3274    -1.0138     1.2283 N.2     
   9 C9             2.0845    -0.6103     1.1685 C.2     
  10 N10            1.3925    -0.4948    -0.0070 N.am    
  11 C11            1.9858    -0.8025    -1.1839 C.2     
  12 C12            3.3832    -1.2584    -1.1407 C.ar    
  13 C13            4.0804    -1.5979    -2.2978 C.ar    
  14 C14            5.3952    -2.0208    -2.1987 C.ar    
  15 C15            6.0174    -2.1067    -0.9531 C.ar    
  16 C16            5.3470    -1.7774     0.1895 C.ar    
  17 C17            4.0183    -1.3472     0.1192 C.ar    
  18 O18            1.3853    -0.7059    -2.2384 O.2     
  19 C19            1.3953    -0.2637     2.4284 C.ar    
  20 C20            0.1857    -0.8792     2.7576 C.ar    
  21 C21           -0.4535    -0.5516     3.9364 C.ar    
  22 C22            0.1047     0.3882     4.7928 C.ar    
  23 C23            1.3043     1.0010     4.4691 C.ar    
  24 C24            1.9539     0.6761     3.2966 C.ar    
  25 F25           -0.5243     0.7063     5.9453 F       
  26 F26           -1.6237    -1.1456     4.2571 F       
  27 N27            7.1014    -2.0622    -6.1256 N.3     
  28 C28            5.9172    -2.8631    -5.7796 C.3     
  29 C29            5.2373    -2.3080    -4.5377 C.3     
  30 N30            6.1032    -2.3642    -3.3538 N.3     
  31 C31            7.2772    -1.4977    -3.5291 C.3     
  32 C32            8.4516    -2.2983    -4.0717 C.3     
  33 C33            8.3053    -2.6643    -5.5349 C.3     
  34 C34            7.0056    -0.6390    -5.8815 C.3     
  35 C35            6.8970    -0.3147    -4.4006 C.3     
  36 H36           -0.4988    -0.4230     0.8967 H       
  37 H37           -0.5107    -0.3967    -0.8830 H       
  38 H38           -2.0411     1.6173     0.0374 H       
  39 H39           -0.4072     3.9565     0.6586 H       
  40 H40           -1.9651     3.7459    -1.9578 H       
  41 H41           -1.1529     5.2078    -1.3481 H       
  42 H42           -0.1920     3.7810    -1.8055 H       
  43 H43           -2.6389     3.6773     1.7027 H       
  44 H44           -2.5818     5.1472     0.7005 H       
  45 H45           -3.3940     3.6854     0.0908 H       
  46 H46            3.6001    -1.5323    -3.2629 H       
  47 H47            7.0434    -2.4386    -0.8919 H       
  48 H48            5.8420    -1.8493     1.1466 H       
  49 H49           -0.2488    -1.6096     2.0912 H       
  50 H50            1.7340     1.7316     5.1385 H       
  51 H51            2.8912     1.1516     3.0481 H       
  52 H52            5.2146    -2.8435    -6.6127 H       
  53 H53            6.2222    -3.8926    -5.5922 H       
  54 H54            4.9581    -1.2706    -4.7219 H       
  55 H55            4.3338    -2.8854    -4.3420 H       
  56 H56            7.5570    -1.1071    -2.5507 H       
  57 H57            9.3617    -1.7114    -3.9476 H       
  58 H58            8.5481    -3.2151    -3.4901 H       
  59 H59            8.2421    -3.7487    -5.6259 H       
  60 H60            9.1822    -2.3134    -6.0789 H       
  61 H61            7.8920    -0.1505    -6.2863 H       
  62 H62            6.1253    -0.2510    -6.3939 H       
  63 H63            5.8707    -0.0244    -4.1759 H       
  64 H64            7.5581     0.5211    -4.1716 H       
@<TRIPOS>BOND
   1    1    2 1
   2    1    3 2
   3    1    4 am
   4    2   10 1
   5    2   36 1
   6    2   37 1
   7    4    5 1
   8    4   38 1
   9    5    6 1
  10    5    7 1
  11    5   39 1
  12    6   40 1
  13    6   41 1
  14    6   42 1
  15    7   43 1
  16    7   44 1
  17    7   45 1
  18    8    9 2
  19    8   17 1
  20    9   10 1
  21    9   19 1
  22   10   11 am
  23   11   12 1
  24   11   18 2
  25   12   13 ar
  26   12   17 ar
  27   13   14 ar
  28   13   46 1
  29   14   15 ar
  30   14   30 1
  31   15   16 ar
  32   15   47 1
  33   16   17 ar
  34   16   48 1
  35   19   20 ar
  36   19   24 ar
  37   20   21 ar
  38   20   49 1
  39   21   22 ar
  40   21   26 1
  41   22   23 ar
  42   22   25 1
  43   23   24 ar
  44   23   50 1
  45   24   51 1
  46   27   28 1
  47   27   33 1
  48   27   34 1
  49   28   29 1
  50   28   52 1
  51   28   53 1
  52   29   30 1
  53   29   54 1
  54   29   55 1
  55   30   31 1
  56   31   32 1
  57   31   35 1
  58   31   56 1
  59   32   33 1
  60   32   57 1
  61   32   58 1
  62   33   59 1
  63   33   60 1
  64   34   35 1
  65   34   61 1
  66   34   62 1
  67   35   63 1
  68   35   64 1

#	End of record

