#	Name: ASD08150423
#	Creating user name:	WinNT
#	Creation time:	15. 06. 2019 21:16

#	Modifying user name:	WinNT
#	Modification time:	15. 06. 2019 21:16

#	Program:	/corina/corina34_cracker 3.40 0067  02.08.2006

@<TRIPOS>MOLECULE
ASD08150423
  48   52    0    0    0
SMALL
NO_CHARGES


@<TRIPOS>ATOM
   1 N1             0.8892     2.9173    -1.6834 N.am    
   2 C2             1.3217     2.2947    -2.7970 C.2     
   3 C3             2.5315     1.5710    -2.7981 C.2     
   4 C4             3.2811     1.4919    -1.6693 C.2     
   5 C5             2.8294     2.1462    -0.4959 C.ar    
   6 C6             3.5686     2.0957     0.7013 C.ar    
   7 N7             3.1493     2.6998     1.7824 N.ar    
   8 C8             2.0033     3.3966     1.8164 C.ar    
   9 C9             1.1953     3.5013     0.6574 C.ar    
  10 C10            1.6205     2.8582    -0.5287 C.ar    
  11 C11            0.0025     4.2294     0.7035 C.ar    
  12 C12           -0.3772     4.8425     1.8863 C.ar    
  13 C13            0.4276     4.7349     3.0289 C.ar    
  14 C14            1.5903     4.0299     3.0000 C.ar    
  15 O15            0.6576     2.3575    -3.8176 O.2     
  16 C16           -1.6412     5.6169     1.9437 C.ar    
  17 C17           -0.3135     3.6343    -1.7095 C.ar    
  18 C18           -0.3071     4.9923    -1.9989 C.ar    
  19 C19           -1.4944     5.6975    -2.0246 C.ar    
  20 C20           -2.6905     5.0512    -1.7620 C.ar    
  21 C21           -2.6990     3.6967    -1.4726 C.ar    
  22 C22           -1.5149     2.9868    -1.4515 C.ar    
  23 C23           -1.4880     7.1715    -2.3382 C.3     
  24 C24           -2.7646     5.1920     1.2376 C.ar    
  25 F25           -3.8508     5.7428    -1.7876 F       
  26 N26           -3.8875     5.8791     1.2875 N.ar    
  27 C27           -3.9961     6.9844     1.9989 C.ar    
  28 C28           -2.9261     7.4716     2.7275 C.ar    
  29 C29           -1.7262     6.7818     2.7119 C.ar    
  30 C30           -5.3065     7.7285     2.0178 C.3     
  31 F31           -6.2674     6.9988     1.3097 F       
  32 F32           -5.7291     7.8950     3.3410 F       
  33 F33           -5.1394     8.9824     1.4203 F       
  34 H34            2.8627     1.0777    -3.6999 H       
  35 H35            4.2083     0.9381    -1.6652 H       
  36 H36            4.4989     1.5476     0.7273 H       
  37 H37           -0.6179     4.3135    -0.1765 H       
  38 H38            0.1203     5.2184     3.9445 H       
  39 H39            2.1980     3.9571     3.8899 H       
  40 H40            0.6256     5.4969    -2.2035 H       
  41 H41           -3.6329     3.1946    -1.2673 H       
  42 H42           -1.5219     1.9307    -1.2258 H       
  43 H43           -1.5910     7.3146    -3.4139 H       
  44 H44           -2.3196     7.6555    -1.8261 H       
  45 H45           -0.5489     7.6106    -2.0015 H       
  46 H46           -2.7143     4.2913     0.6437 H       
  47 H47           -3.0270     8.3781     3.3058 H       
  48 H48           -0.8747     7.1392     3.2718 H       
@<TRIPOS>BOND
   1    1    2 am
   2    1   10 1
   3    1   17 1
   4    2    3 1
   5    2   15 2
   6    3    4 2
   7    3   34 1
   8    4    5 1
   9    4   35 1
  10    5    6 ar
  11    5   10 ar
  12    6    7 ar
  13    6   36 1
  14    7    8 ar
  15    8    9 ar
  16    8   14 ar
  17    9   10 ar
  18    9   11 ar
  19   11   12 ar
  20   11   37 1
  21   12   13 ar
  22   12   16 1
  23   13   14 ar
  24   13   38 1
  25   14   39 1
  26   16   24 ar
  27   16   29 ar
  28   17   18 ar
  29   17   22 ar
  30   18   19 ar
  31   18   40 1
  32   19   20 ar
  33   19   23 1
  34   20   21 ar
  35   20   25 1
  36   21   22 ar
  37   21   41 1
  38   22   42 1
  39   23   43 1
  40   23   44 1
  41   23   45 1
  42   24   26 ar
  43   24   46 1
  44   26   27 ar
  45   27   28 ar
  46   27   30 1
  47   28   29 ar
  48   28   47 1
  49   29   48 1
  50   30   31 1
  51   30   32 1
  52   30   33 1

#	End of record

