#	Name: ASD02562094
#	Creating user name:	WinNT
#	Creation time:	15. 06. 2019 20:25

#	Modifying user name:	WinNT
#	Modification time:	15. 06. 2019 20:25

#	Program:	/corina/corina34_cracker 3.40 0067  02.08.2006

@<TRIPOS>MOLECULE
ASD02562094
  53   56    0    0    0
SMALL
NO_CHARGES


@<TRIPOS>ATOM
   1 C1             0.1012     1.8413    -0.7968 C.ar    
   2 N2             0.5327     0.9041    -1.6250 N.ar    
   3 C3            -0.1988     0.5385    -2.6726 C.ar    
   4 C4            -1.4395     1.1602    -2.8916 C.ar    
   5 C5            -1.8577     2.1506    -1.9859 C.ar    
   6 N6            -1.0659     2.4507    -0.9628 N.ar    
   7 N7            -3.0716     2.7961    -2.1541 N.pl3   
   8 N8             0.8930     2.1948     0.2851 N.pl3   
   9 C9            -3.5233     3.6900    -1.1895 C.ar    
  10 C10            2.0944     1.5276     0.5169 C.ar    
  11 C11            3.3029     2.2012     0.3642 C.ar    
  12 C12           -4.2771     4.7984    -1.5685 C.ar    
  13 C13           -4.7227     5.6788    -0.6245 C.ar    
  14 C14           -4.4210     5.4657     0.7269 C.ar    
  15 C15           -3.6630     4.3493     1.1037 C.ar    
  16 C16           -3.2255     3.4714     0.1535 C.ar    
  17 C17            2.0822     0.1912     0.9058 C.ar    
  18 C18            3.2662    -0.4714     1.1357 C.ar    
  19 C19            4.4841     0.2005     0.9778 C.ar    
  20 C20            4.4915     1.5462     0.5921 C.ar    
  21 C21            3.3097     3.6497    -0.0516 C.3     
  22 C22            0.7704    -0.5309     1.0759 C.3     
  23 C23            5.7512    -0.5031     1.2227 C.2     
  24 C24            6.9246     0.1467     1.0699 C.2     
  25 C25            8.1590    -0.5387     1.3085 C.1     
  26 N26            9.1383    -1.0825     1.4978 N.1     
  27 N27           -0.0461    -0.3703    -3.6891 N.pl3   
  28 C28           -1.1549    -0.2894    -4.4798 C.2     
  29 N29           -1.9707     0.6088    -4.0102 N.2     
  30 C30           -4.8974     6.4095     1.7451 C.2     
  31 C31           -4.5717     6.1782     3.1982 C.3     
  32 O32           -5.5533     7.3757     1.4169 O.2     
  33 H33           -3.6066     2.6246    -2.9449 H       
  34 H34            0.6108     2.9066     0.8807 H       
  35 H35           -4.5091     4.9619    -2.6106 H       
  36 H36           -5.3064     6.5383    -0.9193 H       
  37 H37           -3.4279     4.1815     2.1443 H       
  38 H38           -2.6411     2.6105     0.4430 H       
  39 H39            3.2558    -1.5083     1.4378 H       
  40 H40            5.4289     2.0683     0.4692 H       
  41 H41            3.2780     4.2824     0.8354 H       
  42 H42            4.2175     3.8612    -0.6166 H       
  43 H43            2.4385     3.8530    -0.6743 H       
  44 H44            0.5310    -1.0700     0.1593 H       
  45 H45            0.8489    -1.2369     1.9027 H       
  46 H46           -0.0173     0.1918     1.2887 H       
  47 H47            5.7435    -1.5399     1.5249 H       
  48 H48            6.9323     1.1836     0.7678 H       
  49 H49            0.7114    -0.9616    -3.8214 H       
  50 H50           -1.3295    -0.8829    -5.3650 H       
  51 H51           -3.6310     6.6717     3.4427 H       
  52 H52           -5.3688     6.5875     3.8188 H       
  53 H53           -4.4796     5.1081     3.3840 H       
@<TRIPOS>BOND
   1    1    2 ar
   2    1    8 1
   3    1    6 ar
   4    2    3 ar
   5    3    4 ar
   6    3   27 1
   7    4    5 ar
   8    4   29 1
   9    5    6 ar
  10    5    7 1
  11    7    9 1
  12    7   33 1
  13    8   10 1
  14    8   34 1
  15    9   12 ar
  16    9   16 ar
  17   10   11 ar
  18   10   17 ar
  19   11   21 1
  20   11   20 ar
  21   12   13 ar
  22   12   35 1
  23   13   14 ar
  24   13   36 1
  25   14   15 ar
  26   14   30 1
  27   15   16 ar
  28   15   37 1
  29   16   38 1
  30   17   18 ar
  31   17   22 1
  32   18   19 ar
  33   18   39 1
  34   19   20 ar
  35   19   23 1
  36   20   40 1
  37   21   41 1
  38   21   42 1
  39   21   43 1
  40   22   44 1
  41   22   45 1
  42   22   46 1
  43   23   24 2
  44   23   47 1
  45   24   25 1
  46   24   48 1
  47   25   26 3
  48   27   28 1
  49   27   49 1
  50   28   29 2
  51   28   50 1
  52   30   31 1
  53   30   32 2
  54   31   51 1
  55   31   52 1
  56   31   53 1

#	End of record

