#	Name: ASD03330274
#	Creating user name:	WinNT
#	Creation time:	15. 06. 2019 20:36

#	Modifying user name:	WinNT
#	Modification time:	15. 06. 2019 20:36

#	Program:	/corina/corina34_cracker 3.40 0067  02.08.2006

@<TRIPOS>MOLECULE
ASD03330274
  65   68    0    0    0
SMALL
NO_CHARGES


@<TRIPOS>ATOM
   1 C1             0.0039    -0.3338     0.9085 C.3     
   2 N2             0.0176    -1.7239     0.4316 N.3     
   3 C3             0.4975    -1.8044    -0.9599 C.3     
   4 C4             1.7844    -1.0261    -1.0546 C.2     
   5 N5             2.2014    -0.1411    -0.1115 N.pl3   
   6 C6             1.4423     0.1622     1.1051 C.3     
   7 C7             2.7256    -1.0466    -2.0312 C.2     
   8 N8             3.7036    -0.1819    -1.6768 N.2     
   9 C9             3.3937     0.3649    -0.5225 C.2     
  10 C10            4.2064     1.3633     0.2068 C.ar    
  11 C11            5.2415     2.0346    -0.4445 C.ar    
  12 C12            2.6891    -1.8635    -3.2572 C.2     
  13 O13            1.7498    -2.6077    -3.4643 O.2     
  14 C14            3.6605    -2.5979    -5.3676 C.3     
  15 N15            3.6967    -1.7858    -4.1489 N.am    
  16 C16            5.9955     2.9648     0.2410 C.ar    
  17 C17            5.7267     3.2325     1.5714 C.ar    
  18 C18            4.7016     2.5702     2.2230 C.ar    
  19 C19            3.9370     1.6416     1.5471 C.ar    
  20 C20            2.8495    -1.8700    -6.4416 C.3     
  21 C21            3.4238    -0.4675    -6.6513 C.3     
  22 C22            2.9229    -2.6528    -7.7541 C.3     
  23 C23            1.3906    -1.7619    -5.9932 C.3     
  24 C24           -1.3089    -2.3402     0.5675 C.3     
  25 C25            5.0656    -2.8212    -5.8645 C.2     
  26 O26            5.9408    -2.0296    -5.5845 O.2     
  27 C27           -2.2793    -1.6530    -0.3584 C.ar    
  28 C28           -2.4641    -2.1052    -1.6554 C.ar    
  29 N29           -3.3247    -1.4765    -2.4398 N.ar    
  30 C30           -4.0010    -0.4338    -2.0012 C.ar    
  31 N31           -3.8512     0.0240    -0.7744 N.ar    
  32 C32           -3.0127    -0.5572     0.0684 C.ar    
  33 N33            5.3497    -3.9005    -6.6199 N.am    
  34 C34            6.7347    -4.1791    -7.0078 C.3     
  35 H35           -0.4995     0.2960     0.1750 H       
  36 H36           -0.5303    -0.2814     1.8572 H       
  37 H37            0.6761    -2.8456    -1.2283 H       
  38 H38           -0.2447    -1.3723    -1.6311 H       
  39 H39            1.4398     1.2383     1.2783 H       
  40 H40            1.8937    -0.3469     1.9566 H       
  41 H41            5.4525     1.8262    -1.4830 H       
  42 H42            3.1950    -3.5592    -5.1500 H       
  43 H43            4.4459    -1.1922    -3.9837 H       
  44 H44            6.7973     3.4849    -0.2620 H       
  45 H45            6.3199     3.9613     2.1037 H       
  46 H46            4.4967     2.7836     3.2617 H       
  47 H47            3.1371     1.1252     2.0568 H       
  48 H48            4.4631    -0.5445    -6.9708 H       
  49 H49            2.8460     0.0510    -7.4164 H       
  50 H50            3.3715     0.0901    -5.7162 H       
  51 H51            2.4802    -3.6390    -7.6143 H       
  52 H52            2.3758    -2.1154    -8.5287 H       
  53 H53            3.9650    -2.7616    -8.0544 H       
  54 H54            1.3383    -1.2043    -5.0581 H       
  55 H55            0.8128    -1.2434    -6.7583 H       
  56 H56            0.9815    -2.7611    -5.8437 H       
  57 H57           -1.2466    -3.3972     0.3091 H       
  58 H58           -1.6536    -2.2374     1.5964 H       
  59 H59           -1.9128    -2.9589    -2.0212 H       
  60 H60           -4.6961     0.0589    -2.6648 H       
  61 H61           -2.8946    -0.1770     1.0724 H       
  62 H62            4.6372    -4.4929    -6.9068 H       
  63 H63            7.1252    -3.3422    -7.5869 H       
  64 H64            7.3420    -4.3166    -6.1132 H       
  65 H65            6.7675    -5.0857    -7.6121 H       
@<TRIPOS>BOND
   1    1    2 1
   2    1    6 1
   3    1   35 1
   4    1   36 1
   5    2    3 1
   6    2   24 1
   7    3    4 1
   8    3   37 1
   9    3   38 1
  10    4    5 1
  11    4    7 2
  12    5    6 1
  13    5    9 1
  14    6   39 1
  15    6   40 1
  16    7    8 1
  17    7   12 1
  18    8    9 2
  19    9   10 1
  20   10   11 ar
  21   10   19 ar
  22   11   16 ar
  23   11   41 1
  24   12   13 2
  25   12   15 am
  26   14   15 1
  27   14   25 1
  28   14   20 1
  29   14   42 1
  30   15   43 1
  31   16   17 ar
  32   16   44 1
  33   17   18 ar
  34   17   45 1
  35   18   19 ar
  36   18   46 1
  37   19   47 1
  38   20   21 1
  39   20   22 1
  40   20   23 1
  41   21   48 1
  42   21   49 1
  43   21   50 1
  44   22   51 1
  45   22   52 1
  46   22   53 1
  47   23   54 1
  48   23   55 1
  49   23   56 1
  50   24   27 1
  51   24   57 1
  52   24   58 1
  53   25   26 2
  54   25   33 am
  55   27   28 ar
  56   27   32 ar
  57   28   29 ar
  58   28   59 1
  59   29   30 ar
  60   30   31 ar
  61   30   60 1
  62   31   32 ar
  63   32   61 1
  64   33   34 1
  65   33   62 1
  66   34   63 1
  67   34   64 1
  68   34   65 1

#	End of record

