#	Name: ASD07300648
#	Creating user name:	WinNT
#	Creation time:	15. 06. 2019 21:10

#	Modifying user name:	WinNT
#	Modification time:	15. 06. 2019 21:10

#	Program:	/corina/corina34_cracker 3.40 0067  02.08.2006

@<TRIPOS>MOLECULE
ASD07300648
  31   33    0    0    0
SMALL
NO_CHARGES


@<TRIPOS>ATOM
   1 C1            -0.0034     1.3921     0.2412 C.2     
   2 C2             0.0021    -0.0041     0.0020 C.2     
   3 N3             1.1903     2.0683     0.2267 N.pl3   
   4 N4             1.1446    -0.6201    -0.2278 N.2     
   5 C5             2.3030     0.0479    -0.2399 C.2     
   6 C6             2.3482     1.3762    -0.0178 C.2     
   7 N7            -0.9664     2.2616     0.5002 N.2     
   8 C8            -0.4323     3.4766     0.6466 C.2     
   9 C9             0.9139     3.3779     0.4806 C.2     
  10 N10           -1.1863    -0.7181     0.0100 N.pl3   
  11 C11           -2.4817    -0.0315     0.1360 C.3     
  12 C12           -3.4042    -0.5304    -0.9821 C.3     
  13 O13           -3.4384    -1.9595    -0.9615 O.3     
  14 C14           -2.1750    -2.5789    -1.2141 C.3     
  15 C15           -1.1899    -2.1844    -0.1135 C.3     
  16 O16           -1.1182     4.6191     0.9205 O.3     
  17 C17           -2.5355     4.5063     1.0643 C.3     
  18 Br18           2.1661     4.7910     0.5858 Br      
  19 H19            3.2208    -0.4882    -0.4312 H       
  20 H20            3.2953     1.8950    -0.0327 H       
  21 H21           -2.9246    -0.2582     1.1059 H       
  22 H22           -2.3377     1.0447     0.0402 H       
  23 H23           -4.4097    -0.1399    -0.8259 H       
  24 H24           -3.0258    -0.1892    -1.9457 H       
  25 H25           -2.2962    -3.6621    -1.2248 H       
  26 H26           -1.7921    -2.2451    -2.1785 H       
  27 H27           -0.1907    -2.5333    -0.3744 H       
  28 H28           -1.5004    -2.6316     0.8308 H       
  29 H29           -2.9580     5.4876     1.2803 H       
  30 H30           -2.9650     4.1214     0.1393 H       
  31 H31           -2.7645     3.8239     1.8828 H       
@<TRIPOS>BOND
   1    1    2 1
   2    1    3 1
   3    1    7 2
   4    2    4 2
   5    2   10 1
   6    3    6 1
   7    3    9 1
   8    4    5 1
   9    5    6 2
  10    5   19 1
  11    6   20 1
  12    7    8 1
  13    8    9 2
  14    8   16 1
  15    9   18 1
  16   10   11 1
  17   10   15 1
  18   11   12 1
  19   11   21 1
  20   11   22 1
  21   12   13 1
  22   12   23 1
  23   12   24 1
  24   13   14 1
  25   14   15 1
  26   14   25 1
  27   14   26 1
  28   15   27 1
  29   15   28 1
  30   16   17 1
  31   17   29 1
  32   17   30 1
  33   17   31 1

#	End of record

