#	Name: ASD04880028
#	Creating user name:	WinNT
#	Creation time:	15. 06. 2019 20:52

#	Modifying user name:	WinNT
#	Modification time:	15. 06. 2019 20:52

#	Program:	/corina/corina34_cracker 3.40 0067  02.08.2006

@<TRIPOS>MOLECULE
ASD04880028
  69   73    0    0    0
SMALL
NO_CHARGES


@<TRIPOS>ATOM
   1 C1             0.1021     1.1603     0.0594 C.ar    
   2 C2             0.0429    -0.2291     0.0736 C.ar    
   3 C3            -1.1738    -0.8691     0.1389 C.ar    
   4 C4            -2.3570    -0.1216     0.1914 C.ar    
   5 C5            -2.2989     1.2784     0.1776 C.ar    
   6 C6            -1.0750     1.9143     0.1173 C.ar    
   7 N7            -1.0122     3.3137     0.1033 N.am    
   8 C8            -1.9772     4.0254    -0.5121 C.2     
   9 C9            -1.9800     5.4888    -0.4208 C.2     
  10 O10           -2.8464     3.4533    -1.1436 O.2     
  11 N11            1.3344     1.8017    -0.0068 N.3     
  12 C12            1.4845     2.5243    -1.2776 C.3     
  13 C13            2.4355     0.8480     0.1867 C.3     
  14 C14            3.7668     1.6031     0.1864 C.3     
  15 N15            3.9169     2.3256    -1.0844 N.3     
  16 C16            2.8157     3.2793    -1.2779 C.3     
  17 C17            5.1545     2.9697    -1.1508 C.ar    
  18 C18            6.0511     2.6519    -2.1628 C.ar    
  19 C19            5.4890     3.9338    -0.2081 C.ar    
  20 C20            6.7134     4.5687    -0.2766 C.ar    
  21 C21            7.6060     4.2461    -1.2826 C.ar    
  22 C22            7.2741     3.2908    -2.2255 C.ar    
  23 C23            5.6902     1.6109    -3.1910 C.3     
  24 C24           -3.6549    -0.8031     0.2601 C.2     
  25 C25           -2.8938     6.3268    -0.9932 C.2     
  26 C26           -2.5137     7.6336    -0.6497 C.2     
  27 C27           -1.3987     7.5374     0.1076 C.2     
  28 O28           -1.0835     6.2431     0.2481 O.3     
  29 O29           -4.6790    -0.1543     0.3055 O.2     
  30 C30           -3.7156    -2.3088     0.2743 C.3     
  31 C31           -5.1537    -2.7529     0.3482 C.ar    
  32 C32           -5.8711    -2.9653    -0.8155 C.ar    
  33 C33           -5.7504    -2.9523     1.5762 C.ar    
  34 C34           -7.0823    -3.3636     1.6427 C.ar    
  35 C35           -7.8023    -3.5706     0.4648 C.ar    
  36 C36           -7.1923    -3.3727    -0.7565 C.ar    
  37 C37           -7.7280    -3.5797     2.9551 C.2     
  38 N38           -9.0144    -3.9769     3.0160 N.am    
  39 O39           -7.0985    -3.3991     3.9792 O.2     
  40 H40            0.9541    -0.8074     0.0329 H       
  41 H41           -1.2162    -1.9482     0.1494 H       
  42 H42           -3.2090     1.8585     0.2179 H       
  43 H43           -0.2743     3.7704     0.5366 H       
  44 H44            1.4693     1.8136    -2.1040 H       
  45 H45            0.6643     3.2331    -1.3920 H       
  46 H46            2.3088     0.3347     1.1399 H       
  47 H47            2.4311     0.1183    -0.6230 H       
  48 H48            3.7820     2.3137     1.0128 H       
  49 H49            4.5869     0.8942     0.3008 H       
  50 H50            2.9425     3.7926    -2.2311 H       
  51 H51            2.8201     4.0090    -0.4682 H       
  52 H52            4.7922     4.1867     0.5773 H       
  53 H53            6.9741     5.3182     0.4559 H       
  54 H54            8.5627     4.7446    -1.3344 H       
  55 H55            7.9735     3.0412    -3.0097 H       
  56 H56            5.1910     2.0899    -4.0333 H       
  57 H57            6.5962     1.1152    -3.5396 H       
  58 H58            5.0224     0.8747    -2.7437 H       
  59 H59           -3.7441     6.0397    -1.5940 H       
  60 H60           -3.0175     8.5447    -0.9368 H       
  61 H61           -0.8537     8.3671     0.5329 H       
  62 H62           -3.2610    -2.6993    -0.6361 H       
  63 H63           -3.1738    -2.6861     1.1417 H       
  64 H64           -5.3981    -2.8120    -1.7742 H       
  65 H65           -5.1879    -2.7908     2.4838 H       
  66 H66           -8.8333    -3.8889     0.5095 H       
  67 H67           -7.7482    -3.5322    -1.6686 H       
  68 H68           -9.5167    -4.1210     2.1988 H       
  69 H69           -9.4380    -4.1187     3.8770 H       
@<TRIPOS>BOND
   1    1    2 ar
   2    1   11 1
   3    1    6 ar
   4    2    3 ar
   5    2   40 1
   6    3    4 ar
   7    3   41 1
   8    4    5 ar
   9    4   24 1
  10    5    6 ar
  11    5   42 1
  12    6    7 1
  13    7    8 am
  14    7   43 1
  15    8    9 1
  16    8   10 2
  17    9   25 2
  18    9   28 1
  19   11   12 1
  20   11   13 1
  21   12   16 1
  22   12   44 1
  23   12   45 1
  24   13   14 1
  25   13   46 1
  26   13   47 1
  27   14   15 1
  28   14   48 1
  29   14   49 1
  30   15   16 1
  31   15   17 1
  32   16   50 1
  33   16   51 1
  34   17   18 ar
  35   17   19 ar
  36   18   23 1
  37   18   22 ar
  38   19   20 ar
  39   19   52 1
  40   20   21 ar
  41   20   53 1
  42   21   22 ar
  43   21   54 1
  44   22   55 1
  45   23   56 1
  46   23   57 1
  47   23   58 1
  48   24   29 2
  49   24   30 1
  50   25   26 1
  51   25   59 1
  52   26   27 2
  53   26   60 1
  54   27   28 1
  55   27   61 1
  56   30   31 1
  57   30   62 1
  58   30   63 1
  59   31   32 ar
  60   31   33 ar
  61   32   36 ar
  62   32   64 1
  63   33   34 ar
  64   33   65 1
  65   34   35 ar
  66   34   37 1
  67   35   36 ar
  68   35   66 1
  69   36   67 1
  70   37   38 am
  71   37   39 2
  72   38   68 1
  73   38   69 1

#	End of record

