#	Name: ASD01910779
#	Creating user name:	WinNT
#	Creation time:	15. 06. 2019 19:56

#	Modifying user name:	WinNT
#	Modification time:	15. 06. 2019 19:56

#	Program:	/corina/corina34_cracker 3.40 0067  02.08.2006

@<TRIPOS>MOLECULE
ASD01910779
  52   55    0    0    0
SMALL
NO_CHARGES


@<TRIPOS>ATOM
   1 C1             0.0586     1.7625    -0.3690 C.ar    
   2 C2             0.0014     0.3754    -0.3995 C.ar    
   3 C3             1.1911    -0.3363    -0.3542 C.ar    
   4 C4             2.3960     0.3638    -0.2801 C.ar    
   5 N5             2.4044     1.6865    -0.2533 N.ar    
   6 C6             1.2867     2.3878    -0.2952 C.ar    
   7 N7             3.5993    -0.3355    -0.2335 N.3     
   8 C8             4.7410     0.5857    -0.1582 C.3     
   9 C9             6.0259    -0.2165     0.0734 C.3     
  10 N10            6.1271    -1.2482    -0.9700 N.am    
  11 C11            4.9671    -2.1232    -1.1981 C.3     
  12 C12            3.7238    -1.2459    -1.3796 C.3     
  13 C13            7.2526    -1.3877    -1.6980 C.2     
  14 C14            7.3804    -2.5083    -2.6544 C.ar    
  15 O15            8.1627    -0.5925    -1.5685 O.2     
  16 C16            7.9922    -2.3046    -3.8933 C.ar    
  17 C17            8.1124    -3.3494    -4.7885 C.ar    
  18 C18            7.6295    -4.6017    -4.4668 C.ar    
  19 C19            7.0145    -4.8204    -3.2299 C.ar    
  20 C20            6.8958    -3.7706    -2.3191 C.ar    
  21 C21            6.5130    -6.1198    -2.8972 C.1     
  22 C22            6.1017    -7.1850    -2.6245 C.1     
  23 C23            5.6002    -8.4844    -2.2918 C.ar    
  24 N24            5.0166    -8.6851    -1.1141 N.ar    
  25 C25            4.5428    -9.8653    -0.7714 C.ar    
  26 C26            4.6359   -10.9453    -1.6300 C.ar    
  27 C27            5.2378   -10.7811    -2.8705 C.ar    
  28 C28            5.7224    -9.5311    -3.2096 C.ar    
  29 O29            1.1833    -1.6961    -0.3813 O.3     
  30 C30           -0.0920    -2.3362    -0.4572 C.3     
  31 H31           -0.8491     2.3464    -0.4072 H       
  32 H32           -0.9474    -0.1373    -0.4567 H       
  33 H33            1.3340     3.4665    -0.2717 H       
  34 H34            4.8224     1.1412    -1.0925 H       
  35 H35            4.5929     1.2817     0.6675 H       
  36 H36            6.8879     0.4482     0.0158 H       
  37 H37            5.9901    -0.6901     1.0544 H       
  38 H38            5.1290    -2.7191    -2.0963 H       
  39 H39            4.8295    -2.7801    -0.3393 H       
  40 H40            2.8381    -1.8783    -1.4397 H       
  41 H41            3.8194    -0.6649    -2.2969 H       
  42 H42            8.3721    -1.3273    -4.1520 H       
  43 H43            8.5862    -3.1857    -5.7452 H       
  44 H44            7.7265    -5.4142    -5.1717 H       
  45 H45            6.4219    -3.9334    -1.3624 H       
  46 H46            4.0753    -9.9913     0.1940 H       
  47 H47            4.2441   -11.9085    -1.3380 H       
  48 H48            5.3219   -11.6105    -3.5571 H       
  49 H49            6.1959    -9.3682    -4.1665 H       
  50 H50            0.0445    -3.4176    -0.4716 H       
  51 H51           -0.6909    -2.0571     0.4097 H       
  52 H52           -0.6024    -2.0223    -1.3677 H       
@<TRIPOS>BOND
   1    1    2 ar
   2    1    6 ar
   3    1   31 1
   4    2    3 ar
   5    2   32 1
   6    3    4 ar
   7    3   29 1
   8    4    5 ar
   9    4    7 1
  10    5    6 ar
  11    6   33 1
  12    7    8 1
  13    7   12 1
  14    8    9 1
  15    8   34 1
  16    8   35 1
  17    9   10 1
  18    9   36 1
  19    9   37 1
  20   10   11 1
  21   10   13 am
  22   11   12 1
  23   11   38 1
  24   11   39 1
  25   12   40 1
  26   12   41 1
  27   13   14 1
  28   13   15 2
  29   14   16 ar
  30   14   20 ar
  31   16   17 ar
  32   16   42 1
  33   17   18 ar
  34   17   43 1
  35   18   19 ar
  36   18   44 1
  37   19   20 ar
  38   19   21 1
  39   20   45 1
  40   21   22 3
  41   22   23 1
  42   23   24 ar
  43   23   28 ar
  44   24   25 ar
  45   25   26 ar
  46   25   46 1
  47   26   27 ar
  48   26   47 1
  49   27   28 ar
  50   27   48 1
  51   28   49 1
  52   29   30 1
  53   30   50 1
  54   30   51 1
  55   30   52 1

#	End of record

