#	Name: ASD05313067
#	Creating user name:	WinNT
#	Creation time:	15. 06. 2019 20:58

#	Modifying user name:	WinNT
#	Modification time:	15. 06. 2019 20:58

#	Program:	/corina/corina34_cracker 3.40 0067  02.08.2006

@<TRIPOS>MOLECULE
ASD05313067
  37   40    0    0    0
SMALL
NO_CHARGES


@<TRIPOS>ATOM
   1 C1            -0.0733     0.8191     1.0185 C.2     
   2 C2             0.1129    -0.6176     0.5926 C.3     
   3 N3             0.9377     1.7364     1.0446 N.pl3   
   4 N4             1.4568    -0.7167    -0.0079 N.am    
   5 C5             2.5717    -0.0376     0.6693 C.3     
   6 C6             2.3235     1.4757     0.6600 C.3     
   7 N7            -0.9005     2.6456     1.6993 N.2     
   8 N8            -1.1549     1.4136     1.4192 N.2     
   9 C9             0.3779     2.8974     1.4875 C.2     
  10 N10            2.3074     4.5217     1.2128 N.pl3   
  11 C11            1.0665     4.1827     1.6933 C.2     
  12 C12            0.5846     5.2498     2.3951 C.2     
  13 C13            1.5565     6.2599     2.3388 C.2     
  14 C14            2.5958     5.7913     1.6129 C.2     
  15 C15            1.6573    -1.4108    -1.1456 C.2     
  16 O16            2.7493    -1.4002    -1.6797 O.2     
  17 C17            0.5497    -2.1849    -1.7439 C.ar    
  18 C18            0.3180    -2.1290    -3.1205 C.ar    
  19 C19           -0.7200    -2.8559    -3.6725 C.ar    
  20 C20           -1.5279    -3.6365    -2.8639 C.ar    
  21 C21           -1.3027    -3.6947    -1.5000 C.ar    
  22 C22           -0.2662    -2.9796    -0.9369 C.ar    
  23 Cl23          -1.0113    -2.7893    -5.3826 Cl      
  24 Cl24           1.3305    -1.1491    -4.1347 Cl      
  25 H25            0.0433    -1.2747     1.4595 H       
  26 H26           -0.6444    -0.8888    -0.1430 H       
  27 H27            2.6403    -0.3889     1.6988 H       
  28 H28            3.5027    -0.2568     0.1466 H       
  29 H29            2.5039     1.8685    -0.3406 H       
  30 H30            2.9954     1.9593     1.3690 H       
  31 H31            2.8839     3.9510     0.6809 H       
  32 H32           -0.3684     5.3061     2.9002 H       
  33 H33            1.4864     7.2370     2.7934 H       
  34 H34            3.5028     6.3328     1.3879 H       
  35 H35           -2.3380    -4.2025    -3.2996 H       
  36 H36           -1.9373    -4.3056    -0.8751 H       
  37 H37           -0.0894    -3.0305     0.1274 H       
@<TRIPOS>BOND
   1    1    2 1
   2    1    3 1
   3    1    8 2
   4    2    4 1
   5    2   25 1
   6    2   26 1
   7    3    6 1
   8    3    9 1
   9    4    5 1
  10    4   15 am
  11    5    6 1
  12    5   27 1
  13    5   28 1
  14    6   29 1
  15    6   30 1
  16    7    8 1
  17    7    9 2
  18    9   11 1
  19   10   11 1
  20   10   14 1
  21   10   31 1
  22   11   12 2
  23   12   13 1
  24   12   32 1
  25   13   14 2
  26   13   33 1
  27   14   34 1
  28   15   16 2
  29   15   17 1
  30   17   18 ar
  31   17   22 ar
  32   18   19 ar
  33   18   24 1
  34   19   20 ar
  35   19   23 1
  36   20   21 ar
  37   20   35 1
  38   21   22 ar
  39   21   36 1
  40   22   37 1

#	End of record

