#	Name: ASD03430496
#	Creating user name:	WinNT
#	Creation time:	15. 06. 2019 20:41

#	Modifying user name:	WinNT
#	Modification time:	15. 06. 2019 20:41

#	Program:	/corina/corina34_cracker 3.40 0067  02.08.2006

@<TRIPOS>MOLECULE
ASD03430496
  66   71    0    0    0
SMALL
NO_CHARGES


@<TRIPOS>ATOM
   1 N1             0.1561     1.8626     0.3529 N.am    
   2 C2             0.5566     0.8157     1.0938 C.2     
   3 C3             2.0653     0.8923     1.1945 C.3     
   4 C4             2.4239     2.1290     0.4031 C.ar    
   5 C5             3.6231     2.7405     0.1139 C.ar    
   6 C6             3.6434     3.8911    -0.6548 C.ar    
   7 C7             2.4579     4.4221    -1.1296 C.ar    
   8 C8             1.2551     3.8114    -0.8413 C.ar    
   9 C9             1.2266     2.6525    -0.0678 C.ar    
  10 O10           -0.1564    -0.0313     1.5891 O.2     
  11 O11            2.4695     1.0355     2.5576 O.3     
  12 C12           -1.2434     2.1395     0.0197 C.3     
  13 C13           -1.7642     1.0623    -0.8965 C.ar    
  14 C14           -2.8760     1.3014    -1.6824 C.ar    
  15 C15           -3.3538     0.3133    -2.5229 C.ar    
  16 C16           -2.7195    -0.9137    -2.5778 C.ar    
  17 C17           -1.6071    -1.1525    -1.7925 C.ar    
  18 C18           -1.1268    -0.1629    -0.9553 C.ar    
  19 C19           -2.0649     2.1650     1.2829 C.ar    
  20 C20           -2.3259     3.3671     1.9134 C.ar    
  21 C21           -3.0794     3.3905     3.0721 C.ar    
  22 C22           -3.5723     2.2118     3.6000 C.ar    
  23 C23           -3.3120     1.0098     2.9690 C.ar    
  24 C24           -2.5621     0.9868     1.8079 C.ar    
  25 C25            2.6982    -0.3296     0.5802 C.ar    
  26 C26            2.4570    -0.6407    -0.7507 C.ar    
  27 C27            3.0395    -1.7648    -1.3151 C.ar    
  28 C28            3.8620    -2.5758    -0.5481 C.ar    
  29 C29            4.1000    -2.2605     0.7820 C.ar    
  30 C30            3.5226    -1.1361     1.3409 C.ar    
  31 O31            1.6501     0.1558    -1.4998 O.3     
  32 O32            4.4342    -3.6787    -1.0984 O.3     
  33 C33            5.2698    -4.4682    -0.2496 C.3     
  34 C34            5.8116    -5.6399    -1.0271 C.ar    
  35 C35            7.0084    -5.5231    -1.7089 C.ar    
  36 C36            7.5054    -6.5980    -2.4220 C.ar    
  37 C37            6.8057    -7.7898    -2.4531 C.ar    
  38 C38            5.6093    -7.9069    -1.7705 C.ar    
  39 C39            5.1145    -6.8334    -1.0538 C.ar    
  40 H40            4.5467     2.3230     0.4868 H       
  41 H41            4.5824     4.3733    -0.8830 H       
  42 H42            2.4739     5.3203    -1.7292 H       
  43 H43            0.3336     4.2323    -1.2157 H       
  44 H44            2.2107     0.2959     3.1243 H       
  45 H45           -1.3138     3.1061    -0.4791 H       
  46 H46           -3.3716     2.2600    -1.6396 H       
  47 H47           -4.2228     0.4999    -3.1364 H       
  48 H48           -3.0932    -1.6859    -3.2338 H       
  49 H49           -1.1118    -2.1112    -1.8352 H       
  50 H50           -0.2556    -0.3482    -0.3446 H       
  51 H51           -1.9409     4.2880     1.5010 H       
  52 H52           -3.2828     4.3297     3.5651 H       
  53 H53           -4.1604     2.2300     4.5057 H       
  54 H54           -3.6967     0.0889     3.3816 H       
  55 H55           -2.3619     0.0481     1.3128 H       
  56 H56            2.8527    -2.0087    -2.3505 H       
  57 H57            4.7403    -2.8921     1.3800 H       
  58 H58            3.7129    -0.8898     2.3750 H       
  59 H59            2.1161     0.8696    -1.9563 H       
  60 H60            6.0976    -3.8591     0.1135 H       
  61 H61            4.6876    -4.8318     0.5971 H       
  62 H62            7.5551    -4.5920    -1.6846 H       
  63 H63            8.4401    -6.5065    -2.9553 H       
  64 H64            7.1936    -8.6293    -3.0109 H       
  65 H65            5.0625    -8.8379    -1.7951 H       
  66 H66            4.1817    -6.9260    -0.5175 H       
@<TRIPOS>BOND
   1    1    2 am
   2    1    9 1
   3    1   12 1
   4    2    3 1
   5    2   10 2
   6    3    4 1
   7    3   11 1
   8    3   25 1
   9    4    5 ar
  10    4    9 ar
  11    5    6 ar
  12    5   40 1
  13    6    7 ar
  14    6   41 1
  15    7    8 ar
  16    7   42 1
  17    8    9 ar
  18    8   43 1
  19   11   44 1
  20   12   13 1
  21   12   19 1
  22   12   45 1
  23   13   14 ar
  24   13   18 ar
  25   14   15 ar
  26   14   46 1
  27   15   16 ar
  28   15   47 1
  29   16   17 ar
  30   16   48 1
  31   17   18 ar
  32   17   49 1
  33   18   50 1
  34   19   20 ar
  35   19   24 ar
  36   20   21 ar
  37   20   51 1
  38   21   22 ar
  39   21   52 1
  40   22   23 ar
  41   22   53 1
  42   23   24 ar
  43   23   54 1
  44   24   55 1
  45   25   26 ar
  46   25   30 ar
  47   26   27 ar
  48   26   31 1
  49   27   28 ar
  50   27   56 1
  51   28   29 ar
  52   28   32 1
  53   29   30 ar
  54   29   57 1
  55   30   58 1
  56   31   59 1
  57   32   33 1
  58   33   34 1
  59   33   60 1
  60   33   61 1
  61   34   35 ar
  62   34   39 ar
  63   35   36 ar
  64   35   62 1
  65   36   37 ar
  66   36   63 1
  67   37   38 ar
  68   37   64 1
  69   38   39 ar
  70   38   65 1
  71   39   66 1

#	End of record

