#	Name: ASD08150276
#	Creating user name:	WinNT
#	Creation time:	15. 06. 2019 21:15

#	Modifying user name:	WinNT
#	Modification time:	15. 06. 2019 21:15

#	Program:	/corina/corina34_cracker 3.40 0067  02.08.2006

@<TRIPOS>MOLECULE
ASD08150276
  45   45    0    0    0
SMALL
NO_CHARGES


@<TRIPOS>ATOM
   1 C1            -0.0184     1.5028     0.0103 C.2     
   2 C2             0.0021    -0.0041     0.0020 C.3     
   3 C3             1.4513    -0.4944    -0.0145 C.3     
   4 C4             1.4750    -2.0197     0.1029 C.3     
   5 O5             1.0197     2.1211     0.0037 O.2     
   6 O6            -1.1898     2.1580     0.0194 O.3     
   7 O7             0.6689    -2.5895    -0.9304 O.3     
   8 N8             2.0890    -0.0912    -1.2703 N.am    
   9 C9             3.4275     0.0541    -1.3300 C.2     
  10 O10            4.1055    -0.1493    -0.3423 O.2     
  11 O11            4.0136     0.4246    -2.4841 O.3     
  12 C12            5.4591     0.5615    -2.4752 C.3     
  13 C13            6.0960    -0.7787    -2.1024 C.3     
  14 C14            5.9398     0.9859    -3.8643 C.3     
  15 C15            5.8646     1.6218    -1.4493 C.3     
  16 C16           -1.1335     3.6089     0.0270 C.3     
  17 C17           -2.5337     4.1659     0.0367 C.ar    
  18 C18           -3.1703     4.4149     1.2383 C.ar    
  19 C19           -4.4547     4.9258     1.2471 C.ar    
  20 C20           -5.1024     5.1882     0.0544 C.ar    
  21 C21           -4.4656     4.9401    -1.1471 C.ar    
  22 C22           -3.1795     4.4332    -1.1559 C.ar    
  23 H23           -0.4983    -0.3791     0.8948 H       
  24 H24           -0.5153    -0.3696    -0.8850 H       
  25 H25            1.9924    -0.0570     0.8246 H       
  26 H26            2.5002    -2.3760     0.0020 H       
  27 H27            1.0816    -2.3155     1.0754 H       
  28 H28            0.6378    -3.5559    -0.9171 H       
  29 H29            1.5478     0.0711    -2.0587 H       
  30 H30            5.8071    -1.5340    -2.8333 H       
  31 H31            7.1812    -0.6759    -2.0957 H       
  32 H32            5.7536    -1.0810    -1.1128 H       
  33 H33            5.4860     1.9407    -4.1299 H       
  34 H34            7.0249     1.0887    -3.8576 H       
  35 H35            5.6509     0.2305    -4.5952 H       
  36 H36            5.5221     1.3195    -0.4596 H       
  37 H37            6.9497     1.7246    -1.4426 H       
  38 H38            5.4108     2.5766    -1.7149 H       
  39 H39           -0.6017     3.9472     0.9164 H       
  40 H40           -0.6102     3.9569    -0.8636 H       
  41 H41           -2.6642     4.2099     2.1701 H       
  42 H42           -4.9523     5.1197     2.1859 H       
  43 H43           -6.1062     5.5867     0.0614 H       
  44 H44           -4.9718     5.1447    -2.0789 H       
  45 H45           -2.6806     4.2428    -2.0947 H       
@<TRIPOS>BOND
   1    1    2 1
   2    1    5 2
   3    1    6 1
   4    2    3 1
   5    2   23 1
   6    2   24 1
   7    3    4 1
   8    3    8 1
   9    3   25 1
  10    4    7 1
  11    4   26 1
  12    4   27 1
  13    6   16 1
  14    7   28 1
  15    8    9 am
  16    8   29 1
  17    9   10 2
  18    9   11 1
  19   11   12 1
  20   12   13 1
  21   12   15 1
  22   12   14 1
  23   13   30 1
  24   13   31 1
  25   13   32 1
  26   14   33 1
  27   14   34 1
  28   14   35 1
  29   15   36 1
  30   15   37 1
  31   15   38 1
  32   16   17 1
  33   16   39 1
  34   16   40 1
  35   17   18 ar
  36   17   22 ar
  37   18   19 ar
  38   18   41 1
  39   19   20 ar
  40   19   42 1
  41   20   21 ar
  42   20   43 1
  43   21   22 ar
  44   21   44 1
  45   22   45 1

#	End of record

