#	Name: ASD04230142
#	Creating user name:	WinNT
#	Creation time:	15. 06. 2019 20:48

#	Modifying user name:	WinNT
#	Modification time:	15. 06. 2019 20:48

#	Program:	/corina/corina34_cracker 3.40 0067  02.08.2006

@<TRIPOS>MOLECULE
ASD04230142
  43   47    0    0    0
SMALL
NO_CHARGES


@<TRIPOS>ATOM
   1 C1             1.5359     4.6862     1.7200 C.ar    
   2 C2             2.5438     5.3840     2.3698 C.ar    
   3 C3             3.8003     4.8589     2.4684 C.ar    
   4 C4             4.0824     3.6080     1.9006 C.ar    
   5 C5             3.0563     2.8818     1.2694 C.ar    
   6 C6             1.7831     3.4396     1.1728 C.ar    
   7 C7             5.3933     3.0678     1.9623 C.2     
   8 C8             5.6627     1.9284     1.2158 C.2     
   9 C9             4.5671     1.3877     0.3906 C.2     
  10 O10            3.2978     1.6422     0.7795 O.3     
  11 C11            6.9878     1.2871     1.2467 C.2     
  12 N12            7.2188     0.1818     0.5109 N.am    
  13 O13            7.8739     1.7548     1.9362 O.2     
  14 C14            8.5059    -0.3623     0.4514 C.ar    
  15 C15            8.6753    -1.7391     0.3692 C.ar    
  16 C16            9.9457    -2.2807     0.3103 C.ar    
  17 C17           11.0533    -1.4575     0.3332 C.ar    
  18 C18           10.8931    -0.0745     0.4156 C.ar    
  19 C19            9.6133     0.4724     0.4687 C.ar    
  20 C20           12.0819     0.8115     0.4408 C.ar    
  21 O21            4.7981     0.7334    -0.6090 O.2     
  22 O22            0.7868     2.7609     0.5437 O.3     
  23 C23           13.3243     0.2487     0.3766 C.ar    
  24 C24           11.8894     2.2060     0.5245 C.ar    
  25 C25           12.9330     3.0693     0.5511 C.ar    
  26 C26           14.2849     2.5395     0.4920 C.ar    
  27 C27           14.4656     1.0682     0.3989 C.ar    
  28 N28           15.5150     2.9846     0.4905 N.2     
  29 O29           16.2785     2.0422     0.4205 O.3     
  30 N30           15.7700     0.9403     0.3649 N.2     
  31 H31            0.5487     5.1178     1.6445 H       
  32 H32            2.3326     6.3513     2.8011 H       
  33 H33            4.5762     5.4065     2.9828 H       
  34 H34            6.1575     3.5286     2.5705 H       
  35 H35            6.4924    -0.2364     0.0225 H       
  36 H36            7.8120    -2.3878     0.3516 H       
  37 H37           10.0720    -3.3514     0.2465 H       
  38 H38           12.0443    -1.8844     0.2877 H       
  39 H39            9.4839     1.5427     0.5326 H       
  40 H40            0.2742     2.1848     1.1271 H       
  41 H41           13.4297    -0.8240     0.3092 H       
  42 H42           10.8832     2.5960     0.5682 H       
  43 H43           12.7631     4.1340     0.6148 H       
@<TRIPOS>BOND
   1    1    2 ar
   2    1    6 ar
   3    1   31 1
   4    2    3 ar
   5    2   32 1
   6    3    4 ar
   7    3   33 1
   8    4    5 ar
   9    4    7 1
  10    5    6 ar
  11    5   10 1
  12    6   22 1
  13    7    8 2
  14    7   34 1
  15    8    9 1
  16    8   11 1
  17    9   10 1
  18    9   21 2
  19   11   12 am
  20   11   13 2
  21   12   14 1
  22   12   35 1
  23   14   15 ar
  24   14   19 ar
  25   15   16 ar
  26   15   36 1
  27   16   17 ar
  28   16   37 1
  29   17   18 ar
  30   17   38 1
  31   18   19 ar
  32   18   20 1
  33   19   39 1
  34   20   24 ar
  35   20   23 ar
  36   22   40 1
  37   23   27 ar
  38   23   41 1
  39   24   25 ar
  40   24   42 1
  41   25   26 ar
  42   25   43 1
  43   26   27 ar
  44   26   28 2
  45   27   30 2
  46   28   29 1
  47   29   30 1

#	End of record

