#	Name: ASD03090660
#	Creating user name:	WinNT
#	Creation time:	15. 06. 2019 20:29

#	Modifying user name:	WinNT
#	Modification time:	15. 06. 2019 20:29

#	Program:	/corina/corina34_cracker 3.40 0067  02.08.2006

@<TRIPOS>MOLECULE
ASD03090660
  36   37    0    0    0
SMALL
NO_CHARGES


@<TRIPOS>ATOM
   1 N1            -0.0162     1.3436     0.0094 N.am    
   2 C2             0.0191     0.1476     0.6298 C.2     
   3 O3             1.0725    -0.2857     1.0555 O.2     
   4 N4            -1.1132    -0.5682     0.7782 N.am    
   5 N5            -1.0765    -1.8115     1.4231 N.pl3   
   6 N6            -2.1709    -2.6573     1.6450 N.2     
   7 C7            -1.7436    -3.7221     2.2740 C.2     
   8 C8            -0.3655    -3.5887     2.4725 C.2     
   9 C9             0.0202    -2.4083     1.9349 C.2     
  10 C10            0.5322    -4.5860     3.1584 C.3     
  11 F11           -0.2255    -5.6856     3.5756 F       
  12 F12            1.5220    -5.0131     2.2668 F       
  13 F13            1.1333    -3.9853     4.2697 F       
  14 C14            1.1456     2.1272    -0.0706 C.ar    
  15 C15            1.0458     3.5106    -0.1990 C.ar    
  16 C16            2.1935     4.2815    -0.2778 C.ar    
  17 C17            3.4400     3.6754    -0.2287 C.ar    
  18 C18            3.5382     2.2971    -0.1008 C.ar    
  19 C19            2.3936     1.5255    -0.0161 C.ar    
  20 O20            4.5671     4.4325    -0.3065 O.3     
  21 C21            4.3922     5.8447    -0.4377 C.3     
  22 O22           -0.1772     4.1034    -0.2474 O.3     
  23 C23           -0.2039     5.5260    -0.3799 C.3     
  24 Cl24           5.0998     1.5412    -0.0396 Cl      
  25 H25           -0.8435     1.6610    -0.3852 H       
  26 H26           -1.9535    -0.2226     0.4386 H       
  27 H27           -2.3503    -4.5592     2.5863 H       
  28 H28            1.0254    -2.0134     1.9203 H       
  29 H29            2.1179     5.3542    -0.3777 H       
  30 H30            2.4718     0.4533     0.0879 H       
  31 H31            3.8324     6.0585    -1.3481 H       
  32 H32            3.8433     6.2244     0.4241 H       
  33 H33            5.3677     6.3283    -0.4889 H       
  34 H34            0.3081     5.9796     0.4688 H       
  35 H35            0.2982     5.8143    -1.3035 H       
  36 H36           -1.2381     5.8692    -0.4061 H       
@<TRIPOS>BOND
   1    1    2 am
   2    1   14 1
   3    1   25 1
   4    2    3 2
   5    2    4 am
   6    4    5 1
   7    4   26 1
   8    5    6 1
   9    5    9 1
  10    6    7 2
  11    7    8 1
  12    7   27 1
  13    8    9 2
  14    8   10 1
  15    9   28 1
  16   10   11 1
  17   10   12 1
  18   10   13 1
  19   14   15 ar
  20   14   19 ar
  21   15   16 ar
  22   15   22 1
  23   16   17 ar
  24   16   29 1
  25   17   18 ar
  26   17   20 1
  27   18   19 ar
  28   18   24 1
  29   19   30 1
  30   20   21 1
  31   21   31 1
  32   21   32 1
  33   21   33 1
  34   22   23 1
  35   23   34 1
  36   23   35 1
  37   23   36 1

#	End of record

