#	Name: ASD01911283
#	Creating user name:	WinNT
#	Creation time:	15. 06. 2019 19:57

#	Modifying user name:	WinNT
#	Modification time:	15. 06. 2019 19:57

#	Program:	/corina/corina34_cracker 3.40 0067  02.08.2006

@<TRIPOS>MOLECULE
ASD01911283
  42   45    0    0    0
SMALL
NO_CHARGES


@<TRIPOS>ATOM
   1 C1            -0.0212     1.3908    -0.2325 C.ar    
   2 C2             0.0224     0.0114    -0.1325 C.ar    
   3 C3            -1.1459    -0.7081     0.0260 C.ar    
   4 C4            -2.3651    -0.0458     0.0850 C.ar    
   5 C5            -2.4060     1.3390    -0.0156 C.ar    
   6 C6            -1.2345     2.0538    -0.1687 C.ar    
   7 C7            -1.0977    -2.2104     0.1344 C.3     
   8 N8            -3.5499    -0.7720     0.2450 N.am    
   9 C9            -4.7274    -0.2300    -0.1238 C.2     
  10 C10           -5.9926    -0.9493     0.1522 C.ar    
  11 O11           -4.7513     0.8488    -0.6829 O.2     
  12 C12           -7.2064    -0.3839    -0.2315 C.ar    
  13 C13           -8.3820    -1.0689     0.0337 C.ar    
  14 C14           -8.3023    -2.2957     0.6734 C.ar    
  15 C15           -7.0600    -2.7983     1.0268 C.ar    
  16 N16           -5.9598    -2.1299     0.7584 N.ar    
  17 N17           -1.3796    -2.8037    -1.1751 N.am    
  18 C18           -0.4615    -2.9876    -2.1410 C.2     
  19 C19           -1.1230    -3.6085    -3.3073 C.ar    
  20 C20           -2.4762    -3.7666    -2.9444 C.ar    
  21 C21           -2.5895    -3.2416    -1.5677 C.2     
  22 C22           -0.6921    -4.0182    -4.5590 C.ar    
  23 C23           -1.5962    -4.5818    -5.4471 C.ar    
  24 C24           -2.9257    -4.7366    -5.0907 C.ar    
  25 C25           -3.3695    -4.3307    -3.8410 C.ar    
  26 O26            0.7142    -2.6922    -2.0669 O.2     
  27 O27           -3.6063    -3.2046    -0.9045 O.2     
  28 Cl28           1.4492     2.2920    -0.4310 Cl      
  29 Cl29          -4.0435    -5.4429    -6.2156 Cl      
  30 Cl30          -1.0583    -5.0956    -7.0156 Cl      
  31 H31            0.9708    -0.5032    -0.1788 H       
  32 H32           -3.3528     1.8565     0.0299 H       
  33 H33           -1.2657     3.1305    -0.2470 H       
  34 H34           -0.1068    -2.5190     0.4674 H       
  35 H35           -1.8440    -2.5469     0.8540 H       
  36 H36           -3.5239    -1.6656     0.6215 H       
  37 H37           -7.2312     0.5748    -0.7282 H       
  38 H38           -9.3382    -0.6558    -0.2515 H       
  39 H39           -9.1997    -2.8545     0.8948 H       
  40 H40           -6.9943    -3.7540     1.5255 H       
  41 H41            0.3433    -3.8990    -4.8419 H       
  42 H42           -4.4071    -4.4539    -3.5677 H       
@<TRIPOS>BOND
   1    1    2 ar
   2    1   28 1
   3    1    6 ar
   4    2    3 ar
   5    2   31 1
   6    3    7 1
   7    3    4 ar
   8    4    5 ar
   9    4    8 1
  10    5    6 ar
  11    5   32 1
  12    6   33 1
  13    7   17 1
  14    7   34 1
  15    7   35 1
  16    8    9 am
  17    8   36 1
  18    9   10 1
  19    9   11 2
  20   10   12 ar
  21   10   16 ar
  22   12   13 ar
  23   12   37 1
  24   13   14 ar
  25   13   38 1
  26   14   15 ar
  27   14   39 1
  28   15   16 ar
  29   15   40 1
  30   17   18 am
  31   17   21 am
  32   18   19 1
  33   18   26 2
  34   19   20 ar
  35   19   22 ar
  36   20   21 1
  37   20   25 ar
  38   21   27 2
  39   22   23 ar
  40   22   41 1
  41   23   24 ar
  42   23   30 1
  43   24   25 ar
  44   24   29 1
  45   25   42 1

#	End of record

