#	Name: ASD01813146
#	Creating user name:	WinNT
#	Creation time:	15. 06. 2019 19:29

#	Modifying user name:	WinNT
#	Modification time:	15. 06. 2019 19:29

#	Program:	/corina/corina34_cracker 3.40 0067  02.08.2006

@<TRIPOS>MOLECULE
ASD01813146
  41   44    0    0    0
SMALL
NO_CHARGES


@<TRIPOS>ATOM
   1 C1            -0.0178     1.4608     0.0101 C.3     
   2 N2             0.0021    -0.0041     0.0020 N.pl3   
   3 C3             0.0078    -0.7885    -1.0945 C.2     
   4 C4             0.0282    -2.0861    -0.6736 C.2     
   5 C5             0.0349    -2.0759     0.7348 C.2     
   6 N6             0.0245    -0.8309     1.1317 N.2     
   7 C7             0.0409    -3.2902    -1.5423 C.ar    
   8 C8             0.0380    -3.1518    -2.9283 C.ar    
   9 C9             0.0504    -4.2737    -3.7327 C.ar    
  10 C10            0.0652    -5.5345    -3.1656 C.ar    
  11 C11            0.0786    -6.7554    -4.0489 C.3     
  12 N12            1.4233    -7.3469    -4.0463 N.3     
  13 C13            2.4432    -6.3477    -4.4378 C.3     
  14 C14            3.5089    -7.1212    -5.1804 C.ar    
  15 C15            4.8164    -6.8112    -5.5006 C.ar    
  16 C16            5.5903    -7.7169    -6.2024 C.ar    
  17 C17            5.0560    -8.9334    -6.5833 C.ar    
  18 C18            3.7475    -9.2446    -6.2626 C.ar    
  19 C19            2.9735    -8.3401    -5.5620 C.ar    
  20 C20            1.5418    -8.3998    -5.0804 C.3     
  21 C21            0.0681    -5.6791    -1.7875 C.ar    
  22 F22            0.0826    -6.9135    -1.2385 F       
  23 C23            0.0616    -4.5616    -0.9739 C.ar    
  24 H24            1.0048     1.8381     0.0023 H       
  25 H25           -0.5450     1.8219    -0.8730 H       
  26 H26           -0.5280     1.8123     0.9069 H       
  27 H27           -0.0020    -0.4508    -2.1203 H       
  28 H28            0.0502    -2.9454     1.3751 H       
  29 H29            0.0258    -2.1678    -3.3733 H       
  30 H30            0.0481    -4.1663    -4.8074 H       
  31 H31           -0.6395    -7.4840    -3.6727 H       
  32 H32           -0.1912    -6.4710    -5.0660 H       
  33 H33            2.0014    -5.5944    -5.0901 H       
  34 H34            2.8684    -5.8766    -3.5516 H       
  35 H35            5.2341    -5.8607    -5.2031 H       
  36 H36            6.6122    -7.4736    -6.4532 H       
  37 H37            5.6604    -9.6406    -7.1317 H       
  38 H38            3.3303   -10.1951    -6.5606 H       
  39 H39            1.3305    -9.3777    -4.6479 H       
  40 H40            0.8584    -8.1964    -5.9049 H       
  41 H41            0.0684    -4.6741     0.1002 H       
@<TRIPOS>BOND
   1    1    2 1
   2    1   24 1
   3    1   25 1
   4    1   26 1
   5    2    6 1
   6    2    3 1
   7    3    4 2
   8    3   27 1
   9    4    5 1
  10    4    7 1
  11    5    6 2
  12    5   28 1
  13    7   23 ar
  14    7    8 ar
  15    8    9 ar
  16    8   29 1
  17    9   10 ar
  18    9   30 1
  19   10   11 1
  20   10   21 ar
  21   11   12 1
  22   11   31 1
  23   11   32 1
  24   12   20 1
  25   12   13 1
  26   13   14 1
  27   13   33 1
  28   13   34 1
  29   14   19 ar
  30   14   15 ar
  31   15   16 ar
  32   15   35 1
  33   16   17 ar
  34   16   36 1
  35   17   18 ar
  36   17   37 1
  37   18   19 ar
  38   18   38 1
  39   19   20 1
  40   20   39 1
  41   20   40 1
  42   21   22 1
  43   21   23 ar
  44   23   41 1

#	End of record

