#	Name: ASD07480012
#	Creating user name:	WinNT
#	Creation time:	15. 06. 2019 21:11

#	Modifying user name:	WinNT
#	Modification time:	15. 06. 2019 21:11

#	Program:	/corina/corina34_cracker 3.40 0067  02.08.2006

@<TRIPOS>MOLECULE
ASD07480012
  52   55    0    0    0
SMALL
NO_CHARGES


@<TRIPOS>ATOM
   1 C1             1.3534     0.0659    -1.1019 C.2     
   2 C2             0.6870    -1.1264    -0.7543 C.2     
   3 N3             1.3401    -2.2763    -0.7727 N.2     
   4 C4             2.6271    -2.3239    -1.1175 C.2     
   5 N5             3.3037    -1.1881    -1.4601 N.pl3   
   6 C6             2.6594     0.0164    -1.4516 C.2     
   7 C7             3.5440    -3.3885    -1.2203 C.2     
   8 C8             4.7705    -2.8333    -1.6326 C.2     
   9 N9             4.6211    -1.5434    -1.7709 N.2     
  10 N10           -0.6466    -1.0938    -0.3942 N.pl3   
  11 C11           -1.4592    -2.2575    -0.0106 C.3     
  12 C12           -1.4887     0.1143    -0.3250 C.3     
  13 C13           -2.9386    -0.4024    -0.4989 C.3     
  14 C14           -2.8853    -1.7445     0.2805 C.3     
  15 C15           -0.8834    -2.8998     1.2250 C.ar    
  16 C16           -1.0663    -4.2489     1.4619 C.ar    
  17 N17           -0.5661    -4.8194     2.5405 N.ar    
  18 C18            0.1236    -4.1345     3.4313 C.ar    
  19 C19            0.3480    -2.7787     3.2620 C.ar    
  20 C20           -0.1589    -2.1456     2.1351 C.ar    
  21 F21            1.0555    -2.0823     4.1784 F       
  22 C22            3.2732    -4.8020    -0.9501 C.2     
  23 N23            4.2544    -5.7151    -1.0915 N.am    
  24 O24            2.1619    -5.1524    -0.5977 O.2     
  25 C25            3.9836    -7.1293    -0.8212 C.3     
  26 C26            4.9686    -7.9966    -1.6077 C.3     
  27 C27            4.1457    -7.4025     0.6754 C.3     
  28 C28           -1.3268     0.7990     1.0336 C.3     
  29 O29           -1.8501    -0.0476     2.0591 O.3     
  30 H30            0.8260     1.0084    -1.0936 H       
  31 H31            3.1870     0.9195    -1.7207 H       
  32 H32            5.6837    -3.3832    -1.8059 H       
  33 H33           -1.4819    -2.9792    -0.8271 H       
  34 H34           -1.2319     0.8023    -1.1305 H       
  35 H35           -3.6547     0.2832    -0.0459 H       
  36 H36           -3.1707    -0.5683    -1.5509 H       
  37 H37           -3.6316    -2.4417    -0.1005 H       
  38 H38           -3.0232    -1.5760     1.3485 H       
  39 H39           -1.6262    -4.8434     0.7551 H       
  40 H40            0.5175    -4.6363     4.3027 H       
  41 H41            0.0002    -1.0894     1.9756 H       
  42 H42            5.1399    -5.4359    -1.3723 H       
  43 H43            2.9649    -7.3688    -1.1260 H       
  44 H44            5.9873    -7.7570    -1.3028 H       
  45 H45            4.7670    -9.0487    -1.4065 H       
  46 H46            4.8530    -7.8019    -2.6739 H       
  47 H47            5.1645    -7.1630     0.9802 H       
  48 H48            3.4440    -6.7846     1.2357 H       
  49 H49            3.9442    -8.4547     0.8766 H       
  50 H50           -0.2698     0.9872     1.2220 H       
  51 H51           -1.8693     1.7444     1.0310 H       
  52 H52           -1.7806     0.3238     2.9492 H       
@<TRIPOS>BOND
   1    1    2 1
   2    1    6 2
   3    1   30 1
   4    2    3 2
   5    2   10 1
   6    3    4 1
   7    4    5 1
   8    4    7 2
   9    5    6 1
  10    5    9 1
  11    6   31 1
  12    7    8 1
  13    7   22 1
  14    8    9 2
  15    8   32 1
  16   10   11 1
  17   10   12 1
  18   11   15 1
  19   11   14 1
  20   11   33 1
  21   12   13 1
  22   12   28 1
  23   12   34 1
  24   13   14 1
  25   13   35 1
  26   13   36 1
  27   14   37 1
  28   14   38 1
  29   15   16 ar
  30   15   20 ar
  31   16   17 ar
  32   16   39 1
  33   17   18 ar
  34   18   19 ar
  35   18   40 1
  36   19   20 ar
  37   19   21 1
  38   20   41 1
  39   22   23 am
  40   22   24 2
  41   23   25 1
  42   23   42 1
  43   25   26 1
  44   25   27 1
  45   25   43 1
  46   26   44 1
  47   26   45 1
  48   26   46 1
  49   27   47 1
  50   27   48 1
  51   27   49 1
  52   28   29 1
  53   28   50 1
  54   28   51 1
  55   29   52 1

#	End of record

