#	Name: ASD00060031
#	Creating user name:	WinNT
#	Creation time:	15. 06. 2019 18:29

#	Modifying user name:	WinNT
#	Modification time:	15. 06. 2019 18:29

#	Program:	/corina/corina34_cracker 3.40 0067  02.08.2006

@<TRIPOS>MOLECULE
ASD00060031
  32   35    0    0    0
SMALL
NO_CHARGES


@<TRIPOS>ATOM
   1 C1            -0.0165     1.3678     0.0096 C.ar    
   2 C2             0.0021    -0.0041     0.0020 C.ar    
   3 C3             1.2065    -0.6940    -0.0132 C.ar    
   4 C4             2.3970     0.0002    -0.0209 C.ar    
   5 C5             2.3957     1.3928    -0.0130 C.ar    
   6 C6             1.1898     2.0994     0.0020 C.ar    
   7 S7             3.7212     2.5537    -0.0175 S.3     
   8 C8             2.5736     3.8854     0.0013 C.2     
   9 N9             1.3656     3.4364     0.0090 N.2     
  10 Cl10           1.2131    -2.4300    -0.0220 Cl      
  11 N11            2.9176     5.2220     0.0063 N.am    
  12 S12            1.7351     6.3812     0.0244 S.o2    
  13 O13            2.4029     7.6351     0.0606 O.2     
  14 O14            0.8073     6.0239    -0.9908 O.2     
  15 C15            0.8789     6.2291     1.5568 C.2     
  16 S16           -0.5251     5.2097     1.8069 S.3     
  17 C17            1.2164     6.8629     2.6623 C.2     
  18 C18            0.3676     6.5862     3.8099 C.ar    
  19 C19           -0.6520     5.6830     3.4962 C.ar    
  20 C20            0.4489     7.0908     5.1254 C.ar    
  21 C21           -0.4526     6.7046     6.0695 C.ar    
  22 C22           -1.4652     5.8089     5.7548 C.ar    
  23 C23           -1.5672     5.3000     4.4814 C.ar    
  24 H24           -0.9612     1.8913     0.0169 H       
  25 H25           -0.9286    -0.5520     0.0084 H       
  26 H26            3.3336    -0.5373    -0.0328 H       
  27 H27            3.8520     5.4824    -0.0008 H       
  28 H28            2.0593     7.5363     2.7119 H       
  29 H29            1.2319     7.7878     5.3850 H       
  30 H30           -0.3790     7.0983     7.0725 H       
  31 H31           -2.1741     5.5095     6.5126 H       
  32 H32           -2.3570     4.6037     4.2414 H       
@<TRIPOS>BOND
   1    1    2 ar
   2    1    6 ar
   3    1   24 1
   4    2    3 ar
   5    2   25 1
   6    3    4 ar
   7    3   10 1
   8    4    5 ar
   9    4   26 1
  10    5    6 ar
  11    5    7 1
  12    6    9 1
  13    7    8 1
  14    8    9 2
  15    8   11 1
  16   11   12 am
  17   11   27 1
  18   12   13 2
  19   12   14 2
  20   12   15 1
  21   15   16 1
  22   15   17 2
  23   16   19 1
  24   17   18 1
  25   17   28 1
  26   18   19 ar
  27   18   20 ar
  28   19   23 ar
  29   20   21 ar
  30   20   29 1
  31   21   22 ar
  32   21   30 1
  33   22   23 ar
  34   22   31 1
  35   23   32 1

#	End of record

