#	Name: ASD01170010
#	Creating user name:	WinNT
#	Creation time:	15. 06. 2019 19:06

#	Modifying user name:	WinNT
#	Modification time:	15. 06. 2019 19:06

#	Program:	/corina/corina34_cracker 3.40 0067  02.08.2006

@<TRIPOS>MOLECULE
ASD01170010
  60   62    0    0    0
SMALL
NO_CHARGES


@<TRIPOS>ATOM
   1 Cl1            3.9986     4.7014    -3.1702 Cl      
   2 C2            -0.1187     1.3728    -0.3829 C.2     
   3 N3             0.1218     0.0695    -0.1379 N.am    
   4 C4            -0.8649    -0.7335     0.5887 C.3     
   5 N5            -2.0942    -0.9244     2.6988 N.3     
   6 C6             0.8982     2.1953    -1.0711 C.ar    
   7 C7            -1.0898    -0.1321     1.9779 C.3     
   8 O8            -1.1741     1.8706    -0.0422 O.2     
   9 C9             2.2412     2.1038    -0.7008 C.ar    
  10 C10            0.5204     3.0624    -2.0979 C.ar    
  11 C11           -2.2351    -0.4599     4.0853 C.3     
  12 C12            2.8040     3.7358    -2.3614 C.ar    
  13 C13            1.3698    -0.5442    -0.5983 C.3     
  14 C14            3.1856     2.8734    -1.3469 C.ar    
  15 C15            1.4738     3.8270    -2.7367 C.ar    
  16 C16           -3.0943    -1.4526     4.8710 C.3     
  17 C17           -3.2388    -0.9761     6.2933 C.ar    
  18 C18           -3.3871    -0.9030     2.0027 C.3     
  19 C19            2.3251    -0.7072     0.5856 C.3     
  20 C20           -2.1884    -0.7365    -0.1812 C.3     
  21 C21           -3.2307    -1.5274     0.6143 C.3     
  22 O22            4.5746    -1.3540     1.1873 O.3     
  23 C23            3.6823    -1.2018     0.0815 C.3     
  24 C24           -4.2889    -0.1471     6.6412 C.ar    
  25 C25           -2.3245    -1.3725     7.2514 C.ar    
  26 C26            5.8776    -1.8144     0.8237 C.3     
  27 C27           -2.4571    -0.9354     8.5560 C.ar    
  28 C28           -4.4215     0.2901     7.9459 C.ar    
  29 C29           -3.5037    -0.1015     8.9026 C.ar    
  30 H30           -0.4994    -1.7554     0.6894 H       
  31 H31           -0.1523    -0.1416     2.5339 H       
  32 H32           -1.4415     0.8946     1.8766 H       
  33 H33            2.5399     1.4320     0.0903 H       
  34 H34           -0.5164     3.1341    -2.3917 H       
  35 H35           -1.2500    -0.3877     4.5462 H       
  36 H36           -2.7127     0.5199     4.0935 H       
  37 H37            1.1562    -1.5220    -1.0301 H       
  38 H38            1.8314     0.0930    -1.3526 H       
  39 H39            4.2248     2.8038    -1.0611 H       
  40 H40            1.1828     4.4979    -3.5314 H       
  41 H41           -4.0794    -1.5248     4.4101 H       
  42 H42           -2.6167    -2.4324     4.8628 H       
  43 H43           -4.1181    -1.4724     2.5768 H       
  44 H44           -3.7279     0.1273     1.9013 H       
  45 H45            2.4512     0.2531     1.0856 H       
  46 H46            1.9126    -1.4312     1.2883 H       
  47 H47           -2.5339     0.2885    -0.3159 H       
  48 H48           -2.0422    -1.2036    -1.1551 H       
  49 H49           -2.9031    -2.5621     0.7153 H       
  50 H50           -4.1869    -1.4972     0.0919 H       
  51 H51            3.5562    -2.1621    -0.4185 H       
  52 H52            4.0948    -0.4777    -0.6212 H       
  53 H53           -5.0055     0.1593     5.8936 H       
  54 H54           -1.5068    -2.0240     6.9806 H       
  55 H55            5.7970    -2.7874     0.3391 H       
  56 H56            6.3356    -1.1030     0.1364 H       
  57 H57            6.4940    -1.9038     1.7182 H       
  58 H58           -1.7432    -1.2457     9.3047 H       
  59 H59           -5.2417     0.9380     8.2176 H       
  60 H60           -3.6075     0.2398     9.9220 H       
@<TRIPOS>BOND
   1    1   12 1
   2    2    3 am
   3    2    6 1
   4    2    8 2
   5    3    4 1
   6    3   13 1
   7    4    7 1
   8    4   20 1
   9    4   30 1
  10    5    7 1
  11    5   11 1
  12    5   18 1
  13    6    9 ar
  14    6   10 ar
  15    7   31 1
  16    7   32 1
  17    9   14 ar
  18    9   33 1
  19   10   15 ar
  20   10   34 1
  21   11   16 1
  22   11   35 1
  23   11   36 1
  24   12   14 ar
  25   12   15 ar
  26   13   19 1
  27   13   37 1
  28   13   38 1
  29   14   39 1
  30   15   40 1
  31   16   17 1
  32   16   41 1
  33   16   42 1
  34   17   24 ar
  35   17   25 ar
  36   18   21 1
  37   18   43 1
  38   18   44 1
  39   19   23 1
  40   19   45 1
  41   19   46 1
  42   20   21 1
  43   20   47 1
  44   20   48 1
  45   21   49 1
  46   21   50 1
  47   22   23 1
  48   22   26 1
  49   23   51 1
  50   23   52 1
  51   24   28 ar
  52   24   53 1
  53   25   27 ar
  54   25   54 1
  55   26   55 1
  56   26   56 1
  57   26   57 1
  58   27   29 ar
  59   27   58 1
  60   28   29 ar
  61   28   59 1
  62   29   60 1

#	End of record

