#	Name: ASD00960207
#	Creating user name:	WinNT
#	Creation time:	15. 06. 2019 18:53

#	Modifying user name:	WinNT
#	Modification time:	15. 06. 2019 18:53

#	Program:	/corina/corina34_cracker 3.40 0067  02.08.2006

@<TRIPOS>MOLECULE
ASD00960207
  46   49    0    0    0
SMALL
NO_CHARGES


@<TRIPOS>ATOM
   1 C1             0.0601     1.3555     0.4174 C.2     
   2 C2             0.0461    -0.0340     0.2048 C.2     
   3 N3             1.3471     1.7859     0.3191 N.pl3   
   4 C4             2.1554     0.7102     0.0498 C.2     
   5 C5             1.3666    -0.4276    -0.0248 C.2     
   6 N6             1.9374     3.0525     0.4383 N.2     
   7 C7             3.2297     3.1897     0.2935 C.2     
   8 N8             4.0251     2.1577     0.0326 N.2     
   9 C9             3.5483     0.9312    -0.0938 C.2     
  10 N10            4.3968    -0.1220    -0.3642 N.pl3   
  11 C11           -1.1406    -0.9119     0.2216 C.2     
  12 N12           -1.0037    -2.2343     0.0000 N.am    
  13 O13           -2.2414    -0.4421     0.4353 O.2     
  14 C14           -2.1114    -3.0803     0.1120 C.ar    
  15 C15           -3.3682    -2.6370    -0.2792 C.ar    
  16 C16           -4.4602    -3.4751    -0.1673 C.ar    
  17 C17           -4.3033    -4.7544     0.3337 C.ar    
  18 C18           -3.0535    -5.1988     0.7245 C.ar    
  19 C19           -1.9563    -4.3679     0.6094 C.ar    
  20 C20           -1.1066     2.1937     0.6904 C.2     
  21 O21           -2.2142     1.6940     0.7497 O.2     
  22 O22           -0.9547     3.5216     0.8764 O.3     
  23 C23           -2.1374     4.2794     1.1390 C.3     
  24 C24           -1.7745     5.7311     1.3182 C.ar    
  25 C25           -1.7528     6.5780     0.2258 C.ar    
  26 C26           -1.4198     7.9095     0.3902 C.ar    
  27 C27           -1.1091     8.3943     1.6469 C.ar    
  28 C28           -1.1317     7.5476     2.7394 C.ar    
  29 C29           -1.4689     6.2170     2.5757 C.ar    
  30 H30            1.7097    -1.4323    -0.2231 H       
  31 H31            3.6646     4.1736     0.3888 H       
  32 H32            5.3489     0.0353    -0.4626 H       
  33 H33            4.0415    -1.0198    -0.4559 H       
  34 H34           -0.1367    -2.5991    -0.2371 H       
  35 H35           -3.4914    -1.6378    -0.6702 H       
  36 H36           -5.4377    -3.1308    -0.4710 H       
  37 H37           -5.1588    -5.4078     0.4202 H       
  38 H38           -2.9344    -6.1983     1.1160 H       
  39 H39           -0.9805    -4.7155     0.9148 H       
  40 H40           -2.8273     4.1781     0.3012 H       
  41 H41           -2.6122     3.9088     2.0475 H       
  42 H42           -1.9955     6.1993    -0.7560 H       
  43 H43           -1.4021     8.5710    -0.4633 H       
  44 H44           -0.8483     9.4344     1.7752 H       
  45 H45           -0.8886     7.9262     3.7212 H       
  46 H46           -1.4902     5.5563     3.4298 H       
@<TRIPOS>BOND
   1    1    2 2
   2    1    3 1
   3    1   20 1
   4    2   11 1
   5    2    5 1
   6    3    4 1
   7    3    6 1
   8    4    5 2
   9    4    9 1
  10    5   30 1
  11    6    7 2
  12    7    8 1
  13    7   31 1
  14    8    9 2
  15    9   10 1
  16   10   32 1
  17   10   33 1
  18   11   12 am
  19   11   13 2
  20   12   14 1
  21   12   34 1
  22   14   15 ar
  23   14   19 ar
  24   15   16 ar
  25   15   35 1
  26   16   17 ar
  27   16   36 1
  28   17   18 ar
  29   17   37 1
  30   18   19 ar
  31   18   38 1
  32   19   39 1
  33   20   21 2
  34   20   22 1
  35   22   23 1
  36   23   24 1
  37   23   40 1
  38   23   41 1
  39   24   25 ar
  40   24   29 ar
  41   25   26 ar
  42   25   42 1
  43   26   27 ar
  44   26   43 1
  45   27   28 ar
  46   27   44 1
  47   28   29 ar
  48   28   45 1
  49   29   46 1

#	End of record

