#	Name: ASD01140664
#	Creating user name:	WinNT
#	Creation time:	15. 06. 2019 19:01

#	Modifying user name:	WinNT
#	Modification time:	15. 06. 2019 19:01

#	Program:	/corina/corina34_cracker 3.40 0067  02.08.2006

@<TRIPOS>MOLECULE
ASD01140664
  63   67    0    0    0
SMALL
NO_CHARGES


@<TRIPOS>ATOM
   1 C1            -0.0680     1.5269     0.1870 C.2     
   2 C2             0.3452     0.6422    -0.9608 C.3     
   3 N3             1.7793    -1.1086    -0.0559 N.2     
   4 N4             1.6359     0.0191    -0.6571 N.pl3   
   5 N5             2.7797     0.5252    -0.9557 N.2     
   6 C6             3.7228    -0.2902    -0.5411 C.2     
   7 C7             3.0626    -1.3683     0.0527 C.2     
   8 C8            -4.1885     8.5066    -3.1624 C.3     
   9 C9            -3.2476     7.5508    -3.8987 C.3     
  10 C10           -1.8032     7.8329    -3.4807 C.3     
  11 C11           -4.0445     8.3000    -1.6531 C.3     
  12 C12           -2.6004     8.5832    -1.2347 C.3     
  13 C13           -2.4566     8.3809     0.2747 C.3     
  14 C14           -2.8050     6.9349     0.6336 C.3     
  15 C15           -1.8559     5.9856    -0.0994 C.3     
  16 C16           -2.2117     4.5430     0.2060 C.3     
  17 C17           -2.0479     4.1084     1.6665 C.3     
  18 C18           -1.8944     2.5668     1.5550 C.3     
  19 C19           -1.3705     2.2823     0.1252 C.3     
  20 C20           -1.1565     3.6539    -0.5062 C.3     
  21 C21            0.2503     4.1594    -0.1805 C.3     
  22 C22           -1.4060     3.7600    -1.9978 C.3     
  23 C23           -1.1394     5.2194    -2.4034 C.3     
  24 C24           -2.0171     6.1848    -1.6146 C.3     
  25 C25           -1.6591     7.6280    -1.9715 C.3     
  26 C26           -5.6328     8.2236    -3.5805 C.3     
  27 O27           -3.8520     9.8554    -3.4930 O.3     
  28 H28           -0.6303     7.8307    -1.6740 H       
  29 H29           -3.0595     6.0145    -1.8839 H       
  30 H30           -0.8285     6.1840     0.2059 H       
  31 H31           -3.2184     4.3182    -0.1464 H       
  32 O32            0.6424     1.6268     1.1585 O.2     
  33 H33           -2.3439     9.6116    -1.4891 H       
  34 H34           -0.4062    -0.1331    -1.1107 H       
  35 H35            0.4352     1.2410    -1.8671 H       
  36 H36            4.7897    -0.1547    -0.6396 H       
  37 H37            3.5144    -2.2373     0.5078 H       
  38 H38           -3.5045     6.5220    -3.6463 H       
  39 H39           -3.3498     7.6973    -4.9740 H       
  40 H40           -1.1335     7.1514    -4.0053 H       
  41 H41           -1.5460     8.8614    -3.7338 H       
  42 H42           -4.7149     8.9801    -1.1278 H       
  43 H43           -4.3005     7.2709    -1.4012 H       
  44 H44           -1.4296     8.5915     0.5730 H       
  45 H45           -3.1323     9.0576     0.7978 H       
  46 H46           -2.7022     6.7925     1.7093 H       
  47 H47           -3.8319     6.7238     0.3354 H       
  48 H48           -1.1546     4.5543     2.1038 H       
  49 H49           -2.9333     4.3668     2.2474 H       
  50 H50           -1.1783     2.2078     2.2942 H       
  51 H51           -2.8599     2.0831     1.7029 H       
  52 H52           -2.1095     1.7165    -0.4422 H       
  53 H53            0.4069     4.1285     0.8978 H       
  54 H54            0.9874     3.5252    -0.6730 H       
  55 H55            0.3590     5.1847    -0.5341 H       
  56 H56           -0.7288     3.0962    -2.5352 H       
  57 H57           -2.4398     3.4961    -2.2206 H       
  58 H58           -0.0919     5.4559    -2.2165 H       
  59 H59           -1.3461     5.3373    -3.4671 H       
  60 H60           -5.8893     7.1948    -3.3277 H       
  61 H61           -6.3030     8.9046    -3.0558 H       
  62 H62           -5.7351     8.3699    -4.6558 H       
  63 H63           -3.9204    10.0580    -4.4361 H       
@<TRIPOS>BOND
   1    1    2 1
   2    1   32 2
   3    1   19 1
   4    2    4 1
   5    2   34 1
   6    2   35 1
   7    3    4 1
   8    3    7 2
   9    4    5 1
  10    5    6 2
  11    6    7 1
  12    6   36 1
  13    7   37 1
  14    8    9 1
  15    8   11 1
  16    8   26 1
  17    8   27 1
  18    9   10 1
  19    9   38 1
  20    9   39 1
  21   10   25 1
  22   10   40 1
  23   10   41 1
  24   11   12 1
  25   11   42 1
  26   11   43 1
  27   12   13 1
  28   12   25 1
  29   12   33 1
  30   13   14 1
  31   13   44 1
  32   13   45 1
  33   14   15 1
  34   14   46 1
  35   14   47 1
  36   15   16 1
  37   15   30 1
  38   15   24 1
  39   16   17 1
  40   16   20 1
  41   16   31 1
  42   17   18 1
  43   17   48 1
  44   17   49 1
  45   18   19 1
  46   18   50 1
  47   18   51 1
  48   19   20 1
  49   19   52 1
  50   20   21 1
  51   20   22 1
  52   21   53 1
  53   21   54 1
  54   21   55 1
  55   22   23 1
  56   22   56 1
  57   22   57 1
  58   23   24 1
  59   23   58 1
  60   23   59 1
  61   24   29 1
  62   24   25 1
  63   25   28 1
  64   26   60 1
  65   26   61 1
  66   26   62 1
  67   27   63 1

#	End of record

