#	Name: ASD09930002
#	Creating user name:	WinNT
#	Creation time:	15. 06. 2019 21:24

#	Modifying user name:	WinNT
#	Modification time:	15. 06. 2019 21:24

#	Program:	/corina/corina34_cracker 3.40 0067  02.08.2006

@<TRIPOS>MOLECULE
ASD09930002
  36   35    0    0    0
SMALL
NO_CHARGES


@<TRIPOS>ATOM
   1 N1            -0.1156     1.3417     0.1052 N.4     
   2 C2            -0.3038    -0.0517     0.5307 C.3     
   3 C3             1.3126     1.6813     0.1587 C.3     
   4 C4            -0.6065     1.5044    -1.2697 C.3     
   5 C5            -0.8647     2.2327     1.0013 C.3     
   6 C6            -0.4346     1.9803     2.4478 C.3     
   7 O7             0.9211     2.3974     2.6213 O.3     
   8 P8             1.5262     2.1646     4.2145 P.3     
   9 O9             0.5654     1.5164     5.3670 O.co2   
  10 O10            2.0393     0.6688     3.8010 O.co2   
  11 O11            1.0131     3.6604     4.6279 O.co2   
  12 C12            3.2833     2.6530     4.6279 C.3     
  13 C13            3.5659     2.3432     6.0993 C.3     
  14 C14            4.9590     2.8560     6.4700 C.3     
  15 O15            5.1773     2.6719     7.8702 O.3     
  16 O16            3.5070     0.9309     6.3086 O.3     
  17 H17            0.0604    -0.1725     1.5509 H       
  18 H18           -1.3636    -0.3037     0.4910 H       
  19 H19            0.2520    -0.7129    -0.1342 H       
  20 H20            1.8437     1.1430    -0.6263 H       
  21 H21            1.4367     2.7541     0.0115 H       
  22 H22            1.7171     1.3987     1.1306 H       
  23 H23           -1.6662     1.2524    -1.3094 H       
  24 H24           -0.4668     2.5383    -1.5854 H       
  25 H25           -0.0507     0.8433    -1.9346 H       
  26 H26           -0.6595     3.2700     0.7370 H       
  27 H27           -1.9320     2.0362     0.9001 H       
  28 H28           -1.0779     2.5458     3.1220 H       
  29 H29           -0.5191     0.9169     2.6717 H       
  30 H30            3.9741     2.0913     3.9992 H       
  31 H31            3.4153     3.7202     4.4494 H       
  32 H32            2.8198     2.8345     6.7239 H       
  33 H33            5.7113     2.3017     5.9089 H       
  34 H34            5.0324     3.9161     6.2272 H       
  35 H35            6.0428     2.9754     8.1765 H       
  36 H36            4.1450     0.4285     5.7836 H       
@<TRIPOS>BOND
   1    1    2 1
   2    1    3 1
   3    1    4 1
   4    1    5 1
   5    2   17 1
   6    2   18 1
   7    2   19 1
   8    3   20 1
   9    3   21 1
  10    3   22 1
  11    4   23 1
  12    4   24 1
  13    4   25 1
  14    5    6 1
  15    5   26 1
  16    5   27 1
  17    6    7 1
  18    6   28 1
  19    6   29 1
  20    7    8 1
  21    8    9 ar
  22    8   10 ar
  23    8   11 ar
  24    8   12 1
  25   12   13 1
  26   12   30 1
  27   12   31 1
  28   13   14 1
  29   13   16 1
  30   13   32 1
  31   14   15 1
  32   14   33 1
  33   14   34 1
  34   15   35 1
  35   16   36 1

#	End of record

