#	Name: ASD02198246
#	Creating user name:	WinNT
#	Creation time:	15. 06. 2019 20:19

#	Modifying user name:	WinNT
#	Modification time:	15. 06. 2019 20:19

#	Program:	/corina/corina34_cracker 3.40 0067  02.08.2006

@<TRIPOS>MOLECULE
ASD02198246
  46   49    0    0    0
SMALL
NO_CHARGES


@<TRIPOS>ATOM
   1 C1            -0.0164     1.3759     0.0041 C.2     
   2 C2             0.0033    -0.0035     0.0266 C.2     
   3 C3            -1.1855    -0.8003     0.0742 C.1     
   4 S4             1.5667     2.0062    -0.0526 S.3     
   5 C5             2.2772     0.4000    -0.0465 C.2     
   6 C6             1.2833    -0.5510    -0.0015 C.2     
   7 C7             3.6577     0.1262    -0.0826 C.2     
   8 C8             4.6293     1.2363    -0.1294 C.2     
   9 O9             4.0508    -1.0287    -0.0751 O.2     
  10 N10            1.5312    -1.9143     0.0148 N.pl3   
  11 N11           -1.1595     2.1396     0.0194 N.pl3   
  12 C12           -1.0695     3.5317     0.1321 C.ar    
  13 C13           -0.0746     4.1036     0.9115 C.ar    
  14 O14            4.3501     2.5530    -0.1424 O.3     
  15 N15            5.3551     3.2234    -0.1832 N.2     
  16 C16            6.4343     2.4814    -0.2033 C.2     
  17 C17            5.9919     1.1318    -0.1623 C.2     
  18 C18            7.8400     2.9561    -0.2528 C.ar    
  19 C19            8.1162     4.3213    -0.2825 C.ar    
  20 C20            8.8879     2.0382    -0.2638 C.ar    
  21 C21           10.1930     2.4850    -0.3093 C.ar    
  22 C22           10.4615     3.8414    -0.3441 C.ar    
  23 C23            9.4250     4.7573    -0.3280 C.ar    
  24 N24           -2.1287    -1.4325     0.1119 N.1     
  25 C25            0.0124     5.4789     1.0209 C.ar    
  26 C26           -0.8904     6.2871     0.3555 C.ar    
  27 C27           -1.8853     5.7243    -0.4230 C.ar    
  28 C28           -1.9758     4.3476    -0.5430 C.ar    
  29 O29           -2.9532     3.7928    -1.3085 O.3     
  30 C30           -3.8536     4.6900    -1.9614 C.3     
  31 H31            2.4441    -2.2415    -0.0058 H       
  32 H32            0.7918    -2.5413     0.0468 H       
  33 H33           -2.0283     1.7136    -0.0480 H       
  34 H34            0.6316     3.4746     1.4330 H       
  35 H35            6.5915     0.2336    -0.1635 H       
  36 H36            7.3077     5.0372    -0.2704 H       
  37 H37            8.6794     0.9788    -0.2363 H       
  38 H38           11.0061     1.7742    -0.3175 H       
  39 H39           11.4841     4.1868    -0.3797 H       
  40 H40            9.6401     5.8153    -0.3556 H       
  41 H41            0.7874     5.9230     1.6280 H       
  42 H42           -0.8188     7.3611     0.4442 H       
  43 H43           -2.5894     6.3587    -0.9409 H       
  44 H44           -3.2938     5.3440    -2.6300 H       
  45 H45           -4.5817     4.1189    -2.5375 H       
  46 H46           -4.3722     5.2916    -1.2149 H       
@<TRIPOS>BOND
   1    1    2 2
   2    1    4 1
   3    1   11 1
   4    2    3 1
   5    2    6 1
   6    3   24 3
   7    4    5 1
   8    5    6 2
   9    5    7 1
  10    6   10 1
  11    7    8 1
  12    7    9 2
  13    8   14 1
  14    8   17 2
  15   10   31 1
  16   10   32 1
  17   11   12 1
  18   11   33 1
  19   12   13 ar
  20   12   28 ar
  21   13   25 ar
  22   13   34 1
  23   14   15 1
  24   15   16 2
  25   16   17 1
  26   16   18 1
  27   17   35 1
  28   18   19 ar
  29   18   20 ar
  30   19   23 ar
  31   19   36 1
  32   20   21 ar
  33   20   37 1
  34   21   22 ar
  35   21   38 1
  36   22   23 ar
  37   22   39 1
  38   23   40 1
  39   25   26 ar
  40   25   41 1
  41   26   27 ar
  42   26   42 1
  43   27   28 ar
  44   27   43 1
  45   28   29 1
  46   29   30 1
  47   30   44 1
  48   30   45 1
  49   30   46 1

#	End of record

