#	Name: ASD03331279
#	Creating user name:	WinNT
#	Creation time:	15. 06. 2019 20:38

#	Modifying user name:	WinNT
#	Modification time:	15. 06. 2019 20:38

#	Program:	/corina/corina34_cracker 3.40 0067  02.08.2006

@<TRIPOS>MOLECULE
ASD03331279
  44   47    0    0    0
SMALL
NO_CHARGES


@<TRIPOS>ATOM
   1 N1            -0.0177     1.4669     0.0055 N.am    
   2 C2             0.0027    -0.0037     0.0030 C.3     
   3 C3             0.9022    -0.4761    -1.1442 C.3     
   4 N4             2.2194     0.1632    -1.0246 N.3     
   5 C5             2.1177     1.6224    -1.1603 C.3     
   6 C6             1.2681     2.1808    -0.0138 C.3     
   7 C7            -1.1838     2.1425     0.0194 C.2     
   8 O8            -2.2364     1.5401    -0.0665 O.2     
   9 N9            -1.1831     3.4859     0.1284 N.am    
  10 C10           -2.3770     4.1915     0.0336 C.2     
  11 N11           -2.4872     5.4799     0.1241 N.2     
  12 C12            3.1647    -0.3919    -2.0024 C.3     
  13 C13            4.4178     0.4451    -2.0207 C.ar    
  14 C14            5.4761     0.1344    -1.1702 C.ar    
  15 N15            6.5812     0.8399    -1.1578 N.ar    
  16 C16            6.7422     1.8930    -1.9648 C.ar    
  17 C17            5.7046     2.2639    -2.8558 C.ar    
  18 C18            4.5189     1.5059    -2.8756 C.ar    
  19 C19            7.9293     2.6463    -1.9468 C.ar    
  20 C20            8.0642     3.7137    -2.7799 C.ar    
  21 C21            7.0423     4.0768    -3.6550 C.ar    
  22 C22            5.8788     3.3715    -3.7013 C.ar    
  23 S23           -3.9129     3.4870    -0.2266 S.3     
  24 C24           -4.6623     5.0810    -0.1881 C.2     
  25 C25           -3.7015     5.9852     0.0100 C.2     
  26 H26            0.3987    -0.3660     0.9517 H       
  27 H27           -1.0082    -0.3837    -0.1441 H       
  28 H28            1.0175    -1.5588    -1.0938 H       
  29 H29            0.4501    -0.2020    -2.0974 H       
  30 H30            3.1146     2.0616    -1.1216 H       
  31 H31            1.6487     1.8673    -2.1133 H       
  32 H32            1.0937     3.2451    -0.1720 H       
  33 H33            1.7857     2.0285     0.9333 H       
  34 H34           -0.3495     3.9603     0.2730 H       
  35 H35            3.4156    -1.4156    -1.7245 H       
  36 H36            2.7090    -0.3855    -2.9925 H       
  37 H37            5.3839    -0.7098    -0.5029 H       
  38 H38            3.7085     1.7606    -3.5424 H       
  39 H39            8.7309     2.3789    -1.2742 H       
  40 H40            8.9780     4.2891    -2.7623 H       
  41 H41            7.1751     4.9289    -4.3051 H       
  42 H42            5.0941     3.6624    -4.3841 H       
  43 H43           -5.7151     5.2899    -0.3073 H       
  44 H44           -3.9012     7.0447     0.0735 H       
@<TRIPOS>BOND
   1    1    2 1
   2    1    6 1
   3    1    7 am
   4    2    3 1
   5    2   26 1
   6    2   27 1
   7    3    4 1
   8    3   28 1
   9    3   29 1
  10    4    5 1
  11    4   12 1
  12    5    6 1
  13    5   30 1
  14    5   31 1
  15    6   32 1
  16    6   33 1
  17    7    8 2
  18    7    9 am
  19    9   10 1
  20    9   34 1
  21   10   11 2
  22   10   23 1
  23   11   25 1
  24   12   13 1
  25   12   35 1
  26   12   36 1
  27   13   14 ar
  28   13   18 ar
  29   14   15 ar
  30   14   37 1
  31   15   16 ar
  32   16   17 ar
  33   16   19 ar
  34   17   18 ar
  35   17   22 ar
  36   18   38 1
  37   19   20 ar
  38   19   39 1
  39   20   21 ar
  40   20   40 1
  41   21   22 ar
  42   21   41 1
  43   22   42 1
  44   23   24 1
  45   24   25 2
  46   24   43 1
  47   25   44 1

#	End of record

