#	Name: ASD01208424
#	Creating user name:	WinNT
#	Creation time:	15. 06. 2019 19:09

#	Modifying user name:	WinNT
#	Modification time:	15. 06. 2019 19:09

#	Program:	/corina/corina34_cracker 3.40 0067  02.08.2006

@<TRIPOS>MOLECULE
ASD01208424
  19   20    0    0    0
SMALL
NO_CHARGES


@<TRIPOS>ATOM
   1 S1            -0.0218     1.7575     0.0117 S.3     
   2 C2             0.0021    -0.0041     0.0020 C.2     
   3 N3             1.2412    -0.4127    -0.0120 N.2     
   4 C4             2.1735     0.5130    -0.0159 C.2     
   5 C5             1.7404     1.7771    -0.0050 C.2     
   6 C6             2.6096     3.0082    -0.0075 C.3     
   7 N7            -1.1803    -2.2488     0.0017 N.pl3   
   8 C8            -1.1844    -0.8745     0.0091 C.2     
   9 C9            -2.4855    -0.4607     0.0247 C.2     
  10 C10           -3.2896    -1.6101     0.0268 C.2     
  11 C11           -2.4706    -2.6865     0.0126 C.2     
  12 Br12          -3.0235    -4.4949     0.0092 Br      
  13 H13            3.2252     0.2674    -0.0270 H       
  14 H14            1.9797     3.8977     0.0032 H       
  15 H15            3.2477     3.0042     0.8762 H       
  16 H16            3.2301     3.0131    -0.9036 H       
  17 H17           -0.3912    -2.8127    -0.0130 H       
  18 H18           -2.8315     0.5623     0.0338 H       
  19 H19           -4.3694    -1.6317     0.0381 H       
@<TRIPOS>BOND
   1    1    2 1
   2    1    5 1
   3    2    3 2
   4    2    8 1
   5    3    4 1
   6    4    5 2
   7    4   13 1
   8    5    6 1
   9    6   14 1
  10    6   15 1
  11    6   16 1
  12    7    8 1
  13    7   11 1
  14    7   17 1
  15    8    9 2
  16    9   10 1
  17    9   18 1
  18   10   11 2
  19   10   19 1
  20   11   12 1

#	End of record

