#	Name: ASD03950101
#	Creating user name:	WinNT
#	Creation time:	15. 06. 2019 20:48

#	Modifying user name:	WinNT
#	Modification time:	15. 06. 2019 20:48

#	Program:	/corina/corina34_cracker 3.40 0067  02.08.2006

@<TRIPOS>MOLECULE
ASD03950101
  40   42    0    0    0
SMALL
NO_CHARGES


@<TRIPOS>ATOM
   1 N1            -0.0169     1.3944     0.0097 N.pl3   
   2 N2             0.0021    -0.0041     0.0020 N.2     
   3 C3             1.2316    -0.4335    -0.0120 C.2     
   4 C4             2.1094     0.7333    -0.0141 C.ar    
   5 C5             3.4988     0.9014    -0.0268 C.ar    
   6 C6             4.0392     2.1681    -0.0252 C.ar    
   7 C7             3.2200     3.2863    -0.0114 C.ar    
   8 C8             1.8354     3.1469     0.0010 C.ar    
   9 C9             1.2675     1.8600    -0.0001 C.ar    
  10 C10            0.9943     4.3058     0.0152 C.1     
  11 N11            0.3271     5.2252     0.0265 N.1     
  12 N12            1.2120    -4.6667    -0.0344 N.am    
  13 C13            1.6148    -4.0355     1.2298 C.3     
  14 C14            1.1389    -2.5794     1.2275 C.3     
  15 C15            1.6695    -1.8754    -0.0235 C.3     
  16 C16            1.1172    -2.5661    -1.2725 C.3     
  17 C17            1.5929    -4.0221    -1.2986 C.3     
  18 S18            0.3512    -6.0813    -0.0344 S.o2    
  19 O19            0.6727    -6.6871    -1.2790 O.2     
  20 O20            0.6993    -6.7034     1.1948 O.2     
  21 C21           -1.3846    -5.5549    -0.0123 C.3     
  22 C22           -2.2913    -6.7873    -0.0107 C.3     
  23 Br23           5.9177     2.3842    -0.0412 Br      
  24 H24           -0.8148     1.9459     0.0167 H       
  25 H25            4.1472     0.0378    -0.0376 H       
  26 H26            3.6595     4.2729    -0.0099 H       
  27 H27            1.1594    -4.5675     2.0651 H       
  28 H28            2.7004    -4.0650     1.3233 H       
  29 H29            0.0492    -2.5528     1.2253 H       
  30 H30            1.5138    -2.0727     2.1168 H       
  31 H31            2.7583    -1.9242    -0.0333 H       
  32 H32            0.0277    -2.5396    -1.2512 H       
  33 H33            1.4767    -2.0499    -2.1627 H       
  34 H34            2.6767    -4.0504    -1.4112 H       
  35 H35            1.1230    -4.5451    -2.1315 H       
  36 H36           -1.5736    -4.9636     0.8837 H       
  37 H37           -1.5927    -4.9519    -0.8961 H       
  38 H38           -2.0832    -7.3903     0.8732 H       
  39 H39           -3.3343    -6.4710     0.0027 H       
  40 H40           -2.1024    -7.3786    -0.9066 H       
@<TRIPOS>BOND
   1    1    2 1
   2    1    9 1
   3    1   24 1
   4    2    3 2
   5    3    4 1
   6    3   15 1
   7    4    5 ar
   8    4    9 ar
   9    5    6 ar
  10    5   25 1
  11    6    7 ar
  12    6   23 1
  13    7    8 ar
  14    7   26 1
  15    8    9 ar
  16    8   10 1
  17   10   11 3
  18   12   13 1
  19   12   17 1
  20   12   18 am
  21   13   14 1
  22   13   27 1
  23   13   28 1
  24   14   15 1
  25   14   29 1
  26   14   30 1
  27   15   16 1
  28   15   31 1
  29   16   17 1
  30   16   32 1
  31   16   33 1
  32   17   34 1
  33   17   35 1
  34   18   19 2
  35   18   20 2
  36   18   21 1
  37   21   22 1
  38   21   36 1
  39   21   37 1
  40   22   38 1
  41   22   39 1
  42   22   40 1

#	End of record

