#	Name: ASD06610054
#	Creating user name:	WinNT
#	Creation time:	15. 06. 2019 21:07

#	Modifying user name:	WinNT
#	Modification time:	15. 06. 2019 21:07

#	Program:	/corina/corina34_cracker 3.40 0067  02.08.2006

@<TRIPOS>MOLECULE
ASD06610054
 206  205    0    0    0
SMALL
NO_CHARGES


@<TRIPOS>ATOM
   1 C1            -0.0144     1.2086     0.0087 C.2     
   2 O2             0.0021    -0.0041     0.0020 O.2     
   3 N3             2.4066     1.0431    -0.0153 N.am    
   4 C4             1.2803     1.9798     0.0005 C.3     
   5 C5             1.3375     2.8671    -1.2446 C.3     
   6 C6             2.5919     3.7414    -1.1906 C.3     
   7 C7             2.6483     4.6154    -2.4170 C.2     
   8 O8             1.7747     4.5462    -3.2489 O.2     
   9 O9             3.6689     5.4709    -2.5852 O.3     
  10 C10           -3.5426     1.9694    -0.5709 C.2     
  11 O11           -3.2948     3.0926    -0.9556 O.2     
  12 N12           -1.1906     1.8666     0.0178 N.am    
  13 C13           -2.4492     1.1169     0.0197 C.3     
  14 C14           -2.8163     0.7401     1.4565 C.3     
  15 C15           -1.7689    -0.2260     2.0138 C.3     
  16 C16           -2.1359    -0.6028     3.4505 C.3     
  17 N17           -1.1331    -1.5279     3.9841 N.pl3   
  18 C18           -1.2536    -2.0071     5.2671 C.2     
  19 N19           -2.2601    -1.6385     6.0086 N.2     
  20 N20           -0.3124    -2.8752     5.7678 N.pl3   
  21 C21           -7.1934     1.8552    -0.7166 C.2     
  22 O22           -7.2513     0.9284     0.0635 O.2     
  23 N23           -4.7957     1.4837    -0.6717 N.am    
  24 C24           -5.8586     2.3124    -1.2459 C.3     
  25 C25           -5.8417     2.1796    -2.7700 C.3     
  26 C26           -4.5360     2.7591    -3.3180 C.3     
  27 C27           -4.5193     2.6283    -4.8192 C.2     
  28 O28           -5.4558     2.1234    -5.3921 O.2     
  29 O29           -3.4642     3.0726    -5.5200 O.3     
  30 C30          -10.7041     2.4068    -1.5736 C.2     
  31 O31          -10.4202     2.9881    -2.5995 O.2     
  32 N32           -8.3230     2.4763    -1.1101 N.am    
  33 C33           -9.6207     2.0318    -0.5955 C.3     
  34 C34           -9.8934     2.7057     0.7507 C.3     
  35 C35           -8.8653     2.2276     1.7780 C.3     
  36 C36           -9.1381     2.9014     3.1243 C.3     
  37 C37           -8.1100     2.4233     4.1515 C.3     
  38 N38           -8.3719     3.0703     5.4441 N.3     
  39 C39          -14.3550     2.5850    -1.5307 C.2     
  40 O40          -14.4062     2.3884    -0.3350 O.2     
  41 N41          -11.9884     2.0962    -1.3083 N.am    
  42 C42          -13.0416     2.4607    -2.2592 C.3     
  43 C43          -13.1552     1.3780    -3.3342 C.3     
  44 C44          -11.8649     1.3373    -4.1554 C.3     
  45 C45          -11.9784     0.2546    -5.2305 C.3     
  46 N46          -10.7429     0.2157    -6.0168 N.pl3   
  47 C47          -10.6119    -0.6850    -7.0471 C.2     
  48 N48          -11.5870    -1.5044    -7.3244 N.2     
  49 N49           -9.4525    -0.7215    -7.7850 N.pl3   
  50 C50          -17.8831     2.7975    -2.4639 C.2     
  51 O51          -17.6476     2.5513    -3.6279 O.2     
  52 N52          -15.4727     2.9146    -2.2080 N.am    
  53 C53          -16.7494     3.0354    -1.4998 C.3     
  54 C54          -16.8719     4.4398    -0.9051 C.3     
  55 C55          -15.7956     4.6363     0.1644 C.3     
  56 C56          -15.9181     6.0407     0.7591 C.3     
  57 N57          -14.8876     6.2289     1.7832 N.pl3   
  58 C58          -14.8012     7.4222     2.4604 C.2     
  59 N59          -13.8843     7.5897     3.3715 N.2     
  60 N60          -15.6819     8.4390     2.1764 N.pl3   
  61 C61          -21.5012     3.3190    -2.4668 C.2     
  62 O62          -21.4682     3.9438    -1.4278 O.2     
  63 N63          -19.1585     2.8584    -2.0326 N.am    
  64 C64          -20.2605     2.6272    -2.9698 C.3     
  65 C65          -20.5255     1.1247    -3.0847 C.3     
  66 O66          -20.9868     0.6249    -1.8280 O.3     
  67 C67          -25.0733     3.2269    -3.2380 C.2     
  68 O68          -24.9474     2.2682    -3.9701 O.2     
  69 N69          -22.6475     3.2436    -3.1716 N.am    
  70 C70          -23.8537     3.9162    -2.6826 C.3     
  71 C71          -23.8425     5.3772    -3.1367 C.3     
  72 C72          -27.7987     3.5565    -4.8291 C.2     
  73 O73          -27.1002     4.4202    -5.3045 O.2     
  74 N74          -26.3040     3.6758    -2.9210 N.am    
  75 C75          -27.4896     3.0057    -3.4609 C.3     
  76 C76          -28.6806     3.2496    -2.5319 C.3     
  77 C77          -28.4224     2.5920    -1.2008 C.2     
  78 O78          -27.3915     1.9899    -1.0143 O.2     
  79 O79          -29.3376     2.6750    -0.2224 O.3     
  80 O80          -28.8499     3.0877    -5.5196 O.3     
  81 C81            3.6058     1.4228     0.4686 C.2     
  82 O82            3.7525     2.5401     0.9171 O.2     
  83 C83           21.6351    -1.6585     4.5475 C.3     
  84 C84           20.4589    -0.6802     4.5640 C.3     
  85 C85           19.2250    -1.3560     3.9625 C.3     
  86 C86           18.0488    -0.3777     3.9790 C.3     
  87 C87           16.8149    -1.0534     3.3775 C.3     
  88 C88           15.6387    -0.0751     3.3940 C.3     
  89 C89           14.4048    -0.7509     2.7924 C.3     
  90 C90           13.2286     0.2274     2.8089 C.3     
  91 C91           11.9947    -0.4484     2.2074 C.3     
  92 C92           10.8184     0.5299     2.2239 C.3     
  93 C93            9.5846    -0.1458     1.6224 C.3     
  94 C94            8.4083     0.8325     1.6389 C.3     
  95 C95            7.1745     0.1567     1.0374 C.3     
  96 C96            5.9982     1.1350     1.0539 C.3     
  97 C97            4.7644     0.4592     0.4523 C.3     
  98 H98            2.2893     0.1495    -0.3740 H       
  99 H99            1.3381     2.6024     0.8933 H       
 100 H100           1.3693     2.2407    -2.1361 H       
 101 H101           0.4527     3.5029    -1.2787 H       
 102 H102           2.5601     4.3679    -0.2992 H       
 103 H103           3.4767     3.1057    -1.1566 H       
 104 H104           3.6616     6.0106    -3.3875 H       
 105 H105          -1.2037     2.8365     0.0232 H       
 106 H106          -2.3335     0.2109    -0.5752 H       
 107 H107          -2.8450     1.6393     2.0719 H       
 108 H108          -3.7951     0.2607     1.4676 H       
 109 H109          -1.7401    -1.1252     1.3984 H       
 110 H110          -0.7900     0.2534     2.0026 H       
 111 H111          -2.1647     0.2964     4.0659 H       
 112 H112          -3.1148    -1.0822     3.4616 H       
 113 H113          -0.3840    -1.8022     3.4323 H       
 114 H114          -2.3452    -1.9766     6.9138 H       
 115 H115           0.4366    -3.1496     5.2160 H       
 116 H116          -0.3975    -3.2134     6.6730 H       
 117 H117          -4.9939     0.5854    -0.3641 H       
 118 H118          -5.6959     3.3544    -0.9701 H       
 119 H119          -5.9154     1.1272    -3.0439 H       
 120 H120          -6.6863     2.7247    -3.1916 H       
 121 H121          -4.4623     3.8115    -3.0442 H       
 122 H122          -3.6914     2.2140    -2.8964 H       
 123 H123          -3.4992     2.9669    -6.4805 H       
 124 H124          -8.2768     3.2176    -1.7340 H       
 125 H125          -9.6082     0.9498    -0.4643 H       
 126 H126          -9.8181     3.7872     0.6376 H       
 127 H127         -10.8955     2.4450     1.0911 H       
 128 H128          -8.9407     1.1461     1.8912 H       
 129 H129          -7.8632     2.4883     1.4376 H       
 130 H130          -9.0627     3.9829     3.0111 H       
 131 H131         -10.1402     2.6407     3.4647 H       
 132 H132          -8.1854     1.3418     4.2647 H       
 133 H133          -7.1079     2.6840     3.8111 H       
 134 H134          -9.3175     2.8967     5.7504 H       
 135 H135          -7.7056     2.7706     6.1400 H       
 136 H136         -12.2155     1.6313    -0.4878 H       
 137 H137         -12.7944     3.4133    -2.7276 H       
 138 H138         -13.3143     0.4098    -2.8595 H       
 139 H139         -13.9962     1.6038    -3.9899 H       
 140 H140         -11.7057     2.3055    -4.6302 H       
 141 H141         -11.0239     1.1116    -3.4998 H       
 142 H142         -12.1376    -0.7135    -4.7557 H       
 143 H143         -12.8194     0.4804    -5.8861 H       
 144 H144         -10.0173     0.8255    -5.8104 H       
 145 H145         -11.4945    -2.1399    -8.0514 H       
 146 H146          -8.7268    -0.1118    -7.5787 H       
 147 H147          -9.3600    -1.3570    -8.5120 H       
 148 H148         -15.4317     3.0718    -3.1643 H       
 149 H149         -16.7922     2.2968    -0.6993 H       
 150 H150         -16.7403     5.1809    -1.6935 H       
 151 H151         -17.8574     4.5591    -0.4551 H       
 152 H152         -15.9272     3.8952     0.9528 H       
 153 H153         -14.8101     4.5170    -0.2856 H       
 154 H154         -15.7865     6.7818    -0.0292 H       
 155 H155         -16.9036     6.1600     1.2092 H       
 156 H156         -14.2662     5.5115     1.9836 H       
 157 H157         -13.8234     8.4317     3.8493 H       
 158 H158         -16.3642     8.3144     1.4983 H       
 159 H159         -15.6210     9.2810     2.6542 H       
 160 H160         -19.3468     3.0553    -1.1016 H       
 161 H161         -19.9942     3.0251    -3.9490 H       
 162 H162         -21.2840     0.9468    -3.8470 H       
 163 H163         -19.6039     0.6134    -3.3628 H       
 164 H164         -21.1752    -0.3236    -1.8271 H       
 165 H165         -22.6739     2.7439    -4.0026 H       
 166 H166         -23.8769     3.8743    -1.5937 H       
 167 H167         -23.8193     5.4190    -4.2257 H       
 168 H168         -24.7399     5.8776    -2.7729 H       
 169 H169         -22.9603     5.8757    -2.7351 H       
 170 H170         -26.4046     4.4425    -2.3355 H       
 171 H171         -27.2998     1.9349    -3.5347 H       
 172 H172         -28.8152     4.3216    -2.3875 H       
 173 H173         -29.5813     2.8271    -2.9773 H       
 174 H174         -29.1273     2.2372     0.6138 H       
 175 H175         -29.0081     3.4717    -6.3929 H       
 176 H176          21.3818    -2.5412     5.1347 H       
 177 H177          21.8474    -1.9542     3.5201 H       
 178 H178          22.5141    -1.1771     4.9760 H       
 179 H179          20.2466    -0.3845     5.5914 H       
 180 H180          20.7122     0.2025     3.9769 H       
 181 H181          19.4373    -1.6516     2.9351 H       
 182 H182          18.9717    -2.2387     4.5497 H       
 183 H183          17.8365    -0.0820     5.0064 H       
 184 H184          18.3021     0.5051     3.3918 H       
 185 H185          17.0272    -1.3491     2.3500 H       
 186 H186          16.5616    -1.9361     3.9646 H       
 187 H187          15.4264     0.2206     4.4214 H       
 188 H188          15.8920     0.8076     2.8068 H       
 189 H189          14.6171    -1.0466     1.7650 H       
 190 H190          14.1515    -1.6336     3.3796 H       
 191 H191          13.0163     0.5231     3.8364 H       
 192 H192          13.4819     1.1101     2.2218 H       
 193 H193          12.2070    -0.7440     1.1800 H       
 194 H194          11.7414    -1.3311     2.7946 H       
 195 H195          10.6062     0.8256     3.2513 H       
 196 H196          11.0718     1.4127     1.6367 H       
 197 H197           9.7969    -0.4415     0.5950 H       
 198 H198           9.3313    -1.0285     2.2095 H       
 199 H199           8.1961     1.1282     2.6663 H       
 200 H200           8.6617     1.7152     1.0517 H       
 201 H201           7.3868    -0.1390     0.0099 H       
 202 H202           6.9211    -0.7260     1.6245 H       
 203 H203           5.7859     1.4307     2.0813 H       
 204 H204           6.2516     2.0177     0.4667 H       
 205 H205           4.5110    -0.4235     1.0395 H       
 206 H206           4.9766     0.1636    -0.5751 H       
@<TRIPOS>BOND
   1    1    2 2
   2    1    4 1
   3    1   12 am
   4    3   81 am
   5    3    4 1
   6    3   98 1
   7    4    5 1
   8    4   99 1
   9    5    6 1
  10    5  100 1
  11    5  101 1
  12    6    7 1
  13    6  102 1
  14    6  103 1
  15    7    8 2
  16    7    9 1
  17    9  104 1
  18   10   11 2
  19   10   13 1
  20   10   23 am
  21   12   13 1
  22   12  105 1
  23   13   14 1
  24   13  106 1
  25   14   15 1
  26   14  107 1
  27   14  108 1
  28   15   16 1
  29   15  109 1
  30   15  110 1
  31   16   17 1
  32   16  111 1
  33   16  112 1
  34   17   18 1
  35   17  113 1
  36   18   19 2
  37   18   20 1
  38   19  114 1
  39   20  115 1
  40   20  116 1
  41   21   22 2
  42   21   24 1
  43   21   32 am
  44   23   24 1
  45   23  117 1
  46   24   25 1
  47   24  118 1
  48   25   26 1
  49   25  119 1
  50   25  120 1
  51   26   27 1
  52   26  121 1
  53   26  122 1
  54   27   28 2
  55   27   29 1
  56   29  123 1
  57   30   31 2
  58   30   33 1
  59   30   41 am
  60   32   33 1
  61   32  124 1
  62   33   34 1
  63   33  125 1
  64   34   35 1
  65   34  126 1
  66   34  127 1
  67   35   36 1
  68   35  128 1
  69   35  129 1
  70   36   37 1
  71   36  130 1
  72   36  131 1
  73   37   38 1
  74   37  132 1
  75   37  133 1
  76   38  134 1
  77   38  135 1
  78   39   40 2
  79   39   42 1
  80   39   52 am
  81   41   42 1
  82   41  136 1
  83   42   43 1
  84   42  137 1
  85   43   44 1
  86   43  138 1
  87   43  139 1
  88   44   45 1
  89   44  140 1
  90   44  141 1
  91   45   46 1
  92   45  142 1
  93   45  143 1
  94   46   47 1
  95   46  144 1
  96   47   48 2
  97   47   49 1
  98   48  145 1
  99   49  146 1
 100   49  147 1
 101   50   51 2
 102   50   53 1
 103   50   63 am
 104   52   53 1
 105   52  148 1
 106   53   54 1
 107   53  149 1
 108   54   55 1
 109   54  150 1
 110   54  151 1
 111   55   56 1
 112   55  152 1
 113   55  153 1
 114   56   57 1
 115   56  154 1
 116   56  155 1
 117   57   58 1
 118   57  156 1
 119   58   59 2
 120   58   60 1
 121   59  157 1
 122   60  158 1
 123   60  159 1
 124   61   62 2
 125   61   64 1
 126   61   69 am
 127   63   64 1
 128   63  160 1
 129   64   65 1
 130   64  161 1
 131   65   66 1
 132   65  162 1
 133   65  163 1
 134   66  164 1
 135   67   68 2
 136   67   70 1
 137   67   74 am
 138   69   70 1
 139   69  165 1
 140   70   71 1
 141   70  166 1
 142   71  167 1
 143   71  168 1
 144   71  169 1
 145   72   73 2
 146   72   75 1
 147   72   80 1
 148   74   75 1
 149   74  170 1
 150   75   76 1
 151   75  171 1
 152   76   77 1
 153   76  172 1
 154   76  173 1
 155   77   78 2
 156   77   79 1
 157   79  174 1
 158   80  175 1
 159   81   82 2
 160   81   97 1
 161   83   84 1
 162   83  176 1
 163   83  177 1
 164   83  178 1
 165   84   85 1
 166   84  179 1
 167   84  180 1
 168   85   86 1
 169   85  181 1
 170   85  182 1
 171   86   87 1
 172   86  183 1
 173   86  184 1
 174   87   88 1
 175   87  185 1
 176   87  186 1
 177   88   89 1
 178   88  187 1
 179   88  188 1
 180   89   90 1
 181   89  189 1
 182   89  190 1
 183   90   91 1
 184   90  191 1
 185   90  192 1
 186   91   92 1
 187   91  193 1
 188   91  194 1
 189   92   93 1
 190   92  195 1
 191   92  196 1
 192   93   94 1
 193   93  197 1
 194   93  198 1
 195   94   95 1
 196   94  199 1
 197   94  200 1
 198   95   96 1
 199   95  201 1
 200   95  202 1
 201   96   97 1
 202   96  203 1
 203   96  204 1
 204   97  205 1
 205   97  206 1

#	End of record

