#	Name: ASD03090002
#	Creating user name:	WinNT
#	Creation time:	15. 06. 2019 20:28

#	Modifying user name:	WinNT
#	Modification time:	15. 06. 2019 20:28

#	Program:	/corina/corina34_cracker 3.40 0067  02.08.2006

@<TRIPOS>MOLECULE
ASD03090002
  58   61    0    0    0
SMALL
NO_CHARGES


@<TRIPOS>ATOM
   1 C1            -0.0168     1.3850     0.0097 C.ar    
   2 C2             0.0021    -0.0041     0.0020 C.ar    
   3 C3            -1.1584    -0.7419     0.0433 C.ar    
   4 C4            -2.4180    -0.1329     0.1216 C.ar    
   5 C5            -2.4430     1.2298     0.0790 C.ar    
   6 C6            -1.2747     2.0011     0.0309 C.ar    
   7 C7            -3.5962     2.2073    -0.0332 C.3     
   8 C8            -2.9154     3.5488     0.2504 C.3     
   9 O9            -1.5382     3.3225    -0.0706 O.3     
  10 C10           -4.1700     2.1281    -1.4095 C.2     
  11 C11           -4.2082     3.0979    -2.2600 C.2     
  12 C12           -3.6649     4.4639    -1.9859 C.3     
  13 C13           -3.4964     4.7143    -0.5015 C.3     
  14 C14           -4.6515     1.9371     1.0216 C.3     
  15 C15           -5.3179     0.6032     0.8415 C.3     
  16 C16           -3.5825    -1.0521     0.3459 C.3     
  17 N17           -4.5400    -0.5179     1.2928 N.3     
  18 C18           -5.4055    -1.5802     1.8223 C.3     
  19 O19           -2.3746     4.5995    -2.6378 O.3     
  20 O20            1.1322     2.1126     0.0026 O.3     
  21 C21            2.3614     1.3840    -0.0131 C.3     
  22 H22           -2.9906     3.7586     1.3174 H       
  23 C23           -2.3736     5.0703    -3.8992 C.2     
  24 O24           -3.4223     5.3599    -4.4404 O.2     
  25 N25           -1.2095     5.2204    -4.5615 N.am    
  26 C26           -1.2083     5.7327    -5.9340 C.3     
  27 C27            0.2301     5.8053    -6.4501 C.3     
  28 C28            0.2313     6.3403    -7.8835 C.3     
  29 C29            1.6698     6.4129    -8.3996 C.3     
  30 H30            0.9514    -0.5176    -0.0377 H       
  31 H31           -1.0969    -1.8198     0.0143 H       
  32 H32           -4.5876     1.1812    -1.7184 H       
  33 H33           -4.6584     2.9126    -3.2240 H       
  34 H34           -4.3486     5.2070    -2.3962 H       
  35 H35           -4.4715     4.9505    -0.0757 H       
  36 H36           -2.8432     5.5764    -0.3663 H       
  37 H37           -4.1825     1.9669     2.0051 H       
  38 H38           -5.4089     2.7193     0.9707 H       
  39 H39           -6.2609     0.6117     1.3880 H       
  40 H40           -5.5379     0.4671    -0.2174 H       
  41 H41           -4.0856    -1.2218    -0.6060 H       
  42 H42           -3.2112    -2.0059     0.7206 H       
  43 H43           -6.0853    -1.9185     1.0403 H       
  44 H44           -4.7914    -2.4163     2.1567 H       
  45 H45           -5.9821    -1.1939     2.6628 H       
  46 H46            3.1979     2.0827    -0.0173 H       
  47 H47            2.4204     0.7519     0.8730 H       
  48 H48            2.4034     0.7615    -0.9068 H       
  49 H49           -0.3723     4.9892    -4.1294 H       
  50 H50           -1.7897     5.0661    -6.5711 H       
  51 H51           -1.6510     6.7286    -5.9505 H       
  52 H52            0.8115     6.4718    -5.8131 H       
  53 H53            0.6728     4.8093    -6.4337 H       
  54 H54           -0.3501     5.6737    -8.5206 H       
  55 H55           -0.2113     7.3362    -7.9000 H       
  56 H56            1.6706     6.7940    -9.4208 H       
  57 H57            2.2512     7.0794    -7.7626 H       
  58 H58            2.1124     5.4169    -8.3832 H       
@<TRIPOS>BOND
   1    1    2 ar
   2    1   20 1
   3    1    6 ar
   4    2    3 ar
   5    2   30 1
   6    3    4 ar
   7    3   31 1
   8    4    5 ar
   9    4   16 1
  10    5    6 ar
  11    5    7 1
  12    6    9 1
  13    7    8 1
  14    7   10 1
  15    7   14 1
  16    8    9 1
  17    8   22 1
  18    8   13 1
  19   10   11 2
  20   10   32 1
  21   11   12 1
  22   11   33 1
  23   12   13 1
  24   12   19 1
  25   12   34 1
  26   13   35 1
  27   13   36 1
  28   14   15 1
  29   14   37 1
  30   14   38 1
  31   15   17 1
  32   15   39 1
  33   15   40 1
  34   16   17 1
  35   16   41 1
  36   16   42 1
  37   17   18 1
  38   18   43 1
  39   18   44 1
  40   18   45 1
  41   19   23 1
  42   20   21 1
  43   21   46 1
  44   21   47 1
  45   21   48 1
  46   23   24 2
  47   23   25 am
  48   25   26 1
  49   25   49 1
  50   26   27 1
  51   26   50 1
  52   26   51 1
  53   27   28 1
  54   27   52 1
  55   27   53 1
  56   28   29 1
  57   28   54 1
  58   28   55 1
  59   29   56 1
  60   29   57 1
  61   29   58 1

#	End of record

