#	Name: ASD02198885
#	Creating user name:	WinNT
#	Creation time:	15. 06. 2019 20:20

#	Modifying user name:	WinNT
#	Modification time:	15. 06. 2019 20:20

#	Program:	/corina/corina34_cracker 3.40 0067  02.08.2006

@<TRIPOS>MOLECULE
ASD02198885
  59   63    0    0    0
SMALL
NO_CHARGES


@<TRIPOS>ATOM
   1 C1             0.3475     0.3512    -0.0304 C.2     
   2 C2             0.3337    -0.8867     0.5250 C.2     
   3 N3             1.4808    -1.4795     0.9257 N.pl3   
   4 N4             2.6336    -0.9303     0.8132 N.2     
   5 C5             2.7891     0.2679     0.2917 C.2     
   6 C6             1.5989     0.9966    -0.1752 C.2     
   7 C7             1.4059    -2.7564     1.4921 C.ar    
   8 C8             1.9516    -2.9937     2.7531 C.ar    
   9 C9             1.8753    -4.2588     3.3110 C.ar    
  10 C10            1.2563    -5.2873     2.6143 C.ar    
  11 C11            0.7132    -5.0487     1.3578 C.ar    
  12 C12            0.7830    -3.7878     0.8014 C.ar    
  13 C13            4.1328     0.8704     0.1780 C.2     
  14 N14            4.7185     1.3392    -0.9643 N.pl3   
  15 N15            5.9876     1.8245    -0.6248 N.2     
  16 C16            6.1706     1.6613     0.6613 C.2     
  17 C17            5.0294     1.0711     1.2046 C.2     
  18 C18            4.1513     1.3350    -2.2449 C.ar    
  19 C19            3.4704     0.2141    -2.7006 C.ar    
  20 C20            2.9117     0.2133    -3.9639 C.ar    
  21 C21            3.0304     1.3270    -4.7746 C.ar    
  22 C22            3.7085     2.4450    -4.3238 C.ar    
  23 C23            4.2639     2.4543    -3.0595 C.ar    
  24 O24            1.6873     2.1117    -0.6675 O.2     
  25 N25            1.1793    -6.5680     3.1786 N.pl3   
  26 N26            0.9536    -6.8626     4.5293 N.2     
  27 C27            0.9487    -8.1633     4.6728 C.2     
  28 C28            1.1706    -8.7472     3.4217 C.2     
  29 C29            1.3047    -7.7462     2.5115 C.2     
  30 O30            1.5315    -7.8956     1.1814 O.3     
  31 C31            1.5562    -9.2310     0.6734 C.3     
  32 F32            2.5408    -9.9662     1.3423 F       
  33 F33            0.3084    -9.8302     0.8762 F       
  34 O34            2.5576    -1.9852     3.4333 O.3     
  35 C35            3.0941    -2.3008     4.7196 C.3     
  36 C36            3.8363     3.6563    -5.2111 C.3     
  37 F37            3.1940     3.4118    -6.4296 F       
  38 F38            3.2439     4.7580    -4.5845 F       
  39 F39            5.1898     3.9238    -5.4429 F       
  40 C40            7.4075     2.0512     1.4286 C.3     
  41 H41           -0.5661     0.8267    -0.3555 H       
  42 H42           -0.6057    -1.4050     0.6490 H       
  43 H43            2.2975    -4.4451     4.2875 H       
  44 H44            0.2320    -5.8505     0.8175 H       
  45 H45            0.3601    -3.6048    -0.1754 H       
  46 H46            4.8785     0.8121     2.2422 H       
  47 H47            3.3779    -0.6564    -2.0681 H       
  48 H48            2.3819    -0.6583    -4.3189 H       
  49 H49            2.5930     1.3238    -5.7620 H       
  50 H50            4.7930     3.3277    -2.7080 H       
  51 H51            0.7986    -8.6957     5.6004 H       
  52 H52            1.2223    -9.8059     3.2145 H       
  53 H53            1.7802    -9.2100    -0.3931 H       
  54 H54            3.5482    -1.4095     5.1525 H       
  55 H55            2.2939    -2.6535     5.3703 H       
  56 H56            3.8492    -3.0801     4.6171 H       
  57 H57            7.3039     3.0747     1.7891 H       
  58 H58            7.5362     1.3786     2.2767 H       
  59 H59            8.2772     1.9825     0.7752 H       
@<TRIPOS>BOND
   1    1    2 2
   2    1    6 1
   3    1   41 1
   4    2    3 1
   5    2   42 1
   6    3    4 1
   7    3    7 1
   8    4    5 2
   9    5    6 1
  10    5   13 1
  11    6   24 2
  12    7    8 ar
  13    7   12 ar
  14    8    9 ar
  15    8   34 1
  16    9   10 ar
  17    9   43 1
  18   10   11 ar
  19   10   25 1
  20   11   12 ar
  21   11   44 1
  22   12   45 1
  23   13   14 1
  24   13   17 2
  25   14   15 1
  26   14   18 1
  27   15   16 2
  28   16   17 1
  29   16   40 1
  30   17   46 1
  31   18   19 ar
  32   18   23 ar
  33   19   20 ar
  34   19   47 1
  35   20   21 ar
  36   20   48 1
  37   21   22 ar
  38   21   49 1
  39   22   23 ar
  40   22   36 1
  41   23   50 1
  42   25   26 1
  43   25   29 1
  44   26   27 2
  45   27   28 1
  46   27   51 1
  47   28   29 2
  48   28   52 1
  49   29   30 1
  50   30   31 1
  51   31   32 1
  52   31   33 1
  53   31   53 1
  54   34   35 1
  55   35   54 1
  56   35   55 1
  57   35   56 1
  58   36   37 1
  59   36   38 1
  60   36   39 1
  61   40   57 1
  62   40   58 1
  63   40   59 1

#	End of record

