#	Name: ASD03731234
#	Creating user name:	WinNT
#	Creation time:	15. 06. 2019 20:45

#	Modifying user name:	WinNT
#	Modification time:	15. 06. 2019 20:45

#	Program:	/corina/corina34_cracker 3.40 0067  02.08.2006

@<TRIPOS>MOLECULE
ASD03731234
  63   68    0    0    0
SMALL
NO_CHARGES


@<TRIPOS>ATOM
   1 C1            -0.0168     1.0667    -1.0724 C.2     
   2 C2             0.0601    -0.2918    -0.4966 C.ar    
   3 C3             1.2321    -1.0392    -0.6199 C.ar    
   4 C4             1.2964    -2.3127    -0.0772 C.ar    
   5 C5             0.1960    -2.8417     0.5869 C.ar    
   6 C6            -0.9651    -2.1018     0.7089 C.ar    
   7 C7            -1.0376    -0.8300     0.1779 C.ar    
   8 O8             0.9721     1.5766    -1.5598 O.2     
   9 O9            -1.1849     1.7375    -1.0619 O.3     
  10 N10            2.4697    -3.0665    -0.1982 N.am    
  11 C11            2.4152    -4.4119    -0.1401 C.2     
  12 O12            1.3389    -4.9751    -0.0869 O.2     
  13 N13            3.5538    -5.1331    -0.1411 N.am    
  14 C14            3.4945    -6.5956    -0.0780 C.3     
  15 C15            4.9147    -7.1646    -0.0931 C.3     
  16 O16           -0.0759   -12.0165    -1.8944 O.3     
  17 C17           -0.5396   -13.3685    -2.0674 C.3     
  18 O18            0.6102   -14.0607    -2.5887 O.3     
  19 C19            1.6938   -13.3736    -2.1213 C.ar    
  20 C20            1.2714   -12.1163    -1.6955 C.ar    
  21 C21            3.0280   -13.7253    -2.0222 C.ar    
  22 C22            3.9564   -12.8295    -1.5003 C.ar    
  23 C23            3.5238   -11.5735    -1.0859 C.ar    
  24 C24            2.1933   -11.2220    -1.1777 C.ar    
  25 O25            5.2973   -12.9806    -1.3017 O.3     
  26 C26            4.7450   -10.8366    -0.6045 C.3     
  27 C27            5.9040   -11.6830    -1.1484 C.3     
  28 N28            4.8555    -8.6271    -0.0300 N.am    
  29 C29            4.7949    -9.4252    -1.1146 C.2     
  30 C30            4.7898   -10.7212     0.8903 C.ar    
  31 C31            4.7774   -11.6395     1.9163 C.ar    
  32 C32            4.8322   -11.2110     3.2306 C.ar    
  33 C33            4.8988    -9.8584     3.5113 C.ar    
  34 C34            4.9105    -8.9346     2.4872 C.ar    
  35 C35            4.8561    -9.3569     1.1612 C.ar    
  36 O36            4.7833    -9.0725    -2.2750 O.2     
  37 C37            2.4235    -0.4637    -1.3413 C.3     
  38 C38           -1.1866     3.0674    -1.6448 C.3     
  39 H39            0.2482    -3.8345     1.0088 H       
  40 H40           -1.8171    -2.5186     1.2254 H       
  41 H41           -1.9449    -0.2530     0.2797 H       
  42 H42            3.3219    -2.6206    -0.3238 H       
  43 H43            4.4124    -4.6839    -0.1835 H       
  44 H44            2.9910    -6.8996     0.8397 H       
  45 H45            2.9422    -6.9743    -0.9380 H       
  46 H46            5.4182    -6.8606    -1.0108 H       
  47 H47            5.4670    -6.7859     0.7669 H       
  48 H48           -0.8423   -13.7949    -1.1110 H       
  49 H49           -1.3631   -13.4026    -2.7807 H       
  50 H50            3.3513   -14.7015    -2.3521 H       
  51 H51            1.8696   -10.2468    -0.8453 H       
  52 H52            6.7247   -11.7215    -0.4321 H       
  53 H53            6.2456   -11.2993    -2.1098 H       
  54 H54            4.7251   -12.6953     1.6947 H       
  55 H55            4.8234   -11.9311     4.0355 H       
  56 H56            4.9414    -9.5239     4.5373 H       
  57 H57            4.9621    -7.8800     2.7144 H       
  58 H58            2.9907     0.1692    -0.6588 H       
  59 H59            3.0589    -1.2745    -1.6977 H       
  60 H60            2.0827     0.1304    -2.1892 H       
  61 H61           -0.4804     3.7005    -1.1075 H       
  62 H62           -0.8941     3.0050    -2.6929 H       
  63 H63           -2.1865     3.4950    -1.5714 H       
@<TRIPOS>BOND
   1    1    2 1
   2    1    8 2
   3    1    9 1
   4    2    3 ar
   5    2    7 ar
   6    3    4 ar
   7    3   37 1
   8    4    5 ar
   9    4   10 1
  10    5    6 ar
  11    5   39 1
  12    6    7 ar
  13    6   40 1
  14    7   41 1
  15    9   38 1
  16   10   11 am
  17   10   42 1
  18   11   12 2
  19   11   13 am
  20   13   14 1
  21   13   43 1
  22   14   15 1
  23   14   44 1
  24   14   45 1
  25   15   28 1
  26   15   46 1
  27   15   47 1
  28   16   17 1
  29   16   20 1
  30   17   18 1
  31   17   48 1
  32   17   49 1
  33   18   19 1
  34   19   20 ar
  35   19   21 ar
  36   20   24 ar
  37   21   22 ar
  38   21   50 1
  39   22   23 ar
  40   22   25 1
  41   23   24 ar
  42   23   26 1
  43   24   51 1
  44   25   27 1
  45   26   27 1
  46   26   29 1
  47   26   30 1
  48   27   52 1
  49   27   53 1
  50   28   29 am
  51   28   35 1
  52   29   36 2
  53   30   31 ar
  54   30   35 ar
  55   31   32 ar
  56   31   54 1
  57   32   33 ar
  58   32   55 1
  59   33   34 ar
  60   33   56 1
  61   34   35 ar
  62   34   57 1
  63   37   58 1
  64   37   59 1
  65   37   60 1
  66   38   61 1
  67   38   62 1
  68   38   63 1

#	End of record

