#	Name: ASD00100074
#	Creating user name:	WinNT
#	Creation time:	15. 06. 2019 18:30

#	Modifying user name:	WinNT
#	Modification time:	15. 06. 2019 18:30

#	Program:	/corina/corina34_cracker 3.40 0067  02.08.2006

@<TRIPOS>MOLECULE
ASD00100074
  71   76    0    0    0
SMALL
NO_CHARGES


@<TRIPOS>ATOM
   1 N1            -0.0157     1.3070     0.0092 N.ar    
   2 C2             0.0021    -0.0041     0.0020 C.ar    
   3 C3             1.1963    -0.7215    -0.0132 C.ar    
   4 C4             2.3896    -0.0574    -0.0210 C.ar    
   5 C5             2.3666     1.3514    -0.0132 C.ar    
   6 C6             3.5530     2.0975    -0.0210 C.ar    
   7 C7             3.4862     3.4817    -0.0134 C.ar    
   8 C8             2.2407     4.1336     0.0024 C.ar    
   9 C9             1.0828     3.4254     0.0105 C.ar    
  10 C10            1.1156     2.0186     0.0022 C.ar    
  11 C11            4.7315     4.2771    -0.0214 C.2     
  12 O12            5.8104     3.7171    -0.0347 O.2     
  13 N13            4.6712     5.6235    -0.0141 N.am    
  14 C14            5.9058     6.4121    -0.0221 C.3     
  15 C15            5.6261     7.7914    -0.6221 C.3     
  16 C16            6.9154     8.6150    -0.6305 C.3     
  17 C17            7.4268     8.7764     0.8025 C.3     
  18 C18            7.7066     7.3971     1.4025 C.3     
  19 C19            6.4172     6.5735     1.4109 C.3     
  20 C20            8.7162     9.6000     0.7941 C.3     
  21 C21            9.1599     9.8673     2.2338 C.3     
  22 N22           10.3979    10.6581     2.2258 N.3     
  23 C23           10.7263    11.1352     3.5752 C.3     
  24 C24           11.9348    12.0717     3.5065 C.3     
  25 C25           13.1253    11.3176     2.9077 C.3     
  26 C26           12.7408    10.7897     1.5228 C.3     
  27 C27           11.5090     9.8904     1.6489 C.3     
  28 O28           15.5680    13.9534     2.1955 O.3     
  29 C29           14.3564    13.3846     2.0690 C.2     
  30 C30           14.3013    12.2515     2.7820 C.2     
  31 C31           15.6166    12.1031     3.4164 C.ar    
  32 C32           16.3632    13.2176     2.9983 C.ar    
  33 C33           16.1877    11.1563     4.2651 C.ar    
  34 C34           17.4875    11.3203     4.6910 C.ar    
  35 C35           18.2251    12.4204     4.2786 C.ar    
  36 C36           17.6720    13.3639     3.4393 C.ar    
  37 H37           -0.9342    -0.5423     0.0084 H       
  38 H38            1.1783    -1.8013    -0.0185 H       
  39 H39            3.3251    -0.5971    -0.0325 H       
  40 H40            4.5106     1.5982    -0.0324 H       
  41 H41            2.2047     5.2130     0.0085 H       
  42 H42            0.1347     3.9425     0.0233 H       
  43 H43            3.8103     6.0704    -0.0036 H       
  44 H44            6.6594     5.9012    -0.6214 H       
  45 H45            5.2618     7.6765    -1.6430 H       
  46 H46            4.8725     8.3023    -0.0228 H       
  47 H47            7.6690     8.1041    -1.2298 H       
  48 H48            6.7161     9.5977    -1.0580 H       
  49 H49            6.6732     9.2873     1.4018 H       
  50 H50            8.4601     6.8862     0.8032 H       
  51 H51            8.0709     7.5120     2.4234 H       
  52 H52            5.6636     7.0844     2.0102 H       
  53 H53            6.6165     5.5908     1.8383 H       
  54 H54            9.4964     9.0481     0.2700 H       
  55 H55            8.5384    10.5482     0.2867 H       
  56 H56            8.3797    10.4192     2.7579 H       
  57 H57            9.3377     8.9191     2.7412 H       
  58 H58            9.8729    11.6732     3.9878 H       
  59 H59           10.9623    10.2841     4.2139 H       
  60 H60           11.6948    12.9300     2.8790 H       
  61 H61           12.1879    12.4133     4.5101 H       
  62 H62           13.3902    10.4819     3.5554 H       
  63 H63           12.5135    11.6279     0.8641 H       
  64 H64           13.5698    10.2155     1.1091 H       
  65 H65           11.7412     9.0451     2.2967 H       
  66 H66           11.2240     9.5244     0.6626 H       
  67 H67           13.5450    13.7834     1.4782 H       
  68 H68           15.6145    10.2995     4.5873 H       
  69 H69           17.9341    10.5894     5.3489 H       
  70 H70           19.2432    12.5391     4.6188 H       
  71 H71           18.2561    14.2161     3.1249 H       
@<TRIPOS>BOND
   1    1    2 ar
   2    1   10 ar
   3    2    3 ar
   4    2   37 1
   5    3    4 ar
   6    3   38 1
   7    4    5 ar
   8    4   39 1
   9    5    6 ar
  10    5   10 ar
  11    6    7 ar
  12    6   40 1
  13    7    8 ar
  14    7   11 1
  15    8    9 ar
  16    8   41 1
  17    9   10 ar
  18    9   42 1
  19   11   12 2
  20   11   13 am
  21   13   14 1
  22   13   43 1
  23   14   15 1
  24   14   19 1
  25   14   44 1
  26   15   16 1
  27   15   45 1
  28   15   46 1
  29   16   17 1
  30   16   47 1
  31   16   48 1
  32   17   18 1
  33   17   20 1
  34   17   49 1
  35   18   19 1
  36   18   50 1
  37   18   51 1
  38   19   52 1
  39   19   53 1
  40   20   21 1
  41   20   54 1
  42   20   55 1
  43   21   22 1
  44   21   56 1
  45   21   57 1
  46   22   23 1
  47   22   27 1
  48   23   24 1
  49   23   58 1
  50   23   59 1
  51   24   25 1
  52   24   60 1
  53   24   61 1
  54   25   26 1
  55   25   30 1
  56   25   62 1
  57   26   27 1
  58   26   63 1
  59   26   64 1
  60   27   65 1
  61   27   66 1
  62   28   29 1
  63   28   32 1
  64   29   30 2
  65   29   67 1
  66   30   31 1
  67   31   32 ar
  68   31   33 ar
  69   32   36 ar
  70   33   34 ar
  71   33   68 1
  72   34   35 ar
  73   34   69 1
  74   35   36 ar
  75   35   70 1
  76   36   71 1

#	End of record

