#	Name: ASD01911278
#	Creating user name:	WinNT
#	Creation time:	15. 06. 2019 19:57

#	Modifying user name:	WinNT
#	Modification time:	15. 06. 2019 19:57

#	Program:	/corina/corina34_cracker 3.40 0067  02.08.2006

@<TRIPOS>MOLECULE
ASD01911278
  41   44    0    0    0
SMALL
NO_CHARGES


@<TRIPOS>ATOM
   1 C1             0.4029     1.5229     0.6800 C.3     
   2 C2             0.2879    -0.0032     0.4811 C.3     
   3 N3             1.4444    -0.4271    -0.3217 N.am    
   4 C4             2.2530     0.7611    -0.6500 C.3     
   5 C5             1.9153     1.7892     0.4584 C.3     
   6 C6             1.7200    -1.6925    -0.6949 C.2     
   7 O7             2.6535    -1.9165    -1.4407 O.2     
   8 C8             0.8877    -2.8071    -0.1978 C.ar    
   9 C9             3.7209     0.4210    -0.6203 C.2     
  10 N10            4.6178     0.7674    -1.5097 N.2     
  11 C11            5.7850     0.2443    -1.0712 C.2     
  12 N12            5.5308    -0.3829     0.0476 N.2     
  13 O13            4.3532    -0.2859     0.3216 O.3     
  14 C14            7.1071     0.3598    -1.7357 C.ar    
  15 C15            8.2304    -0.2344    -1.1649 C.ar    
  16 C16            9.4584    -0.1246    -1.7861 C.ar    
  17 C17            9.5759     0.5739    -2.9735 C.ar    
  18 C18            8.4628     1.1677    -3.5463 C.ar    
  19 C19            7.2278     1.0581    -2.9352 C.ar    
  20 F20            8.5836     1.8498    -4.7062 F       
  21 C21            1.2657    -4.1285    -0.4456 C.ar    
  22 C22            0.4854    -5.1647     0.0205 C.ar    
  23 C23           -0.6729    -4.8971     0.7342 C.ar    
  24 C24           -1.0530    -3.5870     0.9826 C.ar    
  25 C25           -0.2768    -2.5433     0.5264 C.ar    
  26 F26           -1.4340    -5.9165     1.1888 F       
  27 H27           -0.1948     2.0544    -0.0605 H       
  28 H28            0.1059     1.8036     1.6905 H       
  29 H29            0.3040    -0.5053     1.4484 H       
  30 H30           -0.6362    -0.2396    -0.0463 H       
  31 H31            1.9730     1.1520    -1.6282 H       
  32 H32            2.0858     2.8083     0.1111 H       
  33 H33            2.4847     1.5869     1.3656 H       
  34 H34            8.1408    -0.7802    -0.2373 H       
  35 H35           10.3293    -0.5850    -1.3434 H       
  36 H36           10.5386     0.6572    -3.4559 H       
  37 H37            6.3600     1.5209    -3.3816 H       
  38 H38            2.1675    -4.3380    -1.0017 H       
  39 H39            0.7766    -6.1870    -0.1708 H       
  40 H40           -1.9563    -3.3841     1.5387 H       
  41 H41           -0.5736    -1.5232     0.7208 H       
@<TRIPOS>BOND
   1    1    2 1
   2    1    5 1
   3    1   27 1
   4    1   28 1
   5    2    3 1
   6    2   29 1
   7    2   30 1
   8    3    4 1
   9    3    6 am
  10    4    5 1
  11    4    9 1
  12    4   31 1
  13    5   32 1
  14    5   33 1
  15    6    7 2
  16    6    8 1
  17    8   21 ar
  18    8   25 ar
  19    9   10 2
  20    9   13 1
  21   10   11 1
  22   11   12 2
  23   11   14 1
  24   12   13 1
  25   14   15 ar
  26   14   19 ar
  27   15   16 ar
  28   15   34 1
  29   16   17 ar
  30   16   35 1
  31   17   18 ar
  32   17   36 1
  33   18   19 ar
  34   18   20 1
  35   19   37 1
  36   21   22 ar
  37   21   38 1
  38   22   23 ar
  39   22   39 1
  40   23   24 ar
  41   23   26 1
  42   24   25 ar
  43   24   40 1
  44   25   41 1

#	End of record

