#	Name: ASD03090072
#	Creating user name:	WinNT
#	Creation time:	15. 06. 2019 20:28

#	Modifying user name:	WinNT
#	Modification time:	15. 06. 2019 20:28

#	Program:	/corina/corina34_cracker 3.40 0067  02.08.2006

@<TRIPOS>MOLECULE
ASD03090072
  40   42    0    0    0
SMALL
NO_CHARGES


@<TRIPOS>ATOM
   1 C1             0.0160     1.3833    -0.1012 C.ar    
   2 C2             0.0480     0.0031    -0.1347 C.ar    
   3 C3             1.2574    -0.6596    -0.2506 C.ar    
   4 C4             2.4377     0.0582    -0.3336 C.ar    
   5 C5             2.4116     1.4385    -0.3006 C.ar    
   6 C6             1.1991     2.1065    -0.1843 C.ar    
   7 N7             1.1697     3.5036    -0.1511 N.pl3   
   8 Cl8            1.2940    -2.3948    -0.2912 Cl      
   9 C9            -0.0225     4.1587    -0.0369 C.2     
  10 C10           -0.0439     5.5102     0.1194 C.2     
  11 C11            1.2062     6.2425     0.3359 C.2     
  12 O12            2.2477     5.6337     0.4994 O.2     
  13 N13            1.2034     7.5901     0.3539 N.am    
  14 C14            2.4103     8.2909     0.4520 C.ar    
  15 C15            3.5560     7.7913    -0.1535 C.ar    
  16 C16            4.7459     8.4854    -0.0556 C.ar    
  17 C17            4.7973     9.6776     0.6451 C.ar    
  18 C18            3.6572    10.1777     1.2494 C.ar    
  19 C19            2.4635     9.4903     1.1501 C.ar    
  20 Cl20           6.2949    10.5472     0.7667 Cl      
  21 C21           -1.3328     6.2419     0.0705 C.2     
  22 N22           -1.4980     7.5450     0.2061 N.2     
  23 N23           -2.8790     7.7722     0.0876 N.pl3   
  24 N24           -3.4376     6.6265    -0.1056 N.2     
  25 N25           -2.5418     5.7045    -0.1247 N.2     
  26 C26           -3.5575     9.0681     0.1687 C.3     
  27 H27           -0.9284     1.9001    -0.0148 H       
  28 H28           -0.8715    -0.5596    -0.0700 H       
  29 H29            3.3801    -0.4616    -0.4240 H       
  30 H30            3.3331     1.9982    -0.3647 H       
  31 H31            1.9964     4.0077    -0.2093 H       
  32 H32           -0.9487     3.6042    -0.0705 H       
  33 H33            0.3646     8.0741     0.2989 H       
  34 H34            3.5164     6.8607    -0.7002 H       
  35 H35            5.6372     8.0972    -0.5260 H       
  36 H36            3.7001    11.1083     1.7956 H       
  37 H37            1.5740     9.8810     1.6219 H       
  38 H38           -3.6190     9.5090    -0.8262 H       
  39 H39           -4.5625     8.9277     0.5667 H       
  40 H40           -2.9958     9.7318     0.8261 H       
@<TRIPOS>BOND
   1    1    2 ar
   2    1    6 ar
   3    1   27 1
   4    2    3 ar
   5    2   28 1
   6    3    4 ar
   7    3    8 1
   8    4    5 ar
   9    4   29 1
  10    5    6 ar
  11    5   30 1
  12    6    7 1
  13    7    9 1
  14    7   31 1
  15    9   10 2
  16    9   32 1
  17   10   11 1
  18   10   21 1
  19   11   12 2
  20   11   13 am
  21   13   14 1
  22   13   33 1
  23   14   15 ar
  24   14   19 ar
  25   15   16 ar
  26   15   34 1
  27   16   17 ar
  28   16   35 1
  29   17   18 ar
  30   17   20 1
  31   18   19 ar
  32   18   36 1
  33   19   37 1
  34   21   22 2
  35   21   25 1
  36   22   23 1
  37   23   24 1
  38   23   26 1
  39   24   25 2
  40   26   38 1
  41   26   39 1
  42   26   40 1

#	End of record

