#	Name: ASD01882723
#	Creating user name:	WinNT
#	Creation time:	15. 06. 2019 19:45

#	Modifying user name:	WinNT
#	Modification time:	15. 06. 2019 19:45

#	Program:	/corina/corina34_cracker 3.40 0067  02.08.2006

@<TRIPOS>MOLECULE
ASD01882723
  26   27    0    0    0
SMALL
NO_CHARGES


@<TRIPOS>ATOM
   1 N1            -0.0165     1.3692     0.0096 N.pl3   
   2 O2             1.1412    -0.7243    -0.0127 O.3     
   3 C3             0.0021    -0.0041     0.0020 C.2     
   4 N4            -1.0753    -0.7270     0.0089 N.2     
   5 C5            -0.6823    -2.1496     0.0076 C.3     
   6 C6             0.8153    -2.0697     0.3922 C.3     
   7 C7             1.6390    -3.0940    -0.3909 C.3     
   8 O8             3.0178    -2.9666    -0.0377 O.3     
   9 C9             3.8917    -3.8097    -0.6485 C.ar    
  10 C10            5.2452    -3.7409    -0.3525 C.ar    
  11 C11            6.1318    -4.5989    -0.9739 C.ar    
  12 C12            5.6705    -5.5266    -1.8910 C.ar    
  13 C13            4.3208    -5.5968    -2.1876 C.ar    
  14 C14            3.4305    -4.7440    -1.5643 C.ar    
  15 Cl15           6.7866    -6.6034    -2.6711 Cl      
  16 H16            0.8168     1.8655     0.0043 H       
  17 H17           -0.8631     1.8427     0.0162 H       
  18 H18           -1.2463    -2.7101     0.7532 H       
  19 H19           -0.8071    -2.5872    -0.9829 H       
  20 H20            0.9511    -2.1991     1.4659 H       
  21 H21            1.2935    -4.0992    -0.1495 H       
  22 H22            1.5198    -2.9156    -1.4596 H       
  23 H23            5.6057    -3.0166     0.3630 H       
  24 H24            7.1857    -4.5453    -0.7440 H       
  25 H25            3.9626    -6.3216    -2.9037 H       
  26 H26            2.3765    -4.8018    -1.7930 H       
@<TRIPOS>BOND
   1    1    3 1
   2    1   16 1
   3    1   17 1
   4    2    3 1
   5    2    6 1
   6    3    4 2
   7    4    5 1
   8    5    6 1
   9    5   18 1
  10    5   19 1
  11    6    7 1
  12    6   20 1
  13    7    8 1
  14    7   21 1
  15    7   22 1
  16    8    9 1
  17    9   10 ar
  18    9   14 ar
  19   10   11 ar
  20   10   23 1
  21   11   12 ar
  22   11   24 1
  23   12   13 ar
  24   12   15 1
  25   13   14 ar
  26   13   25 1
  27   14   26 1

#	End of record

