#	Name: ASD01913739
#	Creating user name:	WinNT
#	Creation time:	15. 06. 2019 20:02

#	Modifying user name:	WinNT
#	Modification time:	15. 06. 2019 20:02

#	Program:	/corina/corina34_cracker 3.40 0067  02.08.2006

@<TRIPOS>MOLECULE
ASD01913739
  51   52    0    0    0
SMALL
NO_CHARGES


@<TRIPOS>ATOM
   1 O1            -1.3488     1.0585    -2.1088 O.3     
   2 C2            -1.1332    -0.2353    -1.7690 C.ar    
   3 C3            -2.2192    -1.0776    -1.5531 C.ar    
   4 C4            -1.9935    -2.3943    -1.2073 C.ar    
   5 C5            -0.6670    -2.8333    -1.0866 C.ar    
   6 C6             0.3693    -1.9279    -1.3193 C.ar    
   7 N7             0.1084    -0.6813    -1.6525 N.ar    
   8 C8            -0.3712    -4.2319    -0.7185 C.2     
   9 N9             0.9073    -4.6431    -0.6054 N.am    
  10 O10           -1.2810    -5.0130    -0.5175 O.2     
  11 C11           -0.1950     1.8753    -2.3177 C.3     
  12 C12           -0.6276     3.2713    -2.6852 C.ar    
  13 C13           -0.8310     4.2146    -1.6955 C.ar    
  14 C14           -1.2284     5.4957    -2.0311 C.ar    
  15 C15           -1.4227     5.8344    -3.3565 C.ar    
  16 C16           -1.2189     4.8903    -4.3489 C.ar    
  17 C17           -0.8155     3.6096    -4.0121 C.ar    
  18 C18            1.2008    -6.0311    -0.2401 C.3     
  19 C19            1.1856    -6.9033    -1.4970 C.3     
  20 F20           -1.4087     5.2204    -5.6452 F       
  21 C21            2.5813    -6.1050     0.4153 C.3     
  22 O22            3.5759    -5.6830    -0.5200 O.3     
  23 C23            4.9085    -5.7145    -0.0052 C.3     
  24 C24            2.1252    -6.3039    -2.5452 C.3     
  25 C25            1.6522    -8.3167    -1.1426 C.3     
  26 C26           -0.2358    -6.9617    -2.0601 C.3     
  27 H27           -3.2278    -0.7050    -1.6546 H       
  28 H28           -2.8179    -3.0700    -1.0335 H       
  29 H29            1.3949    -2.2540    -1.2291 H       
  30 H30            1.6331    -4.0199    -0.7658 H       
  31 H31            0.3978     1.9074    -1.4036 H       
  32 H32            0.4052     1.4565    -3.1254 H       
  33 H33           -0.6796     3.9506    -0.6592 H       
  34 H34           -1.3873     6.2318    -1.2570 H       
  35 H35           -1.7338     6.8349    -3.6184 H       
  36 H36           -0.6563     2.8725    -4.7852 H       
  37 H37            0.4465    -6.3898     0.4602 H       
  38 H38            2.6042    -5.4533     1.2887 H       
  39 H39            2.7834    -7.1312     0.7222 H       
  40 H40            5.6036    -5.3802    -0.7755 H       
  41 H41            4.9797    -5.0547     0.8595 H       
  42 H42            5.1589    -6.7326     0.2929 H       
  43 H43            3.1586    -6.4356    -2.2245 H       
  44 H44            1.9739    -6.8082    -3.4996 H       
  45 H45            1.9126    -5.2408    -2.6582 H       
  46 H46            0.9828    -8.7438    -0.3959 H       
  47 H47            1.6414    -8.9381    -2.0381 H       
  48 H48            2.6648    -8.2751    -0.7414 H       
  49 H49           -0.5682    -5.9548    -2.3126 H       
  50 H50           -0.2466    -7.5831    -2.9556 H       
  51 H51           -0.9052    -7.3888    -1.3134 H       
@<TRIPOS>BOND
   1    1    2 1
   2    1   11 1
   3    2    3 ar
   4    2    7 ar
   5    3    4 ar
   6    3   27 1
   7    4    5 ar
   8    4   28 1
   9    5    6 ar
  10    5    8 1
  11    6    7 ar
  12    6   29 1
  13    8    9 am
  14    8   10 2
  15    9   18 1
  16    9   30 1
  17   11   12 1
  18   11   31 1
  19   11   32 1
  20   12   13 ar
  21   12   17 ar
  22   13   14 ar
  23   13   33 1
  24   14   15 ar
  25   14   34 1
  26   15   16 ar
  27   15   35 1
  28   16   17 ar
  29   16   20 1
  30   17   36 1
  31   18   19 1
  32   18   21 1
  33   18   37 1
  34   19   24 1
  35   19   25 1
  36   19   26 1
  37   21   22 1
  38   21   38 1
  39   21   39 1
  40   22   23 1
  41   23   40 1
  42   23   41 1
  43   23   42 1
  44   24   43 1
  45   24   44 1
  46   24   45 1
  47   25   46 1
  48   25   47 1
  49   25   48 1
  50   26   49 1
  51   26   50 1
  52   26   51 1

#	End of record

