#	Name: ASD03900022
#	Creating user name:	WinNT
#	Creation time:	15. 06. 2019 20:47

#	Modifying user name:	WinNT
#	Modification time:	15. 06. 2019 20:47

#	Program:	/corina/corina34_cracker 3.40 0067  02.08.2006

@<TRIPOS>MOLECULE
ASD03900022
  38   41    0    0    0
SMALL
NO_CHARGES


@<TRIPOS>ATOM
   1 C1             0.4852     0.5819     0.0728 C.ar    
   2 C2             0.8201    -0.7601     0.1209 C.ar    
   3 C3             2.1482    -1.1399     0.1355 C.ar    
   4 C4             3.1495    -0.1762     0.1030 C.ar    
   5 C5             2.8106     1.1662     0.0550 C.ar    
   6 C6             1.4787     1.5413     0.0393 C.ar    
   7 O7             4.4459    -0.5685     0.1198 O.3     
   8 C8             5.4132     0.2995     0.5016 C.ar    
   9 C9             5.1957     1.6675     0.4747 C.ar    
  10 C10            3.8758     2.2282     0.0195 C.3     
  11 C11            6.6409    -0.1958     0.9256 C.ar    
  12 C12            7.6405     0.6732     1.3182 C.ar    
  13 C13            7.4197     2.0390     1.2901 C.ar    
  14 C14            6.2003     2.5335     0.8694 C.ar    
  15 N15            2.6839     6.0324    -0.7126 N.am    
  16 C16            3.5932     5.0518    -0.5452 C.2     
  17 C17            3.8767     4.1102    -1.6492 C.ar    
  18 C18            4.0148     2.7461    -1.3888 C.ar    
  19 C19            4.0017     4.5810    -2.9574 C.ar    
  20 C20            4.2662     3.6972    -3.9829 C.ar    
  21 C21            4.4077     2.3466    -3.7171 C.ar    
  22 C22            4.2794     1.8727    -2.4237 C.ar    
  23 O23            4.1802     4.9415     0.5135 O.2     
  24 Cl24           9.1728     0.0519     1.8471 Cl      
  25 Cl25          -0.4284    -1.9656     0.1634 Cl      
  26 H26           -0.5530     0.8790     0.0569 H       
  27 H27            2.4090    -2.1873     0.1726 H       
  28 H28            1.2149     2.5879     0.0013 H       
  29 H29            3.5877     3.0486     0.6769 H       
  30 H30            6.8135    -1.2617     0.9483 H       
  31 H31            8.2010     2.7186     1.5970 H       
  32 H32            6.0304     3.5999     0.8484 H       
  33 H33            2.2155     6.1204    -1.5574 H       
  34 H34            2.4979     6.6502     0.0118 H       
  35 H35            3.8911     5.6348    -3.1662 H       
  36 H36            4.3632     4.0602    -4.9954 H       
  37 H37            4.6141     1.6587    -4.5237 H       
  38 H38            4.3913     0.8175    -2.2229 H       
@<TRIPOS>BOND
   1    1    2 ar
   2    1    6 ar
   3    1   26 1
   4    2    3 ar
   5    2   25 1
   6    3    4 ar
   7    3   27 1
   8    4    5 ar
   9    4    7 1
  10    5    6 ar
  11    5   10 1
  12    6   28 1
  13    7    8 1
  14    8    9 ar
  15    8   11 ar
  16    9   10 1
  17    9   14 ar
  18   10   18 1
  19   10   29 1
  20   11   12 ar
  21   11   30 1
  22   12   13 ar
  23   12   24 1
  24   13   14 ar
  25   13   31 1
  26   14   32 1
  27   15   16 am
  28   15   33 1
  29   15   34 1
  30   16   17 1
  31   16   23 2
  32   17   18 ar
  33   17   19 ar
  34   18   22 ar
  35   19   20 ar
  36   19   35 1
  37   20   21 ar
  38   20   36 1
  39   21   22 ar
  40   21   37 1
  41   22   38 1

#	End of record

