#	Name: ASD01816467
#	Creating user name:	WinNT
#	Creation time:	15. 06. 2019 19:35

#	Modifying user name:	WinNT
#	Modification time:	15. 06. 2019 19:35

#	Program:	/corina/corina34_cracker 3.40 0067  02.08.2006

@<TRIPOS>MOLECULE
ASD01816467
  52   57    0    0    0
SMALL
NO_CHARGES


@<TRIPOS>ATOM
   1 C1             0.1060     1.4780     0.3833 C.ar    
   2 C2             0.0860     0.0927     0.3748 C.ar    
   3 C3             1.2567    -0.6268     0.2349 C.ar    
   4 C4             2.4721     0.0396     0.1013 C.ar    
   5 C5             2.4869     1.4438     0.1105 C.ar    
   6 C6             1.3002     2.1563     0.2518 C.ar    
   7 N7             3.6503    -0.6749    -0.0384 N.pl3   
   8 C8             4.8500    -0.0874    -0.1705 C.2     
   9 C9             4.9883     1.2786    -0.1756 C.2     
  10 C10            3.7853     2.1298    -0.0325 C.2     
  11 C11            6.1035     2.2127    -0.2948 C.2     
  12 N12            5.5671     3.4501    -0.2243 N.am    
  13 N13            4.1811     3.3698    -0.0677 N.2     
  14 C14            6.2933     4.6386    -0.2970 C.ar    
  15 O15            7.2831     1.9320    -0.4304 O.2     
  16 C16            3.5842    -2.1384    -0.0418 C.3     
  17 C17            3.4390    -2.6314    -1.4585 C.ar    
  18 C18            4.5589    -2.7785    -2.2561 C.ar    
  19 C19            4.4289    -3.2297    -3.5550 C.ar    
  20 C20            3.1723    -3.5361    -4.0595 C.ar    
  21 C21            2.0497    -3.3879    -3.2561 C.ar    
  22 C22            2.1866    -2.9412    -1.9563 C.ar    
  23 N23            3.0371    -3.9939    -5.3776 N.pl3   
  24 C24            1.8779    -4.3259    -5.9898 C.2     
  25 C25            2.1756    -4.7172    -7.2505 C.2     
  26 C26            3.5618    -4.6216    -7.4153 C.2     
  27 N27            4.0782    -4.1826    -6.2957 N.2     
  28 C28            7.1283     4.8805    -1.3786 C.ar    
  29 C29            7.8462     6.0582    -1.4490 C.ar    
  30 C30            7.7395     7.0053    -0.4440 C.ar    
  31 C31            6.9153     6.7821     0.6385 C.ar    
  32 C32            6.1787     5.5985     0.7206 C.ar    
  33 F33            1.2227    -1.9773     0.2282 F       
  34 C34            5.3207     5.3604     1.8422 C.1     
  35 N35            4.6401     5.1715     2.7318 N.1     
  36 H36           -0.8169     2.0289     0.4889 H       
  37 H37           -0.8537    -0.4294     0.4787 H       
  38 H38            1.3138     3.2362     0.2583 H       
  39 H39            5.7295    -0.7054    -0.2750 H       
  40 H40            4.4979    -2.5443     0.3923 H       
  41 H41            2.7264    -2.4648     0.5462 H       
  42 H42            5.5362    -2.5400    -1.8631 H       
  43 H43            5.3039    -3.3437    -4.1778 H       
  44 H44            1.0708    -3.6251    -3.6458 H       
  45 H45            1.3138    -2.8256    -1.3308 H       
  46 H46            0.8918    -4.2864    -5.5512 H       
  47 H47            1.4681    -5.0453    -7.9976 H       
  48 H48            4.1107    -4.8640    -8.3133 H       
  49 H49            7.2172     4.1468    -2.1662 H       
  50 H50            8.4950     6.2416    -2.2927 H       
  51 H51            8.3052     7.9231    -0.5085 H       
  52 H52            6.8362     7.5235     1.4198 H       
@<TRIPOS>BOND
   1    1    2 ar
   2    1    6 ar
   3    1   36 1
   4    2    3 ar
   5    2   37 1
   6    3    4 ar
   7    3   33 1
   8    4    5 ar
   9    4    7 1
  10    5    6 ar
  11    5   10 1
  12    6   38 1
  13    7    8 1
  14    7   16 1
  15    8    9 2
  16    8   39 1
  17    9   10 1
  18    9   11 1
  19   10   13 2
  20   11   12 am
  21   11   15 2
  22   12   13 1
  23   12   14 1
  24   14   28 ar
  25   14   32 ar
  26   16   17 1
  27   16   40 1
  28   16   41 1
  29   17   18 ar
  30   17   22 ar
  31   18   19 ar
  32   18   42 1
  33   19   20 ar
  34   19   43 1
  35   20   21 ar
  36   20   23 1
  37   21   22 ar
  38   21   44 1
  39   22   45 1
  40   23   24 1
  41   23   27 1
  42   24   25 2
  43   24   46 1
  44   25   26 1
  45   25   47 1
  46   26   27 2
  47   26   48 1
  48   28   29 ar
  49   28   49 1
  50   29   30 ar
  51   29   50 1
  52   30   31 ar
  53   30   51 1
  54   31   32 ar
  55   31   52 1
  56   32   34 1
  57   34   35 3

#	End of record

