#	Name: ASD04550042
#	Creating user name:	WinNT
#	Creation time:	15. 06. 2019 20:49

#	Modifying user name:	WinNT
#	Modification time:	15. 06. 2019 20:49

#	Program:	/corina/corina34_cracker 3.40 0067  02.08.2006

@<TRIPOS>MOLECULE
ASD04550042
  35   36    0    0    0
SMALL
NO_CHARGES


@<TRIPOS>ATOM
   1 C1            -0.0105     1.3811     0.0192 C.ar    
   2 C2             0.0042    -0.0076     0.0079 C.ar    
   3 C3             1.2160    -0.6862    -0.0052 C.ar    
   4 C4             2.4020     0.0215    -0.0069 C.ar    
   5 C5             2.3839     1.4042     0.0049 C.ar    
   6 C6             1.1790     2.0828     0.0175 C.ar    
   7 C7             3.6799     2.1732     0.0040 C.3     
   8 C8             3.7434     3.0642    -1.2382 C.3     
   9 N9            -1.1985    -0.7212     0.0101 N.am    
  10 C10           -1.2934    -1.8840    -0.6647 C.2     
  11 C11           -2.5240    -2.6970    -0.5669 C.ar    
  12 O12           -0.3669    -2.2642    -1.3539 O.2     
  13 C13           -2.6255    -3.9018    -1.2645 C.ar    
  14 C14           -3.7769    -4.6557    -1.1688 C.ar    
  15 C15           -4.8297    -4.2198    -0.3840 C.ar    
  16 C16           -4.7357    -3.0264     0.3097 C.ar    
  17 C17           -3.5874    -2.2661     0.2281 C.ar    
  18 C18            3.7565     3.0300     1.2413 C.2     
  19 O19            2.8515     3.0176     2.0417 O.2     
  20 O20            4.8301     3.8071     1.4542 O.3     
  21 H21           -0.9511     1.9118     0.0249 H       
  22 H22            1.2309    -1.7661    -0.0137 H       
  23 H23            3.3446    -0.5055    -0.0171 H       
  24 H24            1.1683     3.1627     0.0263 H       
  25 H25            4.5167     1.4748    -0.0067 H       
  26 H26            4.6809     3.6204    -1.2388 H       
  27 H27            3.6881     2.4444    -2.1331 H       
  28 H28            2.9066     3.7626    -1.2275 H       
  29 H29           -1.9644    -0.3793     0.4973 H       
  30 H30           -1.8048    -4.2428    -1.8780 H       
  31 H31           -3.8568    -5.5881    -1.7080 H       
  32 H32           -5.7290    -4.8137    -0.3128 H       
  33 H33           -5.5613    -2.6916     0.9204 H       
  34 H34           -3.5153    -1.3348     0.7701 H       
  35 H35            4.8339     4.3389     2.2618 H       
@<TRIPOS>BOND
   1    1    2 ar
   2    1    6 ar
   3    1   21 1
   4    2    3 ar
   5    2    9 1
   6    3    4 ar
   7    3   22 1
   8    4    5 ar
   9    4   23 1
  10    5    6 ar
  11    5    7 1
  12    6   24 1
  13    7    8 1
  14    7   18 1
  15    7   25 1
  16    8   26 1
  17    8   27 1
  18    8   28 1
  19    9   10 am
  20    9   29 1
  21   10   11 1
  22   10   12 2
  23   11   13 ar
  24   11   17 ar
  25   13   14 ar
  26   13   30 1
  27   14   15 ar
  28   14   31 1
  29   15   16 ar
  30   15   32 1
  31   16   17 ar
  32   16   33 1
  33   17   34 1
  34   18   19 2
  35   18   20 1
  36   20   35 1

#	End of record

