#	Name: ASD03080066
#	Creating user name:	WinNT
#	Creation time:	15. 06. 2019 20:26

#	Modifying user name:	WinNT
#	Modification time:	15. 06. 2019 20:26

#	Program:	/corina/corina34_cracker 3.40 0067  02.08.2006

@<TRIPOS>MOLECULE
ASD03080066
  43   45    0    0    0
SMALL
NO_CHARGES


@<TRIPOS>ATOM
   1 C1            -1.0218    -0.4378     0.7636 C.2     
   2 N2             0.0021    -0.0041     0.0020 N.am    
   3 O3            -0.8891    -1.4304     1.4519 O.2     
   4 O4            -2.1899     0.2319     0.7661 O.3     
   5 C5             1.2478    -0.6381     0.0771 C.ar    
   6 C6             1.3172    -2.0089     0.2717 C.ar    
   7 C7             2.5606    -2.6358     0.3458 C.ar    
   8 C8             3.7273    -1.8787     0.2234 C.ar    
   9 C9             3.6474    -0.5149     0.0299 C.ar    
  10 C10            2.4145     0.1057    -0.0492 C.ar    
  11 O11            1.6117    -4.9453     0.6873 O.3     
  12 N12            2.0234    -6.0752     0.8439 N.2     
  13 C13            3.3316    -6.0884     0.8300 C.2     
  14 N14            3.7453    -4.8175     0.6433 N.2     
  15 C15            2.6432    -4.0973     0.5537 C.2     
  16 C16            5.5877    -7.1561     0.9565 C.ar    
  17 C17            4.2006    -7.2811     0.9907 C.ar    
  18 C18            3.6406    -8.5471     1.1792 C.ar    
  19 C19            4.4940    -9.6277     1.3245 C.ar    
  20 C20            5.8604    -9.4213     1.2788 C.ar    
  21 N21            6.3599    -8.2135     1.0999 N.ar    
  22 C22           -3.2486    -0.2925     1.6101 C.3     
  23 C23           -2.7799    -0.3069     3.0665 C.3     
  24 C24           -4.4890     0.5941     1.4823 C.3     
  25 C25           -3.5925    -1.7171     1.1709 C.3     
  26 H26           -0.1243     0.7474    -0.5981 H       
  27 H27            0.4114    -2.5893     0.3660 H       
  28 H28            4.6922    -2.3605     0.2806 H       
  29 H29            4.5510     0.0692    -0.0642 H       
  30 H30            2.3582     1.1729    -0.2055 H       
  31 H31            6.0338    -6.1840     0.8070 H       
  32 H32            2.5692    -8.6795     1.2111 H       
  33 H33            4.0967   -10.6211     1.4722 H       
  34 H34            6.5291   -10.2617     1.3918 H       
  35 H35           -2.5349     0.7081     3.3794 H       
  36 H36           -3.5747    -0.7005     3.7001 H       
  37 H37           -1.8962    -0.9385     3.1575 H       
  38 H38           -4.8230     0.6044     0.4448 H       
  39 H39           -5.2838     0.2004     2.1159 H       
  40 H40           -4.2440     1.6090     1.7952 H       
  41 H41           -2.7089    -2.3487     1.2619 H       
  42 H42           -4.3873    -2.1108     1.8045 H       
  43 H43           -3.9265    -1.7069     0.1334 H       
@<TRIPOS>BOND
   1    1    2 am
   2    1    3 2
   3    1    4 1
   4    2    5 1
   5    2   26 1
   6    4   22 1
   7    5    6 ar
   8    5   10 ar
   9    6    7 ar
  10    6   27 1
  11    7    8 ar
  12    7   15 1
  13    8    9 ar
  14    8   28 1
  15    9   10 ar
  16    9   29 1
  17   10   30 1
  18   11   12 1
  19   11   15 1
  20   12   13 2
  21   13   14 1
  22   13   17 1
  23   14   15 2
  24   16   17 ar
  25   16   21 ar
  26   16   31 1
  27   17   18 ar
  28   18   19 ar
  29   18   32 1
  30   19   20 ar
  31   19   33 1
  32   20   21 ar
  33   20   34 1
  34   22   23 1
  35   22   25 1
  36   22   24 1
  37   23   35 1
  38   23   36 1
  39   23   37 1
  40   24   38 1
  41   24   39 1
  42   24   40 1
  43   25   41 1
  44   25   42 1
  45   25   43 1

#	End of record

