#	Name: ASD01148359
#	Creating user name:	WinNT
#	Creation time:	15. 06. 2019 19:02

#	Modifying user name:	WinNT
#	Modification time:	15. 06. 2019 19:02

#	Program:	/corina/corina34_cracker 3.40 0067  02.08.2006

@<TRIPOS>MOLECULE
ASD01148359
  53   55    0    0    0
SMALL
NO_CHARGES


@<TRIPOS>ATOM
   1 C1            -0.4099     1.8308    -0.0440 C.ar    
   2 C2            -0.4709     0.4505     0.0159 C.ar    
   3 C3             0.6963    -0.2907     0.0952 C.ar    
   4 C4             1.9216     0.3505     0.1143 C.ar    
   5 C5             1.9807     1.7304     0.0543 C.ar    
   6 C6             0.8158     2.4701    -0.0248 C.ar    
   7 C7             3.3161     2.4285     0.0752 C.3     
   8 O8             4.3314     1.6193    -0.5523 O.3     
   9 C9             3.3017     3.6788    -0.8364 C.3     
  10 C10            3.8438     3.1382    -2.1459 C.2     
  11 N11            4.3962     1.9948    -1.9139 N.2     
  12 C12            3.7545     3.8049    -3.4599 C.ar    
  13 C13            4.2988     3.1932    -4.5922 C.ar    
  14 C14            3.1209     5.0448    -3.5725 C.ar    
  15 C15            3.0378     5.6665    -4.7981 C.ar    
  16 C16            3.5865     5.0574    -5.9288 C.ar    
  17 C17            4.2156     3.8150    -5.8173 C.ar    
  18 C18            3.4964     5.7245    -7.2446 C.2     
  19 O19            4.0686     5.2507    -8.2068 O.2     
  20 N20            2.7797     6.8582    -7.3777 N.am    
  21 C21            4.8080     3.1582    -7.0374 C.3     
  22 C22            3.7159     2.7970     1.5053 C.3     
  23 F23            3.7877     1.6365     2.2832 F       
  24 F24            4.9645     3.4279     1.4926 F       
  25 F25            2.7610     3.6637     2.0478 F       
  26 Cl26           0.6214    -2.0234     0.1710 Cl      
  27 Cl27          -2.0098    -0.3527    -0.0076 Cl      
  28 C28            2.6903     7.5194    -8.6819 C.3     
  29 C29            1.8373     8.7559    -8.5608 C.2     
  30 N30            1.6140     9.5290    -9.6420 N.am    
  31 O31            1.3519     9.0553    -7.4905 O.2     
  32 C32            0.7847    10.7310    -9.5243 C.3     
  33 C33            0.6914    11.4216   -10.8864 C.3     
  34 F34            0.1158    10.5469   -11.8142 F       
  35 F35           -0.1005    12.5694   -10.7740 F       
  36 F36            1.9735    11.7798   -11.3164 F       
  37 H37           -1.3196     2.4092    -0.1103 H       
  38 H38            2.8322    -0.2269     0.1764 H       
  39 H39            0.8630     3.5480    -0.0716 H       
  40 H40            2.2860     4.0535    -0.9633 H       
  41 H41            3.9549     4.4554    -0.4384 H       
  42 H42            4.7851     2.2327    -4.5061 H       
  43 H43            2.6960     5.5155    -2.6982 H       
  44 H44            2.5479     6.6251    -4.8852 H       
  45 H45            2.3231     7.2363    -6.6099 H       
  46 H46            5.8044     3.5610    -7.2193 H       
  47 H47            4.8752     2.0825    -6.8745 H       
  48 H48            4.1729     3.3559    -7.9010 H       
  49 H49            3.6893     7.7986    -9.0170 H       
  50 H50            2.2418     6.8380    -9.4048 H       
  51 H51            2.0022     9.2895   -10.4980 H       
  52 H52           -0.2142    10.4518    -9.1892 H       
  53 H53            1.2332    11.4124    -8.8014 H       
@<TRIPOS>BOND
   1    1    2 ar
   2    1    6 ar
   3    1   37 1
   4    2    3 ar
   5    2   27 1
   6    3    4 ar
   7    3   26 1
   8    4    5 ar
   9    4   38 1
  10    5    6 ar
  11    5    7 1
  12    6   39 1
  13    7    8 1
  14    7    9 1
  15    7   22 1
  16    8   11 1
  17    9   10 1
  18    9   40 1
  19    9   41 1
  20   10   11 2
  21   10   12 1
  22   12   13 ar
  23   12   14 ar
  24   13   17 ar
  25   13   42 1
  26   14   15 ar
  27   14   43 1
  28   15   16 ar
  29   15   44 1
  30   16   17 ar
  31   16   18 1
  32   17   21 1
  33   18   19 2
  34   18   20 am
  35   20   28 1
  36   20   45 1
  37   21   46 1
  38   21   47 1
  39   21   48 1
  40   22   23 1
  41   22   24 1
  42   22   25 1
  43   28   29 1
  44   28   49 1
  45   28   50 1
  46   29   31 2
  47   29   30 am
  48   30   32 1
  49   30   51 1
  50   32   33 1
  51   32   52 1
  52   32   53 1
  53   33   34 1
  54   33   35 1
  55   33   36 1

#	End of record

