#	Name: ASD03330203
#	Creating user name:	WinNT
#	Creation time:	15. 06. 2019 20:36

#	Modifying user name:	WinNT
#	Modification time:	15. 06. 2019 20:36

#	Program:	/corina/corina34_cracker 3.40 0067  02.08.2006

@<TRIPOS>MOLECULE
ASD03330203
  55   57    0    0    0
SMALL
NO_CHARGES


@<TRIPOS>ATOM
   1 C1            -0.0862     1.1743     0.6092 C.ar    
   2 C2            -0.0743    -0.2935     0.4304 C.2     
   3 N3            -1.1625    -1.1098     0.4865 N.pl3   
   4 C4            -0.7280    -2.3837     0.2725 C.2     
   5 C5             0.6158    -2.3245     0.0880 C.2     
   6 N6             0.9874    -1.0275     0.1852 N.2     
   7 C7             1.5080    -3.4669    -0.1766 C.2     
   8 N8             2.8304    -3.2652    -0.3409 N.am    
   9 C9             0.5968     1.9958    -0.2912 C.ar    
  10 O10            1.0511    -4.5919    -0.2468 O.2     
  11 C11            3.7175    -4.4010    -0.6040 C.3     
  12 C12            3.7264    -4.7045    -2.1036 C.3     
  13 C13            5.1146    -4.0625    -0.1517 C.2     
  14 C14            4.1148    -3.4428    -2.8770 C.3     
  15 C15            0.5819     3.3672    -0.1196 C.ar    
  16 C16           -0.1079     3.9269     0.9424 C.ar    
  17 C17           -0.7878     3.1150     1.8402 C.ar    
  18 C18           -0.7846     1.7444     1.6746 C.ar    
  19 O19            5.4849    -2.9077    -0.1392 O.2     
  20 N20            5.9526    -5.0432     0.2389 N.am    
  21 C21            7.2705    -4.7069     0.7833 C.3     
  22 C22            4.7404    -5.8129    -2.3936 C.3     
  23 C23           -2.5598    -0.7411     0.7269 C.3     
  24 C24           -3.4586    -1.8980     0.2765 C.3     
  25 C25           -2.9632    -3.2072     0.8972 C.3     
  26 C26           -1.6235    -3.5960     0.2569 C.3     
  27 C27            2.3328    -5.1613    -2.5398 C.3     
  28 F28            1.2709     1.4507    -1.3273 F       
  29 F29           -0.1189     5.2679     1.1059 F       
  30 F30           -1.4582     3.6676     2.8749 F       
  31 H31            3.1948    -2.3680    -0.2849 H       
  32 H32            3.3607    -5.2747    -0.0586 H       
  33 H33            5.1076    -3.1173    -2.5663 H       
  34 H34            4.1211    -3.6590    -3.9453 H       
  35 H35            3.3924    -2.6532    -2.6704 H       
  36 H36            1.1095     4.0032    -0.8149 H       
  37 H37           -1.3140     1.1138     2.3737 H       
  38 H38            5.6831    -5.9716     0.1597 H       
  39 H39            7.1491    -4.0931     1.6758 H       
  40 H40            7.8014    -5.6231     1.0418 H       
  41 H41            7.8415    -4.1542     0.0372 H       
  42 H42            4.4332    -6.7280    -1.8874 H       
  43 H43            4.7875    -5.9902    -3.4681 H       
  44 H44            5.7231    -5.5100    -2.0320 H       
  45 H45           -2.7106    -0.5536     1.7900 H       
  46 H46           -2.8046     0.1553     0.1571 H       
  47 H47           -4.4826    -1.7085     0.5986 H       
  48 H48           -3.4297    -1.9779    -0.8102 H       
  49 H49           -2.8283    -3.0731     1.9704 H       
  50 H50           -3.6947    -3.9950     0.7173 H       
  51 H51           -1.7870    -3.9197    -0.7710 H       
  52 H52           -1.1625    -4.4016     0.8283 H       
  53 H53            1.6104    -4.3717    -2.3331 H       
  54 H54            2.3392    -5.3775    -3.6081 H       
  55 H55            2.0561    -6.0602    -1.9888 H       
@<TRIPOS>BOND
   1    1    2 1
   2    1    9 ar
   3    1   18 ar
   4    2    3 1
   5    2    6 2
   6    3    4 1
   7    3   23 1
   8    4    5 2
   9    4   26 1
  10    5    6 1
  11    5    7 1
  12    7    8 am
  13    7   10 2
  14    8   11 1
  15    8   31 1
  16    9   15 ar
  17    9   28 1
  18   11   12 1
  19   11   13 1
  20   11   32 1
  21   12   14 1
  22   12   22 1
  23   12   27 1
  24   13   19 2
  25   13   20 am
  26   14   33 1
  27   14   34 1
  28   14   35 1
  29   15   16 ar
  30   15   36 1
  31   16   17 ar
  32   16   29 1
  33   17   18 ar
  34   17   30 1
  35   18   37 1
  36   20   21 1
  37   20   38 1
  38   21   39 1
  39   21   40 1
  40   21   41 1
  41   22   42 1
  42   22   43 1
  43   22   44 1
  44   23   24 1
  45   23   45 1
  46   23   46 1
  47   24   25 1
  48   24   47 1
  49   24   48 1
  50   25   26 1
  51   25   49 1
  52   25   50 1
  53   26   51 1
  54   26   52 1
  55   27   53 1
  56   27   54 1
  57   27   55 1

#	End of record

