#	Name: ASD03240345
#	Creating user name:	WinNT
#	Creation time:	15. 06. 2019 20:34

#	Modifying user name:	WinNT
#	Modification time:	15. 06. 2019 20:34

#	Program:	/corina/corina34_cracker 3.40 0067  02.08.2006

@<TRIPOS>MOLECULE
ASD03240345
  55   58    0    0    0
SMALL
NO_CHARGES


@<TRIPOS>ATOM
   1 O1             0.2570     1.2753     0.6678 O.3     
   2 C2             1.5302    -0.7230     0.4010 C.ar    
   3 C3             2.7619     0.0801     0.4612 C.2     
   4 C4             2.6199     1.4820     0.6284 C.2     
   5 C5             1.3728     2.0224     0.7251 C.2     
   6 C6             0.2930    -0.0646     0.5108 C.ar    
   7 C7            -0.8791    -0.8037     0.4565 C.ar    
   8 C8            -0.8253    -2.1791     0.2953 C.ar    
   9 C9             0.3976    -2.8331     0.1863 C.ar    
  10 C10            1.5768    -2.1140     0.2385 C.ar    
  11 C11            1.2425     3.4809     0.8986 C.ar    
  12 C12            0.3513     4.2044     0.1013 C.ar    
  13 C13            0.2307     5.5676     0.2654 C.ar    
  14 C14            0.9926     6.2250     1.2213 C.ar    
  15 C15            1.8833     5.5100     2.0199 C.ar    
  16 C16            2.0058     4.1424     1.8648 C.ar    
  17 O17            2.6281     6.1576     2.9555 O.3     
  18 O18            0.8701     7.5691     1.3786 O.3     
  19 O19            3.7203     2.2802     0.6921 O.3     
  20 O20            3.8628    -0.4396     0.3715 O.2     
  21 O21            2.7708    -2.7503     0.1323 O.3     
  22 O22           -1.9774    -2.8953     0.2437 O.3     
  23 C23           -3.1975    -2.1759     0.4329 C.3     
  24 C24           -3.7303    -1.7097    -0.9235 C.3     
  25 C25           -5.0366    -0.9394    -0.7209 C.3     
  26 C26           -6.0682    -1.8515    -0.0539 C.3     
  27 C27           -5.5355    -2.3177     1.3025 C.3     
  28 C28           -4.2291    -3.0880     1.0999 C.3     
  29 O29           -2.7668    -0.8579    -1.5464 O.3     
  30 O30           -7.2884    -1.1321     0.1354 O.3     
  31 O31           -5.5342    -0.5040    -1.9877 O.3     
  32 C32           -6.5671    -3.2297     1.9695 C.3     
  33 O33           -6.1219    -3.5713     3.2837 O.3     
  34 H34           -1.8345    -0.3072     0.5404 H       
  35 H35            0.4257    -3.9054     0.0609 H       
  36 H36           -0.2425     3.6955    -0.6435 H       
  37 H37           -0.4581     6.1257    -0.3515 H       
  38 H38            2.6927     3.5866     2.4859 H       
  39 H39            2.2052     6.2165     3.8231 H       
  40 H40            0.1961     7.8301     2.0211 H       
  41 H41            4.5575     1.8028     0.6140 H       
  42 H42            3.0934    -2.8325    -0.7756 H       
  43 H43           -3.0137    -1.3096     1.0683 H       
  44 H44           -3.9141    -2.5760    -1.5589 H       
  45 H45           -4.8528    -0.0731    -0.0854 H       
  46 H46           -6.2521    -2.7178    -0.6893 H       
  47 H47           -5.3517    -1.4514     1.9379 H       
  48 H48           -4.4129    -3.9543     0.4644 H       
  49 H49           -3.8496    -3.4201     2.0662 H       
  50 H50           -3.0384    -0.5240    -2.4124 H       
  51 H51           -7.6838    -0.8058    -0.6846 H       
  52 H52           -4.9307     0.0793    -2.4679 H       
  53 H53           -7.5235    -2.7108     2.0333 H       
  54 H54           -6.6852    -4.1379     1.3784 H       
  55 H55           -6.7284    -4.1492     3.7666 H       
@<TRIPOS>BOND
   1    1    6 1
   2    1    5 1
   3    2    3 1
   4    2    6 ar
   5    2   10 ar
   6    3    4 1
   7    3   20 2
   8    4    5 2
   9    4   19 1
  10    5   11 1
  11    6    7 ar
  12    7    8 ar
  13    7   34 1
  14    8    9 ar
  15    8   22 1
  16    9   10 ar
  17    9   35 1
  18   10   21 1
  19   11   12 ar
  20   11   16 ar
  21   12   13 ar
  22   12   36 1
  23   13   14 ar
  24   13   37 1
  25   14   15 ar
  26   14   18 1
  27   15   16 ar
  28   15   17 1
  29   16   38 1
  30   17   39 1
  31   18   40 1
  32   19   41 1
  33   21   42 1
  34   22   23 1
  35   23   24 1
  36   23   28 1
  37   23   43 1
  38   24   25 1
  39   24   29 1
  40   24   44 1
  41   25   26 1
  42   25   31 1
  43   25   45 1
  44   26   27 1
  45   26   30 1
  46   26   46 1
  47   27   28 1
  48   27   32 1
  49   27   47 1
  50   28   48 1
  51   28   49 1
  52   29   50 1
  53   30   51 1
  54   31   52 1
  55   32   33 1
  56   32   53 1
  57   32   54 1
  58   33   55 1

#	End of record

