#	Name: ASD08150320
#	Creating user name:	WinNT
#	Creation time:	15. 06. 2019 21:15

#	Modifying user name:	WinNT
#	Modification time:	15. 06. 2019 21:15

#	Program:	/corina/corina34_cracker 3.40 0067  02.08.2006

@<TRIPOS>MOLECULE
ASD08150320
  57   62    0    0    0
SMALL
NO_CHARGES


@<TRIPOS>ATOM
   1 N1             0.3062     1.7060     2.9667 N.am    
   2 C2             0.4271     0.4884     3.5302 C.2     
   3 C3             1.6593    -0.1962     3.5167 C.2     
   4 C4             2.7472     0.3669     2.9316 C.2     
   5 C5             2.6235     1.6475     2.3375 C.ar    
   6 C6             3.7202     2.2761     1.7172 C.ar    
   7 N7             3.6031     3.4574     1.1695 N.ar    
   8 C8             2.4448     4.1348     1.1651 C.ar    
   9 C9             1.2890     3.5788     1.7664 C.ar    
  10 C10            1.3824     2.3020     2.3684 C.ar    
  11 C11            0.0870     4.2933     1.7572 C.ar    
  12 C12            0.0398     5.5413     1.1579 C.ar    
  13 C13            1.1875     6.0848     0.5645 C.ar    
  14 C14            2.3639     5.4022     0.5654 C.ar    
  15 O15           -0.5422    -0.0284     4.0593 O.2     
  16 C16           -1.2317     6.3061     1.1437 C.2     
  17 C17           -0.9308     2.3636     2.9886 C.ar    
  18 C18           -1.1895     3.3245     3.9578 C.ar    
  19 C19           -2.4078     3.9723     3.9795 C.ar    
  20 C20           -3.3756     3.6636     3.0315 C.ar    
  21 C21           -3.1166     2.7031     2.0622 C.ar    
  22 C22           -1.8960     2.0588     2.0378 C.ar    
  23 N23           -4.6100     4.3194     3.0537 N.3     
  24 C24           -1.4301     7.7014     1.5518 C.2     
  25 C25           -4.5945     5.5007     2.1797 C.3     
  26 C26           -5.9837     6.1431     2.1700 C.3     
  27 N27           -6.3599     6.5114     3.5420 N.3     
  28 C28           -6.3754     5.3301     4.4159 C.3     
  29 C29           -4.9862     4.6878     4.4257 C.3     
  30 C30           -2.7357     7.9599     1.3669 C.2     
  31 O31           -3.3355     6.8588     0.8895 O.3     
  32 C32           -2.4513     5.8612     0.7446 C.2     
  33 C33           -4.1663     2.3678     1.0342 C.3     
  34 F34           -3.7239     1.2991     0.2473 F       
  35 F35           -5.3546     2.0106     1.6804 F       
  36 F36           -4.3950     3.4827     0.2205 F       
  37 H37            1.7381    -1.1716     3.9735 H       
  38 H38            3.6934    -0.1535     2.9195 H       
  39 H39            4.6757     1.7733     1.6938 H       
  40 H40           -0.7981     3.8751     2.2135 H       
  41 H41            1.1369     7.0586     0.1004 H       
  42 H42            3.2385     5.8362     0.1038 H       
  43 H43           -0.4372     3.5644     4.6947 H       
  44 H44           -2.6092     4.7188     4.7335 H       
  45 H45           -1.6932     1.3146     1.2818 H       
  46 H46           -0.6794     8.3822     1.9250 H       
  47 H47           -3.8643     6.2191     2.5523 H       
  48 H48           -4.3257     5.2004     1.1670 H       
  49 H49           -5.9671     7.0361     1.5453 H       
  50 H50           -6.7095     5.4339     1.7719 H       
  51 H51           -5.7447     7.2231     3.9069 H       
  52 H52           -6.6443     5.6304     5.4286 H       
  53 H53           -7.1056     4.6117     4.0434 H       
  54 H54           -5.0028     3.7947     5.0504 H       
  55 H55           -4.2604     5.3969     4.8238 H       
  56 H56           -3.2235     8.9017     1.5703 H       
  57 H57           -2.6728     4.8694     0.3788 H       
@<TRIPOS>BOND
   1    1    2 am
   2    1   10 1
   3    1   17 1
   4    2    3 1
   5    2   15 2
   6    3    4 2
   7    3   37 1
   8    4    5 1
   9    4   38 1
  10    5    6 ar
  11    5   10 ar
  12    6    7 ar
  13    6   39 1
  14    7    8 ar
  15    8    9 ar
  16    8   14 ar
  17    9   10 ar
  18    9   11 ar
  19   11   12 ar
  20   11   40 1
  21   12   13 ar
  22   12   16 1
  23   13   14 ar
  24   13   41 1
  25   14   42 1
  26   16   24 1
  27   16   32 2
  28   17   18 ar
  29   17   22 ar
  30   18   19 ar
  31   18   43 1
  32   19   20 ar
  33   19   44 1
  34   20   21 ar
  35   20   23 1
  36   21   22 ar
  37   21   33 1
  38   22   45 1
  39   23   25 1
  40   23   29 1
  41   24   30 2
  42   24   46 1
  43   25   26 1
  44   25   47 1
  45   25   48 1
  46   26   27 1
  47   26   49 1
  48   26   50 1
  49   27   28 1
  50   27   51 1
  51   28   29 1
  52   28   52 1
  53   28   53 1
  54   29   54 1
  55   29   55 1
  56   30   31 1
  57   30   56 1
  58   31   32 1
  59   32   57 1
  60   33   34 1
  61   33   35 1
  62   33   36 1

#	End of record

