#	Name: ASD01410789
#	Creating user name:	WinNT
#	Creation time:	15. 06. 2019 19:18

#	Modifying user name:	WinNT
#	Modification time:	15. 06. 2019 19:18

#	Program:	/corina/corina34_cracker 3.40 0067  02.08.2006

@<TRIPOS>MOLECULE
ASD01410789
  32   33    0    0    0
SMALL
NO_CHARGES


@<TRIPOS>ATOM
   1 C1            -0.0187     1.5258     0.0104 C.3     
   2 C2             0.0021    -0.0041     0.0020 C.3     
   3 C3             1.3165     0.7789    -0.0063 C.3     
   4 S4            -0.5282     2.3649    -1.5150 S.o2    
   5 O5             0.4436     2.1790    -2.5349 O.2     
   6 O6            -1.9085     2.1428    -1.7690 O.2     
   7 N7            -0.4343     3.9776    -1.1506 N.am    
   8 C8             0.7599     4.5374    -0.8734 C.2     
   9 O9             1.7659     3.8601    -0.8909 O.2     
  10 C10            0.8454     6.0050    -0.5418 C.3     
  11 C11            2.1757     6.7129    -0.8067 C.3     
  12 C12            1.7411     6.4136     0.6294 C.3     
  13 C13            3.3002     5.8891    -1.3793 C.2     
  14 C14            3.8251     6.2112    -2.5356 C.2     
  15 N15           -0.3874     6.7753    -0.7539 N.3     
  16 C16           -0.4237     2.2196     1.3125 C.3     
  17 H17           -0.2728    -0.5162     0.9241 H       
  18 H18           -0.2904    -0.5063    -0.9201 H       
  19 H19            1.8888     0.7918    -0.9339 H       
  20 H20            1.9064     0.7818     0.9103 H       
  21 H21           -1.2388     4.5193    -1.1366 H       
  22 H22            2.1363     7.7503    -1.1386 H       
  23 H23            1.4158     7.2543     1.2423 H       
  24 H24            2.2685     5.6210     1.1601 H       
  25 H25            3.6734     5.0333    -0.8365 H       
  26 H26            3.4519     7.0670    -3.0784 H       
  27 H27            4.6310     5.6208    -2.9459 H       
  28 H28           -1.2025     6.2161    -0.5516 H       
  29 H29           -0.3840     7.6215    -0.2044 H       
  30 H30            0.2684     1.9366     2.1056 H       
  31 H31           -0.3940     3.3002     1.1728 H       
  32 H32           -1.4341     1.9164     1.5867 H       
@<TRIPOS>BOND
   1    1    2 1
   2    1    3 1
   3    1    4 1
   4    1   16 1
   5    2    3 1
   6    2   17 1
   7    2   18 1
   8    3   19 1
   9    3   20 1
  10    4    5 2
  11    4    6 2
  12    4    7 am
  13    7    8 am
  14    7   21 1
  15    8    9 2
  16    8   10 1
  17   10   12 1
  18   10   15 1
  19   10   11 1
  20   11   12 1
  21   11   13 1
  22   11   22 1
  23   12   23 1
  24   12   24 1
  25   13   14 2
  26   13   25 1
  27   14   26 1
  28   14   27 1
  29   15   28 1
  30   15   29 1
  31   16   30 1
  32   16   31 1
  33   16   32 1

#	End of record

