#	Name: ASD03320113
#	Creating user name:	WinNT
#	Creation time:	15. 06. 2019 20:36

#	Modifying user name:	WinNT
#	Modification time:	15. 06. 2019 20:36

#	Program:	/corina/corina34_cracker 3.40 0067  02.08.2006

@<TRIPOS>MOLECULE
ASD03320113
  49   52    0    0    0
SMALL
NO_CHARGES


@<TRIPOS>ATOM
   1 C1            -0.0181     1.4709     0.0146 C.2     
   2 C2             0.0015    -0.0045     0.0115 C.ar    
   3 C3             1.2192    -0.6978     0.0009 C.ar    
   4 C4             1.1851    -2.0893    -0.0017 C.ar    
   5 C5            -0.0614    -2.7401     0.0064 C.ar    
   6 N6            -1.1881    -2.0440     0.0164 N.ar    
   7 C7            -1.1931    -0.7273     0.0250 C.ar    
   8 O8             1.0269     2.0929     0.0079 O.2     
   9 N9            -1.1942     2.1292     0.0193 N.am    
  10 N10            2.6868    -4.0139     0.6878 N.pl3   
  11 N11            3.9924    -4.4242     0.3892 N.2     
  12 C12            4.5141    -3.5699    -0.4542 C.2     
  13 C13            3.5683    -2.5820    -0.7290 C.2     
  14 C14            2.4404    -2.8713    -0.0133 C.2     
  15 N15           -0.1114    -4.1218     0.0035 N.3     
  16 C16           -1.5060    -4.6002     0.0132 C.3     
  17 C17           -1.6858    -5.5101    -1.2201 C.3     
  18 C18           -0.2340    -5.9511    -1.5437 C.3     
  19 C19            0.5674    -4.6741    -1.1881 C.3     
  20 O20           -2.4978    -6.6414    -0.8992 O.3     
  21 C21           -1.2149     3.5252     0.1327 C.ar    
  22 C22           -2.1839     4.2618    -0.5368 C.ar    
  23 C23           -2.2047     5.6388    -0.4246 C.ar    
  24 C24           -1.2545     6.2864     0.3593 C.ar    
  25 C25           -0.2870     5.5485     1.0276 C.ar    
  26 C26           -0.2706     4.1716     0.9187 C.ar    
  27 S27           -1.2792     8.0424     0.5030 S.3     
  28 C28            0.1230     8.3815     1.6027 C.3     
  29 F29            1.3010     7.9066     1.0164 F       
  30 F30            0.2291     9.7608     1.8113 F       
  31 F31           -0.0797     7.7388     2.8287 F       
  32 F32           -3.1464     6.3559    -1.0757 F       
  33 H33            2.1595    -0.1664    -0.0055 H       
  34 H34           -2.1349    -0.1988     0.0377 H       
  35 H35           -2.0262     1.6363    -0.0559 H       
  36 H36            2.0677    -4.4643     1.2833 H       
  37 H37            5.5104    -3.6211    -0.8678 H       
  38 H38            3.7034    -1.7383    -1.3896 H       
  39 H39           -1.6970    -5.1679     0.9239 H       
  40 H40           -2.1890    -3.7529    -0.0483 H       
  41 H41           -2.1134    -4.9511    -2.0524 H       
  42 H42            0.0685    -6.7894    -0.9161 H       
  43 H43           -0.1272    -6.1977    -2.6000 H       
  44 H44            0.5293    -3.9606    -2.0113 H       
  45 H45            1.6009    -4.9280    -0.9525 H       
  46 H46           -2.6416    -7.2453    -1.6406 H       
  47 H47           -2.9207     3.7583    -1.1452 H       
  48 H48            0.4508     6.0508     1.6357 H       
  49 H49            0.4799     3.5978     1.4422 H       
@<TRIPOS>BOND
   1    1    2 1
   2    1    8 2
   3    1    9 am
   4    2    3 ar
   5    2    7 ar
   6    3    4 ar
   7    3   33 1
   8    4    5 ar
   9    4   14 1
  10    5    6 ar
  11    5   15 1
  12    6    7 ar
  13    7   34 1
  14    9   21 1
  15    9   35 1
  16   10   11 1
  17   10   14 1
  18   10   36 1
  19   11   12 2
  20   12   13 1
  21   12   37 1
  22   13   14 2
  23   13   38 1
  24   15   16 1
  25   15   19 1
  26   16   17 1
  27   16   39 1
  28   16   40 1
  29   17   18 1
  30   17   20 1
  31   17   41 1
  32   18   19 1
  33   18   42 1
  34   18   43 1
  35   19   44 1
  36   19   45 1
  37   20   46 1
  38   21   22 ar
  39   21   26 ar
  40   22   23 ar
  41   22   47 1
  42   23   24 ar
  43   23   32 1
  44   24   25 ar
  45   24   27 1
  46   25   26 ar
  47   25   48 1
  48   26   49 1
  49   27   28 1
  50   28   29 1
  51   28   30 1
  52   28   31 1

#	End of record

