#	Name: ASD01918390
#	Creating user name:	WinNT
#	Creation time:	15. 06. 2019 20:11

#	Modifying user name:	WinNT
#	Modification time:	15. 06. 2019 20:11

#	Program:	/corina/corina34_cracker 3.40 0067  02.08.2006

@<TRIPOS>MOLECULE
ASD01918390
  32   34    0    0    0
SMALL
NO_CHARGES


@<TRIPOS>ATOM
   1 F1            -0.1799     0.0012     0.0193 F       
   2 C2            -0.0833     1.3487     0.0212 C.ar    
   3 C3             1.1627     1.9638    -0.0006 C.ar    
   4 C4             1.2160     3.3467     0.0023 C.ar    
   5 C5             0.0290     4.0695     0.0268 C.ar    
   6 N6             0.0696     5.4632     0.0299 N.am    
   7 C7            -1.0745     6.1709    -0.0516 C.2     
   8 O8            -2.1329     5.5976    -0.2224 O.2     
   9 C9            -1.0425     7.6425     0.0665 C.2     
  10 C10           -2.1554     8.5170     0.0074 C.2     
  11 C11           -1.6451     9.7539     0.1621 C.2     
  12 C12           -2.3955    11.0618     0.1792 C.3     
  13 C13           -1.4703    12.1375     0.7636 C.3     
  14 C14           -0.1070    12.0543     0.0707 C.3     
  15 C15            0.6082    10.7688     0.4964 C.3     
  16 N16           -0.3032     9.6314     0.3054 N.pl3   
  17 N17            0.0269     8.3914     0.2527 N.2     
  18 N18           -1.1394     3.4480     0.0466 N.ar    
  19 C19           -1.2236     2.1315     0.0391 C.ar    
  20 H20            2.0686     1.3761    -0.0190 H       
  21 H21            2.1674     3.8575    -0.0139 H       
  22 H22            0.9213     5.9235     0.0908 H       
  23 H23           -3.1922     8.2490    -0.1325 H       
  24 H24           -2.6815    11.3350    -0.8365 H       
  25 H25           -3.2865    10.9665     0.7998 H       
  26 H26           -1.9051    13.1228     0.5956 H       
  27 H27           -1.3464    11.9698     1.8334 H       
  28 H28           -0.2488    12.0498    -1.0100 H       
  29 H29            0.4971    12.9164     0.3535 H       
  30 H30            1.5004    10.6282    -0.1138 H       
  31 H31            0.8898    10.8385     1.5471 H       
  32 H32           -2.1947     1.6591     0.0512 H       
@<TRIPOS>BOND
   1    1    2 1
   2    2   19 ar
   3    2    3 ar
   4    3    4 ar
   5    3   20 1
   6    4    5 ar
   7    4   21 1
   8    5    6 1
   9    5   18 ar
  10    6    7 am
  11    6   22 1
  12    7    8 2
  13    7    9 1
  14    9   17 2
  15    9   10 1
  16   10   11 2
  17   10   23 1
  18   11   16 1
  19   11   12 1
  20   12   13 1
  21   12   24 1
  22   12   25 1
  23   13   14 1
  24   13   26 1
  25   13   27 1
  26   14   15 1
  27   14   28 1
  28   14   29 1
  29   15   16 1
  30   15   30 1
  31   15   31 1
  32   16   17 1
  33   18   19 ar
  34   19   32 1

#	End of record

