#	Name: ASD00860003
#	Creating user name:	WinNT
#	Creation time:	15. 06. 2019 18:53

#	Modifying user name:	WinNT
#	Modification time:	15. 06. 2019 18:53

#	Program:	/corina/corina34_cracker 3.40 0067  02.08.2006

@<TRIPOS>MOLECULE
ASD00860003
  40   41    0    0    0
SMALL
NO_CHARGES


@<TRIPOS>ATOM
   1 C1            -0.0178     1.4608     0.0101 C.3     
   2 N2             0.0021    -0.0041     0.0020 N.am    
   3 O3             1.3291     1.9819     0.0000 O.3     
   4 C4            -0.6332     1.9830     1.3272 C.3     
   5 C5             0.7136    -0.6689     0.9307 C.2     
   6 C6            -0.7046    -0.6863    -0.9424 C.2     
   7 C7             1.2183     3.3324     0.4998 C.3     
   8 C8             0.1987     3.2426     1.6568 C.3     
   9 O9            -2.0072     2.3262     1.1364 O.3     
  10 N10            0.7496    -2.0002     0.9463 N.2     
  11 O11            1.3363    -0.0420     1.7717 O.2     
  12 C12           -0.6784    -2.0401    -0.9396 C.2     
  13 C13            2.5720     3.8207     1.0195 C.3     
  14 O14           -0.6361     4.4022     1.6796 O.3     
  15 C15            0.0818    -2.7065     0.0435 C.2     
  16 O16            3.4872     3.9374    -0.0717 O.3     
  17 N17            0.1266    -4.0811     0.0693 N.pl3   
  18 P18            5.0101     4.4271     0.1097 P.3     
  19 O19            5.7056     4.5643    -1.3358 O.3     
  20 O20            5.0281     5.7402     0.7924 O.2     
  21 O21            5.8181     3.3514     0.9941 O.3     
  22 P22            7.0503     5.2722    -1.8673 P.3     
  23 O23            7.2255     6.5738    -1.1849 O.2     
  24 O24            8.3150     4.3269    -1.5526 O.3     
  25 O25            6.9400     5.5097    -3.4559 O.3     
  26 H26           -0.5765     1.8367    -0.8470 H       
  27 H27           -0.5305     1.2398     2.1179 H       
  28 H28           -1.2796    -0.1531    -1.6850 H       
  29 H29            0.8504     3.9972    -0.2816 H       
  30 H30            0.7127     3.1221     2.6104 H       
  31 H31           -2.4434     2.6602     1.9322 H       
  32 H32           -1.2311    -2.6009    -1.6788 H       
  33 H33            2.4488     4.7933     1.4961 H       
  34 H34            2.9613     3.1070     1.7456 H       
  35 H35           -1.3335     4.3717     2.3489 H       
  36 H36            0.6476    -4.5368     0.7489 H       
  37 H37           -0.3627    -4.5948    -0.5922 H       
  38 H38            5.8473     2.4660     0.6064 H       
  39 H39            8.2677     3.4553    -1.9688 H       
  40 H40            7.7170     5.9337    -3.8451 H       
@<TRIPOS>BOND
   1    1    2 1
   2    1    3 1
   3    1    4 1
   4    1   26 1
   5    2    5 am
   6    2    6 1
   7    3    7 1
   8    4    8 1
   9    4    9 1
  10    4   27 1
  11    5   10 1
  12    5   11 2
  13    6   12 2
  14    6   28 1
  15    7   13 1
  16    7    8 1
  17    7   29 1
  18    8   14 1
  19    8   30 1
  20    9   31 1
  21   10   15 2
  22   12   15 1
  23   12   32 1
  24   13   16 1
  25   13   33 1
  26   13   34 1
  27   14   35 1
  28   15   17 1
  29   16   18 1
  30   17   36 1
  31   17   37 1
  32   18   19 1
  33   18   20 2
  34   18   21 1
  35   19   22 1
  36   21   38 1
  37   22   23 2
  38   22   24 1
  39   22   25 1
  40   24   39 1
  41   25   40 1

#	End of record

