#	Name: ASD08170067
#	Creating user name:	WinNT
#	Creation time:	15. 06. 2019 21:17

#	Modifying user name:	WinNT
#	Modification time:	15. 06. 2019 21:17

#	Program:	/corina/corina34_cracker 3.40 0067  02.08.2006

@<TRIPOS>MOLECULE
ASD08170067
  71   76    0    0    0
SMALL
NO_CHARGES


@<TRIPOS>ATOM
   1 N1            -0.0150     1.2583     0.0090 N.2     
   2 N2             0.0021    -0.0041     0.0020 N.2     
   3 C3             1.1271     1.8769     0.0014 C.2     
   4 S4             2.3826     0.7116    -0.0169 S.3     
   5 C5             1.1681    -0.5677    -0.0121 C.2     
   6 C6             1.4387    -2.0502    -0.0227 C.3     
   7 C7             1.5165    -2.5442    -1.4687 C.3     
   8 C8             2.1699    -6.2152    -3.4347 C.3     
   9 C9             2.2167    -6.5408    -4.9053 C.2     
  10 N10            3.2694    -6.5184    -5.6596 N.2     
  11 S11            0.8491    -7.0282    -5.9071 S.3     
  12 C12            1.9000    -7.1354    -7.2557 C.2     
  13 N13            3.1017    -6.8250    -6.8728 N.2     
  14 N14            1.5289    -7.4992    -8.5457 N.am    
  15 C15            2.4537    -7.5464    -9.5250 C.2     
  16 O16            3.6096    -7.2716    -9.2812 O.2     
  17 C17            2.0516    -7.9407   -10.9228 C.3     
  18 N18            1.3017     3.2566     0.0067 N.am    
  19 C19            0.2284     4.0717     0.0214 C.2     
  20 C20            0.4176     5.5667     0.0272 C.3     
  21 O21           -0.8897     3.6019     0.0299 O.2     
  22 C22            1.8986    -4.7206    -3.2516 C.3     
  23 C23            1.0881    -6.8945   -11.5315 C.3     
  24 S24            1.8422    -4.3286    -1.4814 S.3     
  25 C25            1.0801     6.0404    -1.2882 C.3     
  26 C26            0.3876     7.3683    -1.5272 C.ar    
  27 C27           -0.7364     7.3935    -0.7122 C.ar    
  28 O28           -0.8519     6.2409     0.0048 O.3     
  29 O29            3.1805    -7.8887   -11.8113 O.3     
  30 C30            2.7624    -7.4963   -13.0471 C.ar    
  31 C31            1.5198    -6.8796   -12.9853 C.ar    
  32 C32            0.6880     8.4321    -2.3488 C.ar    
  33 C33           -0.1346     9.5497    -2.3636 C.ar    
  34 C34           -1.2565     9.5868    -1.5486 C.ar    
  35 C35           -1.5567     8.5189    -0.7293 C.ar    
  36 C36            3.3886    -7.6292   -14.2840 C.ar    
  37 C37            2.7831    -7.1484   -15.4260 C.ar    
  38 C38            1.5446    -6.5278   -15.3530 C.ar    
  39 C39            0.9143    -6.3956   -14.1238 C.ar    
  40 O40            0.1577    10.6030    -3.1725 O.3     
  41 C41           -0.7350    11.7181    -3.1337 C.3     
  42 O42            0.9516    -6.0511   -16.4800 O.3     
  43 C43            1.6607    -6.2229   -17.7087 C.3     
  44 H44            2.3843    -2.2506     0.4811 H       
  45 H45            0.6334    -2.5702     0.4961 H       
  46 H46            0.5709    -2.3438    -1.9724 H       
  47 H47            2.3218    -2.0242    -1.9874 H       
  48 H48            1.3741    -6.7896    -2.9605 H       
  49 H49            3.1250    -6.4700    -2.9755 H       
  50 H50            0.6045    -7.7190    -8.7407 H       
  51 H51            1.5983    -8.9319   -10.9275 H       
  52 H52            2.1959     3.6323    -0.0001 H       
  53 H53            1.0073     5.8765     0.8899 H       
  54 H54            2.6943    -4.1461    -3.7258 H       
  55 H55            0.9434    -4.4658    -3.7108 H       
  56 H56            0.0515    -7.2177   -11.4363 H       
  57 H57            1.2337    -5.9169   -11.0719 H       
  58 H58            2.1532     6.1789    -1.1560 H       
  59 H59            0.8759     5.3428    -2.1004 H       
  60 H60            1.5632     8.3968    -2.9806 H       
  61 H61           -1.8977    10.4558    -1.5558 H       
  62 H62           -2.4322     8.5554    -0.0979 H       
  63 H63            4.3531    -8.1107   -14.3491 H       
  64 H64            3.2755    -7.2552   -16.3813 H       
  65 H65           -0.0502    -5.9138   -14.0599 H       
  66 H66           -1.7342    11.3939    -3.4247 H       
  67 H67           -0.7650    12.1246    -2.1228 H       
  68 H68           -0.3869    12.4864    -3.8241 H       
  69 H69            2.6231    -5.7149   -17.6468 H       
  70 H70            1.8218    -7.2857   -17.8897 H       
  71 H71            1.0782    -5.7993   -18.5268 H       
@<TRIPOS>BOND
   1    1    2 1
   2    1    3 2
   3    2    5 2
   4    3    4 1
   5    3   18 1
   6    4    5 1
   7    5    6 1
   8    6    7 1
   9    6   44 1
  10    6   45 1
  11    7   24 1
  12    7   46 1
  13    7   47 1
  14    8    9 1
  15    8   22 1
  16    8   48 1
  17    8   49 1
  18    9   10 2
  19    9   11 1
  20   10   13 1
  21   11   12 1
  22   12   13 2
  23   12   14 1
  24   14   15 am
  25   14   50 1
  26   15   16 2
  27   15   17 1
  28   17   23 1
  29   17   29 1
  30   17   51 1
  31   18   19 am
  32   18   52 1
  33   19   20 1
  34   19   21 2
  35   20   25 1
  36   20   28 1
  37   20   53 1
  38   22   24 1
  39   22   54 1
  40   22   55 1
  41   23   31 1
  42   23   56 1
  43   23   57 1
  44   25   26 1
  45   25   58 1
  46   25   59 1
  47   26   27 ar
  48   26   32 ar
  49   27   28 1
  50   27   35 ar
  51   29   30 1
  52   30   31 ar
  53   30   36 ar
  54   31   39 ar
  55   32   33 ar
  56   32   60 1
  57   33   34 ar
  58   33   40 1
  59   34   35 ar
  60   34   61 1
  61   35   62 1
  62   36   37 ar
  63   36   63 1
  64   37   38 ar
  65   37   64 1
  66   38   39 ar
  67   38   42 1
  68   39   65 1
  69   40   41 1
  70   41   66 1
  71   41   67 1
  72   41   68 1
  73   42   43 1
  74   43   69 1
  75   43   70 1
  76   43   71 1

#	End of record

