#	Name: ASD03330753
#	Creating user name:	WinNT
#	Creation time:	15. 06. 2019 20:37

#	Modifying user name:	WinNT
#	Modification time:	15. 06. 2019 20:37

#	Program:	/corina/corina34_cracker 3.40 0067  02.08.2006

@<TRIPOS>MOLECULE
ASD03330753
  64   67    0    0    0
SMALL
NO_CHARGES


@<TRIPOS>ATOM
   1 C1             0.3965     1.6177     0.1575 C.2     
   2 N2             0.4253     0.2982     0.4853 N.pl3   
   3 C3             1.6753     2.0783     0.2381 C.2     
   4 N4             2.4656     1.0413     0.5936 N.2     
   5 C5             1.7245    -0.0325     0.7386 C.2     
   6 C6             2.2157    -1.3758     1.1136 C.ar    
   7 C7             2.1185     3.4602    -0.0172 C.2     
   8 O8             1.3079     4.3102    -0.3329 O.2     
   9 C9             3.8626     5.1562    -0.1548 C.3     
  10 N10            3.4220     3.7822     0.0990 N.am    
  11 C11            5.1629     5.4235     0.6057 C.3     
  12 C12            4.0967     5.3438    -1.6317 C.2     
  13 O13            4.4182     4.3982    -2.3197 O.2     
  14 C14           -0.7421    -0.5843     0.5606 C.3     
  15 C15           -1.6021    -0.3875    -0.6918 C.3     
  16 C16           -2.5908     0.7516    -0.4647 C.3     
  17 N17           -2.0115     1.7897     0.3900 N.3     
  18 C18           -0.8295     2.3999    -0.2368 C.3     
  19 C19            1.5585    -2.1115     2.1007 C.ar    
  20 C20            3.3362    -1.9157     0.4768 C.ar    
  21 C21            3.7906    -3.1718     0.8317 C.ar    
  22 C22            3.1373    -3.8941     1.8161 C.ar    
  23 C23            2.0209    -3.3644     2.4470 C.ar    
  24 C24           -3.0120     2.8097     0.7312 C.3     
  25 N25            3.9490     6.5625    -2.1879 N.am    
  26 C26            4.0658     6.7244    -3.6392 C.3     
  27 C27            5.6571     6.8367     0.2900 C.3     
  28 F28            3.5851    -5.1217     2.1591 F       
  29 F29            3.9738    -1.2117    -0.4839 F       
  30 Cl30           1.2082    -4.2773     3.6799 Cl      
  31 C31            4.9099     5.2957     2.1092 C.3     
  32 C32            6.2102     5.5631     2.8698 C.3     
  33 C33            6.7044     6.9762     2.5541 C.3     
  34 C34            6.9575     7.1040     1.0506 C.3     
  35 H35            3.0946     5.8522     0.1826 H       
  36 H36            4.0685     3.1043     0.3508 H       
  37 H37            5.9176     4.6983     0.3014 H       
  38 H38           -0.4117    -1.6216     0.6163 H       
  39 H39           -1.3276    -0.3393     1.4468 H       
  40 H40           -0.9596    -0.1464    -1.5385 H       
  41 H41           -2.1497    -1.3059    -0.9034 H       
  42 H42           -2.8596     1.1888    -1.4263 H       
  43 H43           -3.4884     0.3565     0.0109 H       
  44 H44           -0.7286     3.4310     0.1021 H       
  45 H45           -0.9410     2.3807    -1.3209 H       
  46 H46            0.6895    -1.7005     2.5931 H       
  47 H47            4.6563    -3.5908     0.3404 H       
  48 H48           -3.8411     2.3421     1.2624 H       
  49 H49           -2.5553     3.5685     1.3665 H       
  50 H50           -3.3822     3.2753    -0.1822 H       
  51 H51            3.7652     7.3325    -1.6272 H       
  52 H52            3.9173     7.7720    -3.9011 H       
  53 H53            5.0572     6.4062    -3.9617 H       
  54 H54            3.3097     6.1153    -4.1347 H       
  55 H55            5.8374     6.9277    -0.7811 H       
  56 H56            4.9025     7.5619     0.5944 H       
  57 H57            4.1553     6.0210     2.4136 H       
  58 H58            4.5578     4.2890     2.3341 H       
  59 H59            6.0300     5.4720     3.9409 H       
  60 H60            6.9649     4.8378     2.5655 H       
  61 H61            5.9498     7.7015     2.8585 H       
  62 H62            7.6308     7.1667     3.0960 H       
  63 H63            7.7121     6.3788     0.7463 H       
  64 H64            7.3095     8.1108     0.8257 H       
@<TRIPOS>BOND
   1    1    2 1
   2    1    3 2
   3    1   18 1
   4    2   14 1
   5    2    5 1
   6    3    4 1
   7    3    7 1
   8    4    5 2
   9    5    6 1
  10    6   20 ar
  11    6   19 ar
  12    7    8 2
  13    7   10 am
  14    9   10 1
  15    9   11 1
  16    9   12 1
  17    9   35 1
  18   10   36 1
  19   11   27 1
  20   11   31 1
  21   11   37 1
  22   12   13 2
  23   12   25 am
  24   14   15 1
  25   14   38 1
  26   14   39 1
  27   15   16 1
  28   15   40 1
  29   15   41 1
  30   16   17 1
  31   16   42 1
  32   16   43 1
  33   17   18 1
  34   17   24 1
  35   18   44 1
  36   18   45 1
  37   19   23 ar
  38   19   46 1
  39   20   21 ar
  40   20   29 1
  41   21   22 ar
  42   21   47 1
  43   22   23 ar
  44   22   28 1
  45   23   30 1
  46   24   48 1
  47   24   49 1
  48   24   50 1
  49   25   26 1
  50   25   51 1
  51   26   52 1
  52   26   53 1
  53   26   54 1
  54   27   34 1
  55   27   55 1
  56   27   56 1
  57   31   32 1
  58   31   57 1
  59   31   58 1
  60   32   33 1
  61   32   59 1
  62   32   60 1
  63   33   34 1
  64   33   61 1
  65   33   62 1
  66   34   63 1
  67   34   64 1

#	End of record

