#	Name: ASD02198661
#	Creating user name:	WinNT
#	Creation time:	15. 06. 2019 20:19

#	Modifying user name:	WinNT
#	Modification time:	15. 06. 2019 20:19

#	Program:	/corina/corina34_cracker 3.40 0067  02.08.2006

@<TRIPOS>MOLECULE
ASD02198661
  44   46    0    0    0
SMALL
NO_CHARGES


@<TRIPOS>ATOM
   1 C1            -0.0163     1.3545     0.0095 C.2     
   2 C2             0.0021    -0.0041     0.0020 C.2     
   3 N3            -1.1538    -0.7134     0.0088 N.pl3   
   4 N4            -2.3139    -0.1688     0.0227 N.2     
   5 C5            -2.4754     1.1403     0.0316 C.2     
   6 C6            -1.2845     2.0004     0.0311 C.2     
   7 C7            -1.0759    -2.1100    -0.0004 C.ar    
   8 C8            -1.6593    -4.2175    -0.9943 C.ar    
   9 C9            -0.9225    -4.8777    -0.0202 C.ar    
  10 C10           -0.2664    -4.1505     0.9687 C.ar    
  11 C11           -0.3432    -2.7717     0.9779 C.ar    
  12 C12           -3.8270     1.7298     0.0471 C.2     
  13 O13           -1.3786     3.2183     0.0395 O.2     
  14 C14           -1.7366    -2.8373    -0.9856 C.ar    
  15 O15            1.1379     2.0728     0.0023 O.3     
  16 C16            2.3614     1.3346    -0.0133 C.3     
  17 O17           -4.9112     0.9294     0.0522 O.3     
  18 O18           -3.9631     2.9372     0.0553 O.2     
  19 F19           -2.4538    -2.1947    -1.9331 F       
  20 F20            0.4501    -4.7933     1.9167 F       
  21 N21           -0.8448    -6.2737    -0.0289 N.3     
  22 C22           -2.1795    -6.8764     0.1003 C.3     
  23 C23           -2.0546    -8.4005     0.0263 C.3     
  24 O24           -1.1565    -8.8502     1.0444 O.3     
  25 C25            0.1530    -8.2834     0.9484 C.3     
  26 C26            0.0504    -6.7581     1.0318 C.3     
  27 C27           -6.2098     1.5787     0.0675 C.3     
  28 H28            0.9480    -0.5250    -0.0098 H       
  29 H29           -2.1681    -4.7820    -1.7617 H       
  30 H30            0.1663    -2.2076     1.7451 H       
  31 H31            2.4155     0.7021     0.8728 H       
  32 H32            2.3985     0.7117    -0.9071 H       
  33 H33            3.2033     2.0268    -0.0176 H       
  34 H34           -2.6157    -6.5931     1.0582 H       
  35 H35           -2.8181    -6.5238    -0.7097 H       
  36 H36           -3.0340    -8.8538     0.1787 H       
  37 H37           -1.6685    -8.6870    -0.9520 H       
  38 H38            0.7701    -8.6520     1.7678 H       
  39 H39            0.6033    -8.5664    -0.0030 H       
  40 H40            1.0396    -6.3192     0.9018 H       
  41 H41           -0.3501    -6.4729     2.0046 H       
  42 H42           -6.9943     0.8220     0.0702 H       
  43 H43           -6.2970     2.1957     0.9619 H       
  44 H44           -6.3129     2.2059    -0.8180 H       
@<TRIPOS>BOND
   1    1    2 2
   2    1   15 1
   3    1    6 1
   4    2    3 1
   5    2   28 1
   6    3    4 1
   7    3    7 1
   8    4    5 2
   9    5    6 1
  10    5   12 1
  11    6   13 2
  12    7   14 ar
  13    7   11 ar
  14    8    9 ar
  15    8   14 ar
  16    8   29 1
  17    9   10 ar
  18    9   21 1
  19   10   11 ar
  20   10   20 1
  21   11   30 1
  22   12   17 1
  23   12   18 2
  24   14   19 1
  25   15   16 1
  26   16   31 1
  27   16   32 1
  28   16   33 1
  29   17   27 1
  30   21   22 1
  31   21   26 1
  32   22   23 1
  33   22   34 1
  34   22   35 1
  35   23   24 1
  36   23   36 1
  37   23   37 1
  38   24   25 1
  39   25   26 1
  40   25   38 1
  41   25   39 1
  42   26   40 1
  43   26   41 1
  44   27   42 1
  45   27   43 1
  46   27   44 1

#	End of record

