#	Name: ASD01940394
#	Creating user name:	WinNT
#	Creation time:	15. 06. 2019 20:12

#	Modifying user name:	WinNT
#	Modification time:	15. 06. 2019 20:12

#	Program:	/corina/corina34_cracker 3.40 0067  02.08.2006

@<TRIPOS>MOLECULE
ASD01940394
  46   49    0    0    0
SMALL
NO_CHARGES


@<TRIPOS>ATOM
   1 N1             1.2157     2.1121    -2.3820 N.pl3   
   2 N2             1.5597     0.8997    -2.9915 N.2     
   3 C3             2.3420     0.2190    -2.2047 C.2     
   4 C4             2.5517     0.9661    -1.0214 C.ar    
   5 C5             3.2917     0.7330     0.1517 C.ar    
   6 C6             3.2924     1.6996     1.1633 C.ar    
   7 C7             2.5598     2.8871     1.0019 C.ar    
   8 C8             1.8437     3.1122    -0.1324 C.ar    
   9 C9             1.8264     2.1633    -1.1584 C.ar    
  10 C10            4.0609     1.4718     2.3974 C.2     
  11 O11            4.7752     0.4923     2.4970 O.2     
  12 N12            3.9732     2.3485     3.4174 N.am    
  13 O13            4.7126     2.1292     4.6049 O.3     
  14 C14            4.6875     3.6534     8.0373 C.3     
  15 C15            4.8148     2.5485     6.9853 C.3     
  16 C16            4.5245     3.1364     5.6010 C.3     
  17 C17            5.4858     4.3003     5.3409 C.3     
  18 C18            5.3326     5.3375     6.4564 C.3     
  19 O19            5.5859     4.7181     7.7190 O.3     
  20 N20            4.0111    -0.4399     0.3039 N.pl3   
  21 C21            3.4436    -1.5258     0.9788 C.ar    
  22 C22            4.1158    -2.7429     1.0309 C.ar    
  23 C23            3.5517    -3.8135     1.6993 C.ar    
  24 C24            2.3205    -3.6746     2.3156 C.ar    
  25 C25            1.6506    -2.4658     2.2646 C.ar    
  26 C26            2.2112    -1.3900     1.6031 C.ar    
  27 I27            1.4691    -5.2994     3.3275 I       
  28 F28            5.3176    -2.8784     0.4288 F       
  29 H29            0.6463     2.7989    -2.7629 H       
  30 H30            2.7607    -0.7532    -2.4190 H       
  31 H31            2.5647     3.6289     1.7868 H       
  32 H32            1.2850     4.0300    -0.2409 H       
  33 H33            3.4035     3.1295     3.3379 H       
  34 H34            3.6650     4.0309     8.0461 H       
  35 H35            4.9348     3.2504     9.0195 H       
  36 H36            5.8262     2.1426     7.0039 H       
  37 H37            4.0990     1.7554     7.2017 H       
  38 H38            3.4962     3.4963     5.5660 H       
  39 H39            6.5108     3.9298     5.3262 H       
  40 H40            5.2499     4.7600     4.3811 H       
  41 H41            6.0446     6.1478     6.2996 H       
  42 H42            4.3185     5.7371     6.4445 H       
  43 H43            4.9086    -0.5087    -0.0574 H       
  44 H44            4.0721    -4.7589     1.7403 H       
  45 H45            0.6897    -2.3613     2.7464 H       
  46 H46            1.6889    -0.4454     1.5679 H       
@<TRIPOS>BOND
   1    1    2 1
   2    1    9 1
   3    1   29 1
   4    2    3 2
   5    3    4 1
   6    3   30 1
   7    4    5 ar
   8    4    9 ar
   9    5    6 ar
  10    5   20 1
  11    6    7 ar
  12    6   10 1
  13    7    8 ar
  14    7   31 1
  15    8    9 ar
  16    8   32 1
  17   10   11 2
  18   10   12 am
  19   12   13 1
  20   12   33 1
  21   13   16 1
  22   14   15 1
  23   14   19 1
  24   14   34 1
  25   14   35 1
  26   15   16 1
  27   15   36 1
  28   15   37 1
  29   16   17 1
  30   16   38 1
  31   17   18 1
  32   17   39 1
  33   17   40 1
  34   18   19 1
  35   18   41 1
  36   18   42 1
  37   20   21 1
  38   20   43 1
  39   21   22 ar
  40   21   26 ar
  41   22   23 ar
  42   22   28 1
  43   23   24 ar
  44   23   44 1
  45   24   25 ar
  46   24   27 1
  47   25   26 ar
  48   25   45 1
  49   26   46 1

#	End of record

