#	Name: ASD02039268
#	Creating user name:	WinNT
#	Creation time:	15. 06. 2019 20:18

#	Modifying user name:	WinNT
#	Modification time:	15. 06. 2019 20:18

#	Program:	/corina/corina34_cracker 3.40 0067  02.08.2006

@<TRIPOS>MOLECULE
ASD02039268
  42   45    0    0    0
SMALL
NO_CHARGES


@<TRIPOS>ATOM
   1 N1             0.0022     1.2681     0.3706 N.2     
   2 C2             0.0063    -0.0134     0.0881 C.2     
   3 N3             1.3071    -0.3750    -0.1121 N.pl3   
   4 C4             2.0406     0.7640     0.0706 C.2     
   5 N5             1.2049     1.7214     0.3589 N.2     
   6 N6            -1.1016    -0.8435     0.0085 N.pl3   
   7 C7            -2.3871    -0.3071     0.1296 C.ar    
   8 C8            -2.6357     1.0007    -0.2671 C.ar    
   9 C9            -3.9065     1.5277    -0.1467 C.ar    
  10 C10           -4.9318     0.7542     0.3685 C.ar    
  11 C11           -4.6871    -0.5491     0.7645 C.ar    
  12 C12           -3.4194    -1.0829     0.6415 C.ar    
  13 Cl13          -6.5280     1.4201     0.5190 Cl      
  14 C14            3.5383     0.8890    -0.0399 C.3     
  15 O15            4.0993    -0.3828    -0.3712 O.3     
  16 C16            5.4506    -0.4443    -0.5093 C.ar    
  17 C17            6.0607    -1.6485    -0.8302 C.ar    
  18 C18            6.2179     0.6978    -0.3348 C.ar    
  19 C19            7.5906     0.6364    -0.4749 C.ar    
  20 C20            8.2022    -0.5691    -0.7903 C.ar    
  21 C21            7.4325    -1.7111    -0.9702 C.ar    
  22 N22            9.5936    -0.6355    -0.9328 N.am    
  23 C23           10.1637    -1.6656    -1.5843 C.2     
  24 C24            9.3203    -2.7559    -2.1884 C.3     
  25 C25            8.0992    -3.0183    -1.3117 C.3     
  26 O26           11.3713    -1.7158    -1.6862 O.2     
  27 H27            1.6417    -1.2572    -0.3369 H       
  28 H28           -0.9847    -1.7962    -0.1313 H       
  29 H29           -1.8358     1.6049    -0.6689 H       
  30 H30           -4.1003     2.5446    -0.4546 H       
  31 H31           -5.4890    -1.1504     1.1667 H       
  32 H32           -3.2290    -2.1002     0.9504 H       
  33 H33            3.7862     1.6096    -0.8193 H       
  34 H34            3.9458     1.2290     0.9122 H       
  35 H35            5.4625    -2.5367    -0.9701 H       
  36 H36            5.7418     1.6357    -0.0896 H       
  37 H37            8.1879     1.5260    -0.3396 H       
  38 H38           10.1501     0.0658    -0.5596 H       
  39 H39            8.9901    -2.4500    -3.1812 H       
  40 H40            9.9118    -3.6678    -2.2702 H       
  41 H41            8.4117    -3.5151    -0.3931 H       
  42 H42            7.3972    -3.6563    -1.8485 H       
@<TRIPOS>BOND
   1    1    2 2
   2    1    5 1
   3    2    3 1
   4    2    6 1
   5    3    4 1
   6    3   27 1
   7    4    5 2
   8    4   14 1
   9    6    7 1
  10    6   28 1
  11    7    8 ar
  12    7   12 ar
  13    8    9 ar
  14    8   29 1
  15    9   10 ar
  16    9   30 1
  17   10   11 ar
  18   10   13 1
  19   11   12 ar
  20   11   31 1
  21   12   32 1
  22   14   15 1
  23   14   33 1
  24   14   34 1
  25   15   16 1
  26   16   17 ar
  27   16   18 ar
  28   17   21 ar
  29   17   35 1
  30   18   19 ar
  31   18   36 1
  32   19   20 ar
  33   19   37 1
  34   20   21 ar
  35   20   22 1
  36   21   25 1
  37   22   23 am
  38   22   38 1
  39   23   24 1
  40   23   26 2
  41   24   25 1
  42   24   39 1
  43   24   40 1
  44   25   41 1
  45   25   42 1

#	End of record

