#	Name: ASD01120369
#	Creating user name:	WinNT
#	Creation time:	15. 06. 2019 18:59

#	Modifying user name:	WinNT
#	Modification time:	15. 06. 2019 18:59

#	Program:	/corina/corina34_cracker 3.40 0067  02.08.2006

@<TRIPOS>MOLECULE
ASD01120369
  46   48    0    0    0
SMALL
NO_CHARGES


@<TRIPOS>ATOM
   1 C1            -0.0378     1.3766     0.1677 C.ar    
   2 C2            -0.0064    -0.0091     0.1317 C.ar    
   3 C3             1.1718    -0.6813    -0.1123 C.ar    
   4 C4             2.3495     0.0284    -0.3264 C.ar    
   5 C5             2.3289     1.4363    -0.2920 C.ar    
   6 C6             1.1175     2.1082    -0.0415 C.ar    
   7 N7             3.6435    -0.3575    -0.5875 N.pl3   
   8 C8             4.4274     0.7754    -0.7163 C.2     
   9 C9             3.6481     1.8770    -0.5403 C.2     
  10 C10            4.1094     3.3104    -0.6003 C.3     
  11 C11            4.0941     3.7906    -2.0529 C.3     
  12 C12            4.5554     5.2240    -2.1129 C.2     
  13 O13            4.6228     5.8585    -3.2939 O.3     
  14 O14            4.8647     5.8021    -1.0980 O.2     
  15 C15            5.8672     0.7872    -0.9969 C.2     
  16 O16            6.4600     1.8449    -1.0895 O.2     
  17 O17            6.5335    -0.3752    -1.1522 O.3     
  18 N18            1.0822     3.4995    -0.0051 N.pl3   
  19 C19            1.4787     4.1783     1.1496 C.ar    
  20 C20            1.7951     3.4671     2.3007 C.ar    
  21 C21            2.1876     4.1387     3.4424 C.ar    
  22 C22            2.2667     5.5182     3.4430 C.ar    
  23 C23            1.9514     6.2341     2.2962 C.ar    
  24 C24            1.5627     5.5643     1.1471 C.ar    
  25 O25            2.0294     7.5909     2.2988 O.3     
  26 C26            2.4427     8.2146     3.5162 C.3     
  27 N27            1.1847    -2.1613    -0.1461 N.pl3   
  28 O28            0.1546    -2.7837     0.0415 O.2     
  29 O29            2.2252    -2.7565    -0.3617 O.2     
  30 H30           -0.9704     1.8877     0.3558 H       
  31 H31           -0.9155    -0.5682     0.2972 H       
  32 H32            3.9551    -1.2726    -0.6681 H       
  33 H33            3.4410     3.9324    -0.0049 H       
  34 H34            5.1223     3.3830    -0.2042 H       
  35 H35            4.7625     3.1686    -2.6483 H       
  36 H36            3.0812     3.7180    -2.4490 H       
  37 H37            4.9244     6.7772    -3.2821 H       
  38 H38            7.4811    -0.3168    -1.3358 H       
  39 H39            0.7823     3.9975    -0.7816 H       
  40 H40            1.7337     2.3889     2.3029 H       
  41 H41            2.4328     3.5844     4.3363 H       
  42 H42            2.5739     6.0403     4.3372 H       
  43 H43            1.3174     6.1196     0.2539 H       
  44 H44            3.4392     7.8635     3.7842 H       
  45 H45            2.4625     9.2961     3.3818 H       
  46 H46            1.7417     7.9600     4.3111 H       
@<TRIPOS>BOND
   1    1    2 ar
   2    1    6 ar
   3    1   30 1
   4    2    3 ar
   5    2   31 1
   6    3   27 1
   7    3    4 ar
   8    4    5 ar
   9    4    7 1
  10    5    6 ar
  11    5    9 1
  12    6   18 1
  13    7    8 1
  14    7   32 1
  15    8    9 2
  16    8   15 1
  17    9   10 1
  18   10   11 1
  19   10   33 1
  20   10   34 1
  21   11   12 1
  22   11   35 1
  23   11   36 1
  24   12   13 1
  25   12   14 2
  26   13   37 1
  27   15   16 2
  28   15   17 1
  29   17   38 1
  30   18   19 1
  31   18   39 1
  32   19   20 ar
  33   19   24 ar
  34   20   21 ar
  35   20   40 1
  36   21   22 ar
  37   21   41 1
  38   22   23 ar
  39   22   42 1
  40   23   24 ar
  41   23   25 1
  42   24   43 1
  43   25   26 1
  44   26   44 1
  45   26   45 1
  46   26   46 1
  47   27   28 2
  48   27   29 2

#	End of record

