#	Name: ASD03331201
#	Creating user name:	WinNT
#	Creation time:	15. 06. 2019 20:38

#	Modifying user name:	WinNT
#	Modification time:	15. 06. 2019 20:38

#	Program:	/corina/corina34_cracker 3.40 0067  02.08.2006

@<TRIPOS>MOLECULE
ASD03331201
  57   60    0    0    0
SMALL
NO_CHARGES


@<TRIPOS>ATOM
   1 N1            -0.0459     1.4956     0.5698 N.am    
   2 C2             0.0019     0.1506     1.1632 C.3     
   3 C3             0.5966    -0.8151     0.1327 C.3     
   4 N4             1.8894    -0.2950    -0.3322 N.3     
   5 C5             1.7288     0.9911    -1.0237 C.3     
   6 C6             1.1805     2.0309    -0.0406 C.3     
   7 C7            -1.1849     2.2161     0.5803 C.2     
   8 O8            -2.2139     1.7207     0.9974 O.2     
   9 N9            -1.1831     3.4859     0.1284 N.am    
  10 C10           -2.3851     4.1963     0.0330 C.ar    
  11 C11           -2.4015     5.5681     0.2481 C.ar    
  12 C12           -3.5892     6.2664     0.1527 C.ar    
  13 C13           -4.7613     5.6010    -0.1566 C.ar    
  14 C14           -4.7483     4.2350    -0.3714 C.ar    
  15 C15           -3.5629     3.5318    -0.2826 C.ar    
  16 C16            2.5723    -1.2724    -1.1902 C.3     
  17 C17            3.7648    -0.6215    -1.8425 C.ar    
  18 C18            4.9975    -0.6551    -1.2170 C.ar    
  19 C19            6.0921    -0.0593    -1.8128 C.ar    
  20 C20            5.9539     0.5732    -3.0398 C.ar    
  21 C21            4.7161     0.6056    -3.6653 C.ar    
  22 C22            3.6257     0.0033    -3.0680 C.ar    
  23 O23            7.0292     1.1605    -3.6277 O.3     
  24 C24            6.8130     1.7931    -4.8907 C.3     
  25 C25            8.1083     2.3842    -5.3847 C.ar    
  26 C26            8.9582     1.6277    -6.1698 C.ar    
  27 C27            8.4439     3.6846    -5.0575 C.ar    
  28 C28            9.6320     4.2268    -5.5107 C.ar    
  29 C29           10.4847     3.4683    -6.2907 C.ar    
  30 C30           10.1463     2.1698    -6.6230 C.ar    
  31 H31            0.6285     0.1659     2.0549 H       
  32 H32           -1.0063    -0.1697     1.4260 H       
  33 H33            0.7419    -1.7929     0.5920 H       
  34 H34           -0.0837    -0.9080    -0.7138 H       
  35 H35            2.6951     1.3233    -1.4030 H       
  36 H36            1.0326     0.8731    -1.8541 H       
  37 H37            0.9515     2.9537    -0.5736 H       
  38 H38            1.9203     2.2269     0.7355 H       
  39 H39           -0.3488     3.9073    -0.1307 H       
  40 H40           -1.4865     6.0883     0.4900 H       
  41 H41           -3.6027     7.3332     0.3202 H       
  42 H42           -5.6889     6.1492    -0.2303 H       
  43 H43           -5.6653     3.7181    -0.6128 H       
  44 H44           -3.5526     2.4657    -0.4549 H       
  45 H45            2.9044    -2.1167    -0.5862 H       
  46 H46            1.8845    -1.6240    -1.9592 H       
  47 H47            5.1045    -1.1473    -0.2616 H       
  48 H48            7.0547    -0.0855    -1.3236 H       
  49 H49            4.6059     1.0973    -4.6205 H       
  50 H50            2.6618     0.0282    -3.5546 H       
  51 H51            6.4523     1.0568    -5.6089 H       
  52 H52            6.0720     2.5846    -4.7785 H       
  53 H53            8.6941     0.6130    -6.4289 H       
  54 H54            7.7776     4.2772    -4.4481 H       
  55 H55            9.8938     5.2430    -5.2556 H       
  56 H56           11.4128     3.8920    -6.6451 H       
  57 H57           10.8125     1.5772    -7.2324 H       
@<TRIPOS>BOND
   1    1    2 1
   2    1    6 1
   3    1    7 am
   4    2    3 1
   5    2   31 1
   6    2   32 1
   7    3    4 1
   8    3   33 1
   9    3   34 1
  10    4    5 1
  11    4   16 1
  12    5    6 1
  13    5   35 1
  14    5   36 1
  15    6   37 1
  16    6   38 1
  17    7    8 2
  18    7    9 am
  19    9   10 1
  20    9   39 1
  21   10   11 ar
  22   10   15 ar
  23   11   12 ar
  24   11   40 1
  25   12   13 ar
  26   12   41 1
  27   13   14 ar
  28   13   42 1
  29   14   15 ar
  30   14   43 1
  31   15   44 1
  32   16   17 1
  33   16   45 1
  34   16   46 1
  35   17   18 ar
  36   17   22 ar
  37   18   19 ar
  38   18   47 1
  39   19   20 ar
  40   19   48 1
  41   20   21 ar
  42   20   23 1
  43   21   22 ar
  44   21   49 1
  45   22   50 1
  46   23   24 1
  47   24   25 1
  48   24   51 1
  49   24   52 1
  50   25   26 ar
  51   25   27 ar
  52   26   30 ar
  53   26   53 1
  54   27   28 ar
  55   27   54 1
  56   28   29 ar
  57   28   55 1
  58   29   30 ar
  59   29   56 1
  60   30   57 1

#	End of record

