#	Name: ASD07110005
#	Creating user name:	WinNT
#	Creation time:	15. 06. 2019 21:08

#	Modifying user name:	WinNT
#	Modification time:	15. 06. 2019 21:08

#	Program:	/corina/corina34_cracker 3.40 0067  02.08.2006

@<TRIPOS>MOLECULE
ASD07110005
 190  192    0    0    0
SMALL
NO_CHARGES


@<TRIPOS>ATOM
   1 C1            -4.8958     0.5091    -4.6688 C.2     
   2 O2            -4.7481     0.4877    -5.8724 O.2     
   3 N3            -2.4862     0.2449    -4.4983 N.3     
   4 C4            -3.6969     0.6375    -3.7648 C.3     
   5 C5            -3.5628     2.0885    -3.2985 C.3     
   6 C6            -2.4225     2.1949    -2.2840 C.3     
   7 C7            -2.2904     3.6241    -1.8248 C.2     
   8 O8            -3.0349     4.4740    -2.2656 O.2     
   9 N9            -1.3448     3.9579    -0.9243 N.am    
  10 C10           -8.5194     0.8285    -4.3075 C.2     
  11 O11           -8.4249     1.2584    -3.1774 O.2     
  12 N12           -6.1325     0.4236    -4.1400 N.am    
  13 C13           -7.2984     0.3049    -5.0190 C.3     
  14 C14           -7.5130    -1.1649    -5.3859 C.3     
  15 C15           -6.3278    -1.6615    -6.2163 C.3     
  16 C16           -6.5391    -3.1092    -6.5776 C.2     
  17 O17           -7.5355    -3.6847    -6.2088 O.2     
  18 O18           -5.6205    -3.7593    -7.3092 O.3     
  19 C19          -12.1367     0.6846    -4.8147 C.2     
  20 O20          -12.0345    -0.1198    -5.7166 O.2     
  21 N21           -9.7163     0.8189    -4.9270 N.am    
  22 C22          -10.9032     1.3278    -4.2353 C.3     
  23 C23          -10.9869     2.8449    -4.4150 C.3     
  24 C24           -9.8148     3.4975    -3.7283 C.ar    
  25 C25           -8.6393     3.7120    -4.4240 C.ar    
  26 C26           -7.5633     4.3096    -3.7967 C.ar    
  27 C27           -7.6631     4.6950    -2.4677 C.ar    
  28 O28           -6.6061     5.2835    -1.8486 O.3     
  29 C29           -8.8438     4.4792    -1.7721 C.ar    
  30 C30           -9.9187     3.8859    -2.4054 C.ar    
  31 C31          -15.6680     1.4779    -4.8844 C.2     
  32 O32          -15.4852     2.5319    -4.3129 O.2     
  33 N33          -13.3535     1.0031    -4.3306 N.am    
  34 C34          -14.5585     0.4611    -4.9634 C.3     
  35 C35          -14.9850    -0.8165    -4.2377 C.3     
  36 C36          -15.0787    -0.5426    -2.7353 C.3     
  37 C37          -16.2296     0.4286    -2.4648 C.3     
  38 C38          -13.9523    -1.9164    -4.4921 C.3     
  39 C39          -19.1626     1.4102    -4.6967 C.2     
  40 O40          -19.0821     0.2226    -4.4641 O.2     
  41 N41          -16.8636     1.2159    -5.4488 N.am    
  42 C42          -17.9791     2.1481    -5.2676 C.3     
  43 C43          -18.3605     2.7559    -6.6189 C.3     
  44 C44          -17.2010     3.5551    -7.1554 C.2     
  45 O45          -16.2030     3.7024    -6.4823 O.2     
  46 N46          -17.2732     4.1062    -8.3832 N.am    
  47 C47          -22.1957     0.7332    -5.1850 C.2     
  48 O48          -21.7502     0.9027    -6.3003 O.2     
  49 N49          -20.3105     2.0700    -4.4446 N.am    
  50 C50          -21.4945     1.3342    -3.9941 C.3     
  51 C51          -22.4453     2.2909    -3.2719 C.3     
  52 C52          -21.7920     2.7899    -2.0088 C.2     
  53 O53          -20.6463     2.4825    -1.7564 O.2     
  54 N54          -22.4809     3.5779    -1.1598 N.am    
  55 C55          -25.4303    -0.7192    -5.9587 C.2     
  56 O56          -25.9314    -0.2105    -4.9784 O.2     
  57 N57          -23.3178     0.0072    -5.0108 N.am    
  58 C58          -23.9367    -0.6701    -6.1529 C.3     
  59 C59          -23.3891    -2.0948    -6.2588 C.3     
  60 C60          -23.5350    -2.7991    -4.9084 C.3     
  61 C61          -25.0182    -3.0252    -4.6088 C.3     
  62 C62          -21.9111    -2.0453    -6.6511 C.3     
  63 C63          -28.1800    -2.6367    -7.4168 C.2     
  64 O64          -27.4288    -3.3017    -8.0982 O.2     
  65 N65          -26.2093    -1.3285    -6.8744 N.am    
  66 C66          -27.6496    -1.4588    -6.6405 C.3     
  67 C67          -28.3585    -0.1836    -7.1010 C.3     
  68 C68          -27.9184     0.9739    -6.2422 C.2     
  69 C69          -27.3904     2.1313    -6.6841 C.2     
  70 N70          -27.1360     2.8979    -5.5791 N.pl3   
  71 C71          -27.5176     2.1818    -4.4996 C.2     
  72 N72          -27.9892     1.0342    -4.9042 N.2     
  73 C73          -31.4726    -3.8960    -8.3840 C.2     
  74 O74          -32.0330    -2.8956    -7.9890 O.2     
  75 N75          -29.4890    -2.9510    -7.3537 N.am    
  76 C76          -30.0046    -4.0960    -8.1083 C.3     
  77 C77          -29.8086    -5.3749    -7.2917 C.3     
  78 C78          -28.3127    -5.6450    -7.1182 C.3     
  79 C79          -28.1156    -6.8518    -6.1986 C.3     
  80 C80          -27.6853    -5.9360    -8.4830 C.3     
  81 C81          -34.2510    -5.9743    -9.5349 C.2     
  82 O82          -33.5855    -6.9880    -9.5132 O.2     
  83 N83          -32.1628    -4.8289    -9.0694 N.am    
  84 C84          -33.5899    -4.6345    -9.3374 C.3     
  85 C85          -33.7610    -3.7901   -10.6017 C.3     
  86 C86          -33.1081    -2.4221   -10.3936 C.3     
  87 O87          -33.1384    -4.4521   -11.7046 O.3     
  88 C88          -36.1456    -7.8746   -11.2282 C.2     
  89 O89          -35.5849    -7.2232   -12.0773 O.2     
  90 N90          -35.5818    -6.0460    -9.7356 N.am    
  91 C91          -36.2408    -7.3518    -9.8179 C.3     
  92 C92          -37.7126    -7.2059    -9.4263 C.3     
  93 C93          -37.8093    -6.8011    -7.9779 C.2     
  94 C94          -38.4619    -5.7249    -7.4989 C.2     
  95 N95          -38.2972    -5.7343    -6.1400 N.pl3   
  96 C96          -37.5493    -6.8168    -5.8358 C.2     
  97 N97          -37.2654    -7.4527    -6.9394 N.2     
  98 O98          -36.6839    -9.0638   -11.5409 O.3     
  99 H99           -2.3465     0.8328    -5.3064 H       
 100 H100          -1.6772     0.2606    -3.8955 H       
 101 H101          -3.8237    -0.0122    -2.8987 H       
 102 H102          -3.3475     2.7270    -4.1553 H       
 103 H103          -4.4948     2.4080    -2.8324 H       
 104 H104          -2.6378     1.5564    -1.4272 H       
 105 H105          -1.4904     1.8754    -2.7501 H       
 106 H106          -0.7493     3.2782    -0.5717 H       
 107 H107          -1.2598     4.8779    -0.6287 H       
 108 H108          -6.2506     0.4407    -3.1773 H       
 109 H109          -7.1300     0.8850    -5.9263 H       
 110 H110          -7.5929    -1.7587    -4.4753 H       
 111 H111          -8.4303    -1.2643    -5.9662 H       
 112 H112          -6.2479    -1.0677    -7.1268 H       
 113 H113          -5.4105    -1.5620    -5.6360 H       
 114 H114          -5.8000    -4.6868    -7.5159 H       
 115 H115          -9.7918     0.4750    -5.8308 H       
 116 H116         -10.8345     1.0909    -3.1735 H       
 117 H117         -10.9661     3.0866    -5.4776 H       
 118 H118         -11.9150     3.2120    -3.9769 H       
 119 H119          -8.5621     3.4117    -5.4585 H       
 120 H120          -6.6451     4.4762    -4.3403 H       
 121 H121          -6.5944     6.2477    -1.9217 H       
 122 H122          -8.9238     4.7780    -0.7373 H       
 123 H123         -10.8395     3.7216    -1.8656 H       
 124 H124         -13.4314     1.5913    -3.5632 H       
 125 H125         -14.3487     0.2327    -6.0083 H       
 126 H126         -15.9577    -1.1383    -4.6097 H       
 127 H127         -15.2607    -1.4780    -2.2061 H       
 128 H128         -14.1437    -0.1040    -2.3869 H       
 129 H129         -17.1275     0.0788    -2.9742 H       
 130 H130         -16.4171     0.4801    -1.3923 H       
 131 H131         -15.9641     1.4187    -2.8352 H       
 132 H132         -13.0044    -1.6385    -4.0313 H       
 133 H133         -14.3053    -2.8530    -4.0605 H       
 134 H134         -13.8116    -2.0414    -5.5657 H       
 135 H135         -16.9853     0.4102    -5.9751 H       
 136 H136         -17.6814     2.9423    -4.5830 H       
 137 H137         -18.6071     1.9581    -7.3195 H       
 138 H138         -19.2244     3.4086    -6.4929 H       
 139 H139         -18.0714     3.9884    -8.9216 H       
 140 H140         -16.5269     4.6207    -8.7286 H       
 141 H141         -20.3526     3.0320    -4.5614 H       
 142 H142         -21.1910     0.5399    -3.3122 H       
 143 H143         -22.6730     3.1360    -3.9215 H       
 144 H144         -23.3673     1.7665    -3.0213 H       
 145 H145         -23.3973     3.8238    -1.3616 H       
 146 H146         -22.0605     3.8991    -0.3468 H       
 147 H147         -23.7156    -0.0667    -4.1292 H       
 148 H148         -23.7070    -0.1236    -7.0676 H       
 149 H149         -23.9480    -2.6435    -7.0170 H       
 150 H150         -23.0206    -3.7594    -4.9420 H       
 151 H151         -23.0967    -2.1793    -4.1262 H       
 152 H152         -25.4806    -2.0789    -4.3280 H       
 153 H153         -25.5118    -3.4216    -5.4961 H       
 154 H154         -25.1190    -3.7363    -3.7888 H       
 155 H155         -21.3371    -1.5841    -5.8474 H       
 156 H156         -21.5466    -3.0580    -6.8230 H       
 157 H157         -21.7965    -1.4583    -7.5624 H       
 158 H158         -25.8162    -1.6806    -7.6883 H       
 159 H159         -27.8326    -1.6125    -5.5770 H       
 160 H160         -28.1037     0.0183    -8.1414 H       
 161 H161         -29.4368    -0.3142    -7.0099 H       
 162 H162         -27.2033     2.4023    -7.7127 H       
 163 H163         -26.7531     3.7891    -5.5725 H       
 164 H164         -27.4480     2.5067    -3.4720 H       
 165 H165         -30.0898    -2.4191    -6.8087 H       
 166 H166         -29.4660    -4.1814    -9.0521 H       
 167 H167         -30.2722    -5.2554    -6.3125 H       
 168 H168         -30.2711    -6.2132    -7.8128 H       
 169 H169         -27.8343    -4.7704    -6.6775 H       
 170 H170         -28.5940    -7.7264    -6.6393 H       
 171 H171         -27.0499    -7.0442    -6.0749 H       
 172 H172         -28.5626    -6.6444    -5.2263 H       
 173 H173         -28.1637    -6.8106    -8.9237 H       
 174 H174         -27.8257    -5.0763    -9.1382 H       
 175 H175         -26.6196    -6.1284    -8.3594 H       
 176 H176         -31.7146    -5.6291    -9.3853 H       
 177 H177         -34.0516    -4.1224    -8.4932 H       
 178 H178         -34.8228    -3.6581   -10.8096 H       
 179 H179         -32.0301    -2.5459   -10.2902 H       
 180 H180         -33.3200    -1.7841   -11.2516 H       
 181 H181         -33.5092    -1.9617    -9.4906 H       
 182 H182         -33.5030    -5.3274   -11.8945 H       
 183 H183         -36.1032    -5.2331    -9.8256 H       
 184 H184         -35.7514    -8.0493    -9.1381 H       
 185 H185         -38.1803    -6.4430   -10.0488 H       
 186 H186         -38.2236    -8.1575    -9.5725 H       
 187 H187         -39.0095    -4.9945    -8.0760 H       
 188 H188         -38.6516    -5.0848    -5.5128 H       
 189 H189         -37.2406    -7.1098    -4.8432 H       
 190 H190         -36.5976    -9.3571   -12.4583 H       
@<TRIPOS>BOND
   1    1    2 2
   2    1    4 1
   3    1   12 am
   4    3    4 1
   5    3   99 1
   6    3  100 1
   7    4    5 1
   8    4  101 1
   9    5    6 1
  10    5  102 1
  11    5  103 1
  12    6    7 1
  13    6  104 1
  14    6  105 1
  15    7    8 2
  16    7    9 am
  17    9  106 1
  18    9  107 1
  19   10   11 2
  20   10   13 1
  21   10   21 am
  22   12   13 1
  23   12  108 1
  24   13   14 1
  25   13  109 1
  26   14   15 1
  27   14  110 1
  28   14  111 1
  29   15   16 1
  30   15  112 1
  31   15  113 1
  32   16   17 2
  33   16   18 1
  34   18  114 1
  35   19   20 2
  36   19   22 1
  37   19   33 am
  38   21   22 1
  39   21  115 1
  40   22   23 1
  41   22  116 1
  42   23   24 1
  43   23  117 1
  44   23  118 1
  45   24   25 ar
  46   24   30 ar
  47   25   26 ar
  48   25  119 1
  49   26   27 ar
  50   26  120 1
  51   27   28 1
  52   27   29 ar
  53   28  121 1
  54   29   30 ar
  55   29  122 1
  56   30  123 1
  57   31   32 2
  58   31   34 1
  59   31   41 am
  60   33   34 1
  61   33  124 1
  62   34   35 1
  63   34  125 1
  64   35   36 1
  65   35   38 1
  66   35  126 1
  67   36   37 1
  68   36  127 1
  69   36  128 1
  70   37  129 1
  71   37  130 1
  72   37  131 1
  73   38  132 1
  74   38  133 1
  75   38  134 1
  76   39   40 2
  77   39   42 1
  78   39   49 am
  79   41   42 1
  80   41  135 1
  81   42   43 1
  82   42  136 1
  83   43   44 1
  84   43  137 1
  85   43  138 1
  86   44   45 2
  87   44   46 am
  88   46  139 1
  89   46  140 1
  90   47   48 2
  91   47   50 1
  92   47   57 am
  93   49   50 1
  94   49  141 1
  95   50   51 1
  96   50  142 1
  97   51   52 1
  98   51  143 1
  99   51  144 1
 100   52   53 2
 101   52   54 am
 102   54  145 1
 103   54  146 1
 104   55   56 2
 105   55   58 1
 106   55   65 am
 107   57   58 1
 108   57  147 1
 109   58   59 1
 110   58  148 1
 111   59   60 1
 112   59   62 1
 113   59  149 1
 114   60   61 1
 115   60  150 1
 116   60  151 1
 117   61  152 1
 118   61  153 1
 119   61  154 1
 120   62  155 1
 121   62  156 1
 122   62  157 1
 123   63   64 2
 124   63   66 1
 125   63   75 am
 126   65   66 1
 127   65  158 1
 128   66   67 1
 129   66  159 1
 130   67   68 1
 131   67  160 1
 132   67  161 1
 133   68   69 2
 134   68   72 1
 135   69   70 1
 136   69  162 1
 137   70   71 1
 138   70  163 1
 139   71   72 2
 140   71  164 1
 141   73   74 2
 142   73   76 1
 143   73   83 am
 144   75   76 1
 145   75  165 1
 146   76   77 1
 147   76  166 1
 148   77   78 1
 149   77  167 1
 150   77  168 1
 151   78   79 1
 152   78   80 1
 153   78  169 1
 154   79  170 1
 155   79  171 1
 156   79  172 1
 157   80  173 1
 158   80  174 1
 159   80  175 1
 160   81   82 2
 161   81   84 1
 162   81   90 am
 163   83   84 1
 164   83  176 1
 165   84   85 1
 166   84  177 1
 167   85   86 1
 168   85   87 1
 169   85  178 1
 170   86  179 1
 171   86  180 1
 172   86  181 1
 173   87  182 1
 174   88   89 2
 175   88   91 1
 176   88   98 1
 177   90   91 1
 178   90  183 1
 179   91   92 1
 180   91  184 1
 181   92   93 1
 182   92  185 1
 183   92  186 1
 184   93   94 2
 185   93   97 1
 186   94   95 1
 187   94  187 1
 188   95   96 1
 189   95  188 1
 190   96   97 2
 191   96  189 1
 192   98  190 1

#	End of record

