#	Name: ASD01884060
#	Creating user name:	WinNT
#	Creation time:	15. 06. 2019 19:47

#	Modifying user name:	WinNT
#	Modification time:	15. 06. 2019 19:47

#	Program:	/corina/corina34_cracker 3.40 0067  02.08.2006

@<TRIPOS>MOLECULE
ASD01884060
  48   50    0    0    0
SMALL
NO_CHARGES


@<TRIPOS>ATOM
   1 C1            -0.6896     1.2421    -0.3227 C.2     
   2 C2            -0.5139    -0.1523    -0.1453 C.2     
   3 C3             0.6495    -0.7562    -0.6552 C.2     
   4 C4             1.5933     0.0499    -1.3221 C.2     
   5 C5             1.3707     1.3763    -1.4609 C.2     
   6 N6             0.2476     1.9601    -0.9688 N.am    
   7 C7            -1.5008    -0.9314     0.5401 C.1     
   8 N8            -2.2837    -1.5494     1.0837 N.1     
   9 O9            -1.6912     1.7903     0.1049 O.2     
  10 C10            0.8775    -2.2067    -0.4945 C.ar    
  11 C11            1.8055    -2.6711     0.4432 C.ar    
  12 C12            2.0145    -4.0260     0.5899 C.ar    
  13 C13            1.3046    -4.9287    -0.1923 C.ar    
  14 C14            0.3819    -4.4705    -1.1255 C.ar    
  15 C15            0.1626    -3.1189    -1.2746 C.ar    
  16 O16            1.5131    -6.2621    -0.0451 O.3     
  17 C17            4.1978    -6.7256    -2.4564 C.ar    
  18 C18            3.2536    -6.0898    -1.6764 C.ar    
  19 C19            2.4527    -6.8504    -0.8282 C.ar    
  20 C20            2.6408    -8.2305    -0.8036 C.ar    
  21 C21            3.6065    -8.7902    -1.6143 C.ar    
  22 N22            4.3461    -8.0357    -2.4051 N.ar    
  23 C23            5.0663    -5.9142    -3.3829 C.3     
  24 Cl24           2.6930    -1.5436     1.4202 Cl      
  25 C25            0.0523     3.4013    -1.1448 C.3     
  26 C26            0.6596     4.1473     0.0450 C.3     
  27 C27            0.4556     5.6525    -0.1389 C.3     
  28 C28            1.0629     6.3985     1.0509 C.3     
  29 H29            2.4944    -0.3914    -1.7218 H       
  30 H30            2.1012     1.9841    -1.9739 H       
  31 H31            2.7310    -4.3860     1.3133 H       
  32 H32           -0.1674    -5.1758    -1.7315 H       
  33 H33           -0.5581    -2.7645    -1.9966 H       
  34 H34            3.1375    -5.0171    -1.7228 H       
  35 H35            2.0392    -8.8536    -0.1585 H       
  36 H36            3.7594    -9.8593    -1.6013 H       
  37 H37            5.9700    -5.6063    -2.8571 H       
  38 H38            5.3375    -6.5183    -4.2487 H       
  39 H39            4.5193    -5.0310    -3.7131 H       
  40 H40            0.5408     3.7246    -2.0641 H       
  41 H41           -1.0141     3.6189    -1.2042 H       
  42 H42            0.1711     3.8241     0.9642 H       
  43 H43            1.7260     3.9298     0.1043 H       
  44 H44            0.9441     5.9757    -1.0581 H       
  45 H45           -0.6108     5.8701    -0.1982 H       
  46 H46            0.9176     7.4708     0.9199 H       
  47 H47            0.5744     6.0753     1.9701 H       
  48 H48            2.1293     6.1809     1.1103 H       
@<TRIPOS>BOND
   1    1    2 1
   2    1    6 am
   3    1    9 2
   4    2    3 2
   5    2    7 1
   6    3    4 1
   7    3   10 1
   8    4    5 2
   9    4   29 1
  10    5    6 1
  11    5   30 1
  12    6   25 1
  13    7    8 3
  14   10   11 ar
  15   10   15 ar
  16   11   12 ar
  17   11   24 1
  18   12   13 ar
  19   12   31 1
  20   13   14 ar
  21   13   16 1
  22   14   15 ar
  23   14   32 1
  24   15   33 1
  25   16   19 1
  26   17   18 ar
  27   17   22 ar
  28   17   23 1
  29   18   19 ar
  30   18   34 1
  31   19   20 ar
  32   20   21 ar
  33   20   35 1
  34   21   22 ar
  35   21   36 1
  36   23   37 1
  37   23   38 1
  38   23   39 1
  39   25   26 1
  40   25   40 1
  41   25   41 1
  42   26   27 1
  43   26   42 1
  44   26   43 1
  45   27   28 1
  46   27   44 1
  47   27   45 1
  48   28   46 1
  49   28   47 1
  50   28   48 1

#	End of record

