#	Name: ASD00842047
#	Creating user name:	WinNT
#	Creation time:	15. 06. 2019 18:43

#	Modifying user name:	WinNT
#	Modification time:	15. 06. 2019 18:43

#	Program:	/corina/corina34_cracker 3.40 0067  02.08.2006

@<TRIPOS>MOLECULE
ASD00842047
  90   95    0    0    0
SMALL
NO_CHARGES


@<TRIPOS>ATOM
   1 C1             0.8922     1.5133    -0.6894 C.ar    
   2 C2             1.2230     0.1741    -0.8357 C.ar    
   3 C3             1.2015    -0.6678     0.2670 C.ar    
   4 C4             0.8511    -0.1709     1.5072 C.ar    
   5 C5             0.5213     1.1645     1.6503 C.ar    
   6 C6             0.5424     2.0055     0.5533 C.ar    
   7 C7             1.5598    -2.1233     0.1116 C.3     
   8 C8             1.3427    -2.8652     1.4132 C.2     
   9 C9             0.7385    -2.7594    -1.0117 C.3     
  10 C10           -0.7282    -2.5274    -0.7549 C.2     
  11 N11           -1.6497    -3.0606    -1.5814 N.am    
  12 O12           -1.0794    -1.8608     0.1955 O.2     
  13 C13           -3.0755    -2.7477    -1.4144 C.3     
  14 C14           -3.8595    -4.0597    -1.3115 C.3     
  15 C15           -3.5461    -4.9333    -2.5284 C.3     
  16 C16           -2.0519    -5.2639    -2.5499 C.3     
  17 C17           -1.2469    -3.9610    -2.6703 C.3     
  18 C18           -4.3539    -6.2301    -2.4465 C.3     
  19 C19           -5.8491    -5.9012    -2.4266 C.3     
  20 C20           -6.6528    -7.2034    -2.4061 C.3     
  21 N21           -6.3247    -8.0012    -3.5945 N.3     
  22 C22           -4.9032    -8.3693    -3.6110 C.3     
  23 C23           -4.0473    -7.1019    -3.6674 C.3     
  24 H24           -6.9110    -8.8203    -3.6533 H       
  25 O25            0.2897    -2.9955     2.0007 O.2     
  26 N26            2.5347    -3.3528     1.7951 N.am    
  27 C27            3.0396    -2.2792    -0.1563 C.ar    
  28 C28            3.5507    -3.0291     0.9002 C.ar    
  29 C29            3.8529    -1.8396    -1.1698 C.ar    
  30 C30            5.2184    -2.1454    -1.1488 C.ar    
  31 C31            5.7393    -2.8989    -0.0899 C.ar    
  32 C32            4.9113    -3.3359     0.9219 C.ar    
  33 F33            7.0561    -3.1994    -0.0604 F       
  34 C34            2.5390    -5.9333     2.7518 C.ar    
  35 C35            1.2932    -6.3830     2.3396 C.ar    
  36 C36            3.6007    -6.8145     2.8251 C.ar    
  37 C37            3.4223    -8.1432     2.4876 C.ar    
  38 C38            2.1813    -8.5939     2.0763 C.ar    
  39 C39            1.1167    -7.7171     2.0018 C.ar    
  40 H40            2.0444    -9.6324     1.8132 H       
  41 O41            0.2473    -5.5183     2.2671 O.3     
  42 C42           -1.0062    -6.0511     1.8346 C.3     
  43 C43           -2.0548    -4.9372     1.8164 C.3     
  44 C44            6.0759    -1.6917    -2.2021 C.1     
  45 N45            6.7562    -1.3318    -3.0377 N.1     
  46 O46            1.5670    -0.3125    -2.0570 O.3     
  47 C47            1.9831    -0.1046    -4.4286 C.3     
  48 C48            1.4589     0.5823    -3.1659 C.3     
  49 S49            2.7691    -4.2384     3.1747 S.o2    
  50 O50            4.1406    -4.0928     3.5167 O.2     
  51 O51            1.7079    -3.8970     4.0558 O.2     
  52 H52            0.9125     2.1716    -1.5454 H       
  53 H53            0.8342    -0.8258     2.3657 H       
  54 H54            0.2469     1.5510     2.6207 H       
  55 H55            0.2844     3.0480     0.6676 H       
  56 H56            1.0162    -2.3090    -1.9647 H       
  57 H57            0.9365    -3.8307    -1.0447 H       
  58 H58           -3.2175    -2.1648    -0.5043 H       
  59 H59           -3.4277    -2.1780    -2.2743 H       
  60 H60           -3.5704    -4.5859    -0.4018 H       
  61 H61           -4.9276    -3.8441    -1.2839 H       
  62 H62           -3.8124    -4.3967    -3.4390 H       
  63 H63           -1.7799    -5.7787    -1.6285 H       
  64 H64           -1.8335    -5.9053    -3.4037 H       
  65 H65           -1.4512    -3.4929    -3.6332 H       
  66 H66           -0.1824    -4.1802    -2.5867 H       
  67 H67           -4.0872    -6.7686    -1.5371 H       
  68 H68           -6.0812    -5.3163    -1.5365 H       
  69 H69           -6.1076    -5.3280    -3.3170 H       
  70 H70           -6.4041    -7.7696    -1.5085 H       
  71 H71           -7.7181    -6.9728    -2.4063 H       
  72 H72           -4.6627    -8.9300    -2.7078 H       
  73 H73           -4.6977    -8.9855    -4.4863 H       
  74 H74           -4.2774    -6.5476    -4.5773 H       
  75 H75           -2.9921    -7.3749    -3.6639 H       
  76 H76            3.4405    -1.2593    -1.9820 H       
  77 H77            5.3184    -3.9169     1.7362 H       
  78 H78            4.5708    -6.4649     3.1460 H       
  79 H79            4.2536    -8.8303     2.5449 H       
  80 H80            0.1475    -8.0698     1.6813 H       
  81 H81           -0.8984    -6.4652     0.8321 H       
  82 H82           -1.3228    -6.8371     2.5203 H       
  83 H83           -3.0109    -5.3436     1.4865 H       
  84 H84           -2.1625    -4.5231     2.8189 H       
  85 H85           -1.7381    -4.1513     1.1307 H       
  86 H86            2.9992    -0.4586    -4.2545 H       
  87 H87            1.3410    -0.9501    -4.6754 H       
  88 H88            1.9824     0.6056    -5.2555 H       
  89 H89            0.4143     0.8585    -3.3095 H       
  90 H90            2.0477     1.4782    -2.9686 H       
@<TRIPOS>BOND
   1    1    2 ar
   2    1    6 ar
   3    1   52 1
   4    2    3 ar
   5    2   46 1
   6    3    4 ar
   7    3    7 1
   8    4    5 ar
   9    4   53 1
  10    5    6 ar
  11    5   54 1
  12    6   55 1
  13    7    8 1
  14    7    9 1
  15    7   27 1
  16    8   25 2
  17    8   26 am
  18    9   10 1
  19    9   56 1
  20    9   57 1
  21   10   11 am
  22   10   12 2
  23   11   13 1
  24   11   17 1
  25   13   14 1
  26   13   58 1
  27   13   59 1
  28   14   15 1
  29   14   60 1
  30   14   61 1
  31   15   16 1
  32   15   18 1
  33   15   62 1
  34   16   17 1
  35   16   63 1
  36   16   64 1
  37   17   65 1
  38   17   66 1
  39   18   19 1
  40   18   23 1
  41   18   67 1
  42   19   20 1
  43   19   68 1
  44   19   69 1
  45   20   21 1
  46   20   70 1
  47   20   71 1
  48   21   22 1
  49   21   24 1
  50   22   23 1
  51   22   72 1
  52   22   73 1
  53   23   74 1
  54   23   75 1
  55   26   49 am
  56   26   28 1
  57   27   28 ar
  58   27   29 ar
  59   28   32 ar
  60   29   30 ar
  61   29   76 1
  62   30   31 ar
  63   30   44 1
  64   31   32 ar
  65   31   33 1
  66   32   77 1
  67   34   35 ar
  68   34   36 ar
  69   34   49 1
  70   35   41 1
  71   35   39 ar
  72   36   37 ar
  73   36   78 1
  74   37   38 ar
  75   37   79 1
  76   38   39 ar
  77   38   40 1
  78   39   80 1
  79   41   42 1
  80   42   43 1
  81   42   81 1
  82   42   82 1
  83   43   83 1
  84   43   84 1
  85   43   85 1
  86   44   45 3
  87   46   48 1
  88   47   48 1
  89   47   86 1
  90   47   87 1
  91   47   88 1
  92   48   89 1
  93   48   90 1
  94   49   50 2
  95   49   51 2

#	End of record

