#	Name: ASD08150545
#	Creating user name:	WinNT
#	Creation time:	15. 06. 2019 21:16

#	Modifying user name:	WinNT
#	Modification time:	15. 06. 2019 21:16

#	Program:	/corina/corina34_cracker 3.40 0067  02.08.2006

@<TRIPOS>MOLECULE
ASD08150545
  36   39    0    0    0
SMALL
NO_CHARGES


@<TRIPOS>ATOM
   1 N1            -0.0155     1.2923     0.0091 N.2     
   2 C2             0.0021    -0.0041     0.0020 C.2     
   3 N3             1.1382    -0.7524    -0.0129 N.am    
   4 C4             2.3611    -0.1741    -0.0214 C.2     
   5 C5             2.4119     1.2987    -0.0140 C.ar    
   6 C6             3.6106     1.9854    -0.0222 C.ar    
   7 C7             3.5997     3.3859    -0.0150 C.ar    
   8 C8             2.3261     4.1080     0.0011 C.ar    
   9 C9             1.1172     3.4016     0.0093 C.ar    
  10 C10            1.1355     2.0180     0.0021 C.ar    
  11 C11            2.3457     5.5165     0.0085 C.ar    
  12 C12            3.5374     6.1707     0.0007 C.ar    
  13 C13            4.7492     5.4833    -0.0146 C.ar    
  14 C14            4.7988     4.1247    -0.0224 C.ar    
  15 O15            3.3778    -0.8427    -0.0343 O.2     
  16 C16            1.0397    -2.1498    -0.0189 C.ar    
  17 C17            1.0025    -2.8507     1.1808 C.ar    
  18 C18            0.9048    -4.2291     1.1707 C.ar    
  19 C19            0.8446    -4.9106    -0.0312 C.ar    
  20 C20            0.8815    -4.2157    -1.2260 C.ar    
  21 C21            0.9733    -2.8372    -1.2230 C.ar    
  22 Cl22           1.0792    -1.9957     2.6897 Cl      
  23 C23           -1.3197    -0.7279     0.0113 C.3     
  24 Cl24          -2.6632     0.4744     0.0311 Cl      
  25 H25            4.5471     1.4475    -0.0337 H       
  26 H26            0.1770     3.9329     0.0210 H       
  27 H27            1.4201     6.0730     0.0200 H       
  28 H28            3.5449     7.2506     0.0061 H       
  29 H29            5.6723     6.0438    -0.0208 H       
  30 H30            5.7511     3.6154    -0.0346 H       
  31 H31            0.8758    -4.7748     2.1023 H       
  32 H32            0.7690    -5.9879    -0.0366 H       
  33 H33            0.8343    -4.7511    -2.1628 H       
  34 H34            0.9975    -2.2952    -2.1569 H       
  35 H35           -1.4005    -1.3483    -0.8813 H       
  36 H36           -1.3828    -1.3578     0.8986 H       
@<TRIPOS>BOND
   1    1    2 2
   2    1   10 1
   3    2    3 1
   4    2   23 1
   5    3    4 am
   6    3   16 1
   7    4    5 1
   8    4   15 2
   9    5    6 ar
  10    5   10 ar
  11    6    7 ar
  12    6   25 1
  13    7    8 ar
  14    7   14 ar
  15    8    9 ar
  16    8   11 ar
  17    9   10 ar
  18    9   26 1
  19   11   12 ar
  20   11   27 1
  21   12   13 ar
  22   12   28 1
  23   13   14 ar
  24   13   29 1
  25   14   30 1
  26   16   17 ar
  27   16   21 ar
  28   17   18 ar
  29   17   22 1
  30   18   19 ar
  31   18   31 1
  32   19   20 ar
  33   19   32 1
  34   20   21 ar
  35   20   33 1
  36   21   34 1
  37   23   24 1
  38   23   35 1
  39   23   36 1

#	End of record

