#	Name: ASD05313320
#	Creating user name:	WinNT
#	Creation time:	15. 06. 2019 20:59

#	Modifying user name:	WinNT
#	Modification time:	15. 06. 2019 20:59

#	Program:	/corina/corina34_cracker 3.40 0067  02.08.2006

@<TRIPOS>MOLECULE
ASD05313320
  45   47    0    0    0
SMALL
NO_CHARGES


@<TRIPOS>ATOM
   1 C1             0.2171     0.5760     0.7683 C.2     
   2 C2             0.2877    -0.8276     0.2090 C.3     
   3 N3             1.2544     1.4474     0.7403 N.pl3   
   4 N4             1.5412    -0.9234    -0.5614 N.am    
   5 C5             2.7585    -0.3399     0.0226 C.3     
   6 C6             2.5721     1.1751     0.1631 C.3     
   7 N7            -0.8001     1.1465     1.3452 N.2     
   8 C8            -0.4659     2.3916     1.7103 C.2     
   9 C9             0.8279     2.6043     1.3409 C.2     
  10 C10            1.6174     3.8377     1.5491 C.ar    
  11 C11            1.1895     4.7960     2.4687 C.ar    
  12 C12            1.9297     5.9442     2.6594 C.ar    
  13 C13            3.0960     6.1472     1.9392 C.ar    
  14 C14            3.5254     5.1987     1.0248 C.ar    
  15 C15            2.7957     4.0444     0.8307 C.ar    
  16 F16            3.8169     7.2739     2.1290 F       
  17 C17            1.5709    -1.5285    -1.7653 C.2     
  18 O18            2.5888    -1.5107    -2.4296 O.2     
  19 C19            0.3660    -2.2135    -2.2778 C.ar    
  20 C20           -0.0300    -2.0374    -3.6062 C.ar    
  21 C21           -1.1573    -2.6810    -4.0779 C.ar    
  22 C22           -1.8931    -3.4974    -3.2382 C.ar    
  23 C23           -1.5061    -3.6754    -1.9216 C.ar    
  24 C24           -0.3786    -3.0441    -1.4388 C.ar    
  25 C25           -1.5868    -2.4929    -5.5101 C.3     
  26 F26           -2.7456    -3.2387    -5.7512 F       
  27 F27           -1.8467    -1.1384    -5.7449 F       
  28 F28           -0.5668    -2.9268    -6.3636 F       
  29 Cl29           0.8921    -1.0119    -4.6607 Cl      
  30 H30            0.2955    -1.5522     1.0232 H       
  31 H31           -0.5652    -1.0106    -0.4446 H       
  32 H32            2.9374    -0.7775     1.0048 H       
  33 H33            3.6087    -0.5435    -0.6284 H       
  34 H34            2.6433     1.6433    -0.8187 H       
  35 H35            3.3461     1.5780     0.8163 H       
  36 H36           -1.1083     3.1007     2.2112 H       
  37 H37            0.2802     4.6391     3.0300 H       
  38 H38            1.5995     6.6866     3.3709 H       
  39 H39            4.4351     5.3617     0.4660 H       
  40 H40            3.1333     3.3038     0.1207 H       
  41 H41           -2.7740    -3.9982    -3.6118 H       
  42 H42           -2.0859    -4.3138    -1.2715 H       
  43 H43           -0.0754    -3.1884    -0.4123 H       
  44 Cl44           9.4351    12.2739     8.3709 Cl      
  45 H45            9.4351    13.6439     8.3709 H       
@<TRIPOS>BOND
   1    1    2 1
   2    1    3 1
   3    1    7 2
   4    2    4 1
   5    2   30 1
   6    2   31 1
   7    3    6 1
   8    3    9 1
   9    4    5 1
  10    4   17 am
  11    5    6 1
  12    5   32 1
  13    5   33 1
  14    6   34 1
  15    6   35 1
  16    7    8 1
  17    8    9 2
  18    8   36 1
  19    9   10 1
  20   10   11 ar
  21   10   15 ar
  22   11   12 ar
  23   11   37 1
  24   12   13 ar
  25   12   38 1
  26   13   14 ar
  27   13   16 1
  28   14   15 ar
  29   14   39 1
  30   15   40 1
  31   17   18 2
  32   17   19 1
  33   19   20 ar
  34   19   24 ar
  35   20   21 ar
  36   20   29 1
  37   21   22 ar
  38   21   25 1
  39   22   23 ar
  40   22   41 1
  41   23   24 ar
  42   23   42 1
  43   24   43 1
  44   25   26 1
  45   25   27 1
  46   25   28 1
  47   44   45 1

#	End of record

