#	Name: ASD05503026
#	Creating user name:	WinNT
#	Creation time:	15. 06. 2019 21:01

#	Modifying user name:	WinNT
#	Modification time:	15. 06. 2019 21:01

#	Program:	/corina/corina34_cracker 3.40 0067  02.08.2006

@<TRIPOS>MOLECULE
ASD05503026
  43   44    0    0    0
SMALL
NO_CHARGES


@<TRIPOS>ATOM
   1 C1            -0.1505     1.3617     0.4409 C.ar    
   2 C2            -0.0935    -0.0173     0.2842 C.ar    
   3 C3             1.1364    -0.6547     0.2034 C.ar    
   4 C4             2.3057     0.0882     0.2794 C.ar    
   5 C5             2.2418     1.4675     0.4362 C.ar    
   6 C6             1.0158     2.0988     0.5163 C.ar    
   7 N7            -1.2750    -0.7631     0.2084 N.am    
   8 C8            -1.3354    -1.8512    -0.5845 C.2     
   9 C9            -2.5647    -2.7230    -0.5752 C.3     
  10 O10           -0.4005    -2.1289    -1.3054 O.2     
  11 C11           -2.3760    -3.8811    -1.5571 C.3     
  12 C12           -3.6240    -4.7661    -1.5477 C.3     
  13 N13            3.5473    -0.5504     0.1988 N.am    
  14 C14            4.5806     0.0601    -0.4146 C.2     
  15 C15            5.8602    -0.6535    -0.5907 C.ar    
  16 O16            4.4584     1.1990    -0.8228 O.2     
  17 C17            6.9327    -0.0223    -1.2264 C.ar    
  18 C18            8.1250    -0.6917    -1.3889 C.ar    
  19 C19            8.2626    -1.9935    -0.9215 C.ar    
  20 C20            7.1983    -2.6249    -0.2887 C.ar    
  21 C21            6.0045    -1.9604    -0.1172 C.ar    
  22 O22            9.4392    -2.6500    -1.0840 O.3     
  23 C23            9.5121    -3.9852    -0.5801 C.3     
  24 H24           -1.1075     1.8588     0.4994 H       
  25 H25            1.1834    -1.7268     0.0819 H       
  26 H26            3.1516     2.0464     0.4954 H       
  27 H27            0.9688     3.1709     0.6381 H       
  28 H28           -2.0507    -0.4968     0.7265 H       
  29 H29           -2.7216    -3.1191     0.4280 H       
  30 H30           -3.4313    -2.1323    -0.8723 H       
  31 H31           -2.2191    -3.4849    -2.5603 H       
  32 H32           -1.5094    -4.4718    -1.2600 H       
  33 H33           -4.4906    -4.1755    -1.8448 H       
  34 H34           -3.4896    -5.5912    -2.2472 H       
  35 H35           -3.7810    -5.1623    -0.5444 H       
  36 H36            3.6649    -1.4327     0.5843 H       
  37 H37            6.8265     0.9891    -1.5901 H       
  38 H38            8.9543    -0.2047    -1.8804 H       
  39 H39            7.3090    -3.6366     0.0727 H       
  40 H40            5.1779    -2.4517     0.3746 H       
  41 H41           10.5039    -4.3934    -0.7747 H       
  42 H42            9.3261    -3.9789     0.4939 H       
  43 H43            8.7619    -4.6018    -1.0752 H       
@<TRIPOS>BOND
   1    1    2 ar
   2    1    6 ar
   3    1   24 1
   4    2    3 ar
   5    2    7 1
   6    3    4 ar
   7    3   25 1
   8    4    5 ar
   9    4   13 1
  10    5    6 ar
  11    5   26 1
  12    6   27 1
  13    7    8 am
  14    7   28 1
  15    8    9 1
  16    8   10 2
  17    9   11 1
  18    9   29 1
  19    9   30 1
  20   11   12 1
  21   11   31 1
  22   11   32 1
  23   12   33 1
  24   12   34 1
  25   12   35 1
  26   13   14 am
  27   13   36 1
  28   14   15 1
  29   14   16 2
  30   15   17 ar
  31   15   21 ar
  32   17   18 ar
  33   17   37 1
  34   18   19 ar
  35   18   38 1
  36   19   20 ar
  37   19   22 1
  38   20   21 ar
  39   20   39 1
  40   21   40 1
  41   22   23 1
  42   23   41 1
  43   23   42 1
  44   23   43 1

#	End of record

