#	Name: ASD02030377
#	Creating user name:	WinNT
#	Creation time:	15. 06. 2019 20:15

#	Modifying user name:	WinNT
#	Modification time:	15. 06. 2019 20:15

#	Program:	/corina/corina34_cracker 3.40 0067  02.08.2006

@<TRIPOS>MOLECULE
ASD02030377
  59   62    0    0    0
SMALL
NO_CHARGES


@<TRIPOS>ATOM
   1 C1            -0.9807     1.4607    -1.0978 C.2     
   2 O2            -1.0338     0.2464    -1.1152 O.2     
   3 N3             2.2721     2.4903    -2.0716 N.pl3   
   4 N4             1.4181     1.5777    -1.7582 N.2     
   5 C5             0.2637     2.1520    -1.4967 C.2     
   6 N6             0.4151     3.4796    -1.6569 N.2     
   7 C7             1.6570     3.6893    -2.0124 C.2     
   8 C8             3.6146     2.2742    -2.4107 C.ar    
   9 C9             4.1286     0.9845    -2.4288 C.ar    
  10 C10            5.4521     0.7747    -2.7633 C.ar    
  11 C11            6.2651     1.8475    -3.0801 C.ar    
  12 C12            5.7562     3.1332    -3.0625 C.ar    
  13 C13            4.4319     3.3488    -2.7348 C.ar    
  14 N14           -2.0581     2.1770    -0.7201 N.am    
  15 C15           -3.3440     1.5140    -0.4618 C.3     
  16 C16           -3.8086     1.8801     0.9533 C.3     
  17 N17           -3.7184     3.3381     1.1147 N.am    
  18 C18           -2.4325     4.0011     0.8563 C.3     
  19 C19           -1.9665     3.6343    -0.5533 C.3     
  20 C20           -4.7958     4.0543     1.4924 C.2     
  21 C21           -4.7161     5.5292     1.5609 C.ar    
  22 C22           -5.7733     6.3096     1.0928 C.ar    
  23 C23           -5.6914     7.6919     1.1608 C.ar    
  24 C24           -4.5583     8.2956     1.6942 C.ar    
  25 C25           -3.5110     7.5221     2.1579 C.ar    
  26 C26           -3.5852     6.1451     2.0994 C.ar    
  27 O27           -5.8329     3.4879     1.7768 O.2     
  28 N28           -4.4731     9.7716     1.7653 N.pl3   
  29 O29           -3.4100    10.3306     1.5632 O.2     
  30 O30           -5.4660    10.4271     2.0258 O.2     
  31 N31           -6.7472     8.4782     0.6930 N.pl3   
  32 C32           -7.8958     7.8475     0.0378 C.3     
  33 C33           -4.3808     1.9892    -1.4816 C.3     
  34 C34           -3.1706    -0.0023    -0.5691 C.3     
  35 H35            2.1076     4.6484    -2.2207 H       
  36 H36            3.4943     0.1462    -2.1811 H       
  37 H37            5.8526    -0.2282    -2.7772 H       
  38 H38            7.2997     1.6810    -3.3414 H       
  39 H39            6.3938     3.9691    -3.3097 H       
  40 H40            4.0338     4.3527    -2.7260 H       
  41 H41           -4.8409     1.5597     1.0938 H       
  42 H42           -3.1679     1.3905     1.6868 H       
  43 H43           -2.5560     5.0814     0.9328 H       
  44 H44           -1.6939     3.6625     1.5829 H       
  45 H45           -0.9334     3.9539    -0.6902 H       
  46 H46           -2.6047     4.1273    -1.2865 H       
  47 H47           -6.6524     5.8386     0.6785 H       
  48 H48           -2.6334     7.9967     2.5712 H       
  49 H49           -2.7665     5.5441     2.4669 H       
  50 H50           -6.7198     9.4417     0.8020 H       
  51 H51           -7.5581     7.3070    -0.8465 H       
  52 H52           -8.3717     7.1520     0.7291 H       
  53 H53           -8.6123     8.6144    -0.2567 H       
  54 H54           -4.0412     1.7415    -2.4873 H       
  55 H55           -5.3334     1.4962    -1.2880 H       
  56 H56           -4.5063     3.0686    -1.3962 H       
  57 H57           -2.3980    -0.3298     0.1266 H       
  58 H58           -4.1121    -0.4939    -0.3242 H       
  59 H59           -2.8781    -0.2635    -1.5861 H       
@<TRIPOS>BOND
   1    1    2 2
   2    1    5 1
   3    1   14 am
   4    3    4 1
   5    3    7 1
   6    3    8 1
   7    4    5 2
   8    5    6 1
   9    6    7 2
  10    7   35 1
  11    8    9 ar
  12    8   13 ar
  13    9   10 ar
  14    9   36 1
  15   10   11 ar
  16   10   37 1
  17   11   12 ar
  18   11   38 1
  19   12   13 ar
  20   12   39 1
  21   13   40 1
  22   14   15 1
  23   14   19 1
  24   15   16 1
  25   15   33 1
  26   15   34 1
  27   16   17 1
  28   16   41 1
  29   16   42 1
  30   17   18 1
  31   17   20 am
  32   18   19 1
  33   18   43 1
  34   18   44 1
  35   19   45 1
  36   19   46 1
  37   20   21 1
  38   20   27 2
  39   21   22 ar
  40   21   26 ar
  41   22   23 ar
  42   22   47 1
  43   23   24 ar
  44   23   31 1
  45   24   25 ar
  46   24   28 1
  47   25   26 ar
  48   25   48 1
  49   26   49 1
  50   28   29 2
  51   28   30 2
  52   31   32 1
  53   31   50 1
  54   32   51 1
  55   32   52 1
  56   32   53 1
  57   33   54 1
  58   33   55 1
  59   33   56 1
  60   34   57 1
  61   34   58 1
  62   34   59 1

#	End of record

