#	Name: ASD01915094
#	Creating user name:	WinNT
#	Creation time:	15. 06. 2019 20:04

#	Modifying user name:	WinNT
#	Modification time:	15. 06. 2019 20:04

#	Program:	/corina/corina34_cracker 3.40 0067  02.08.2006

@<TRIPOS>MOLECULE
ASD01915094
  37   40    0    0    0
SMALL
NO_CHARGES


@<TRIPOS>ATOM
   1 C1            -0.0217     1.7482     0.0117 C.2     
   2 S2             0.0021    -0.0041     0.0020 S.3     
   3 C3            -1.7549    -0.1024     0.0182 C.ar    
   4 C4            -2.2998     1.1836     0.0304 C.ar    
   5 C5            -1.2676     2.2158     0.0318 C.2     
   6 N6            -2.5562    -1.1701     0.0205 N.ar    
   7 C7            -3.8643    -1.0623     0.0340 C.ar    
   8 C8            -4.4791     0.1804     0.0466 C.ar    
   9 C9            -3.7038     1.3190     0.0453 C.ar    
  10 C10           -1.5811     3.6643     0.0442 C.ar    
  11 C11           -2.2213     4.2322     1.1451 C.ar    
  12 C12           -1.2317     4.4651    -1.0424 C.ar    
  13 C13           -1.5255     5.8132    -1.0255 C.ar    
  14 C14           -2.1655     6.3710     0.0681 C.ar    
  15 C15           -2.5104     5.5813     1.1517 C.ar    
  16 Cl16          -2.5317     8.0679     0.0831 Cl      
  17 S17            1.4198     2.7614     0.0033 S.o2    
  18 C18            1.8630     3.0517     1.6838 C.ar    
  19 O19            2.4613     1.9728    -0.5559 O.2     
  20 O20            1.0242     4.0177    -0.5301 O.2     
  21 C21            2.7253     2.1859     2.3304 C.ar    
  22 C22            1.3528     4.1482     2.3534 C.ar    
  23 C23            1.7004     4.3767     3.6714 C.ar    
  24 C24            2.5589     3.5075     4.3208 C.ar    
  25 C25            3.0733     2.4131     3.6486 C.ar    
  26 Cl26           2.9964     3.7941     5.9761 Cl      
  27 H27           -4.4713    -1.9556     0.0350 H       
  28 H28           -5.5564     0.2550     0.0578 H       
  29 H29           -4.1622     2.2968     0.0550 H       
  30 H30           -2.4907     3.6171     1.9910 H       
  31 H31           -0.7317     4.0311    -1.8957 H       
  32 H32           -1.2553     6.4343    -1.8667 H       
  33 H33           -3.0095     6.0215     2.0023 H       
  34 H34            3.1267     1.3317     1.8055 H       
  35 H35            0.6827     4.8267     1.8464 H       
  36 H36            1.3023     5.2338     4.1942 H       
  37 H37            3.7431     1.7341     4.1551 H       
@<TRIPOS>BOND
   1    1    2 1
   2    1   17 1
   3    1    5 2
   4    2    3 1
   5    3    4 ar
   6    3    6 ar
   7    4    5 1
   8    4    9 ar
   9    5   10 1
  10    6    7 ar
  11    7    8 ar
  12    7   27 1
  13    8    9 ar
  14    8   28 1
  15    9   29 1
  16   10   11 ar
  17   10   12 ar
  18   11   15 ar
  19   11   30 1
  20   12   13 ar
  21   12   31 1
  22   13   14 ar
  23   13   32 1
  24   14   15 ar
  25   14   16 1
  26   15   33 1
  27   17   18 1
  28   17   19 2
  29   17   20 2
  30   18   21 ar
  31   18   22 ar
  32   21   25 ar
  33   21   34 1
  34   22   23 ar
  35   22   35 1
  36   23   24 ar
  37   23   36 1
  38   24   25 ar
  39   24   26 1
  40   25   37 1

#	End of record

