#	Name: ASD01000142
#	Creating user name:	WinNT
#	Creation time:	15. 06. 2019 18:54

#	Modifying user name:	WinNT
#	Modification time:	15. 06. 2019 18:54

#	Program:	/corina/corina34_cracker 3.40 0067  02.08.2006

@<TRIPOS>MOLECULE
ASD01000142
  30   31    0    0    0
SMALL
NO_CHARGES


@<TRIPOS>ATOM
   1 C1            -0.0167     1.3790     0.0096 C.ar    
   2 C2             0.0021    -0.0041     0.0020 C.ar    
   3 C3             1.2063    -0.6844    -0.0127 C.ar    
   4 C4             2.3965     0.0143    -0.0202 C.ar    
   5 C5             2.3835     1.4076    -0.0131 C.ar    
   6 C6             1.1676     2.0878     0.0021 C.ar    
   7 C7             3.6600     2.1642    -0.0207 C.ar    
   8 C8             3.6467     3.5578    -0.0136 C.ar    
   9 C9             4.8361     4.2578    -0.0207 C.ar    
  10 C10            6.0413     3.5794    -0.0354 C.ar    
  11 C11            6.0616     2.1944    -0.0431 C.ar    
  12 C12            4.8754     1.4840    -0.0293 C.ar    
  13 C13            7.3365     4.3496    -0.0437 C.3     
  14 S14           -1.5136    -0.9025     0.0116 S.o     
  15 O15           -1.6411    -1.3288    -1.3379 O.2     
  16 O16           -1.1463    -2.1859     0.7428 O.3     
  17 N17           -2.2571    -3.1269     0.8879 N.3     
  18 F18            7.2418     1.5369    -0.0579 F       
  19 F19            7.0633     5.7216    -0.0342 F       
  20 F20            8.0851     4.0153     1.0899 F       
  21 F21            8.0637     4.0268    -1.1945 F       
  22 H22           -0.9598     1.9052     0.0169 H       
  23 H23            1.2152    -1.7644    -0.0178 H       
  24 H24            3.3362    -0.5179    -0.0313 H       
  25 H25            1.1518     3.1677     0.0077 H       
  26 H26            2.7067     4.0894    -0.0028 H       
  27 H27            4.8257     5.3377    -0.0152 H       
  28 H28            4.8913     0.4041    -0.0300 H       
  29 H29           -1.9643    -3.9591     1.3775 H       
  30 H30           -3.0412    -2.6921     1.3507 H       
@<TRIPOS>BOND
   1    1    2 ar
   2    1    6 ar
   3    1   22 1
   4    2    3 ar
   5    2   14 1
   6    3    4 ar
   7    3   23 1
   8    4    5 ar
   9    4   24 1
  10    5    6 ar
  11    5    7 1
  12    6   25 1
  13    7    8 ar
  14    7   12 ar
  15    8    9 ar
  16    8   26 1
  17    9   10 ar
  18    9   27 1
  19   10   11 ar
  20   10   13 1
  21   11   12 ar
  22   11   18 1
  23   12   28 1
  24   13   19 1
  25   13   20 1
  26   13   21 1
  27   14   15 2
  28   14   16 1
  29   16   17 1
  30   17   29 1
  31   17   30 1

#	End of record

