#	Name: ASD02198393
#	Creating user name:	WinNT
#	Creation time:	15. 06. 2019 20:19

#	Modifying user name:	WinNT
#	Modification time:	15. 06. 2019 20:19

#	Program:	/corina/corina34_cracker 3.40 0067  02.08.2006

@<TRIPOS>MOLECULE
ASD02198393
  44   47    0    0    0
SMALL
NO_CHARGES


@<TRIPOS>ATOM
   1 C1            -0.0162     1.3455     0.0094 C.2     
   2 C2             0.0021    -0.0041     0.0020 C.2     
   3 S3             1.6342     1.9536    -0.0031 S.3     
   4 C4             2.2709     0.3144    -0.0179 C.2     
   5 C5             1.2609    -0.5629    -0.0130 C.2     
   6 S6             3.9812    -0.1087    -0.0365 S.o2    
   7 N7             4.4421    -0.2173    -1.6234 N.am    
   8 C8             4.9261     0.9091    -2.2874 C.ar    
   9 C9             6.2905     1.2608    -2.1904 C.ar    
  10 C10            6.7548     2.4099    -2.8758 C.ar    
  11 C11            5.8579     3.1775    -3.6360 C.ar    
  12 C12            4.5473     2.8145    -3.7111 C.ar    
  13 C13            4.0781     1.6846    -3.0480 C.ar    
  14 N14            7.1408     0.5290    -1.4657 N.ar    
  15 C15            8.4082     0.8505    -1.3715 C.ar    
  16 C16            8.9306     1.9678    -2.0196 C.ar    
  17 C17            8.1155     2.7588    -2.7779 C.ar    
  18 O18            4.6760     1.0049     0.5078 O.2     
  19 O19            4.0757    -1.4214     0.4994 O.2     
  20 C20           -1.2321     2.1811     0.0200 C.ar    
  21 C21           -1.1352     3.5786     0.0271 C.ar    
  22 N22           -2.4412     1.6181     0.0174 N.ar    
  23 C23           -3.5325     2.3674     0.0269 C.ar    
  24 N24           -3.4684     3.6919     0.0388 N.ar    
  25 C25           -2.3020     4.3191     0.0369 C.ar    
  26 S26           -5.1111     1.5847     0.0230 S.3     
  27 C27           -6.1846     3.0419     0.0392 C.3     
  28 C28            4.3412    -1.4969    -2.3296 C.3     
  29 H29           -0.8993    -0.5989     0.0078 H       
  30 H30            1.4209    -1.6310    -0.0199 H       
  31 H31            6.2068     4.0549    -4.1603 H       
  32 H32            3.8631     3.4099    -4.2974 H       
  33 H33            3.0345     1.4172    -3.1231 H       
  34 H34            9.0644     0.2335    -0.7757 H       
  35 H35            9.9791     2.2079    -1.9228 H       
  36 H36            8.5035     3.6284    -3.2874 H       
  37 H37           -0.1714     4.0658     0.0253 H       
  38 H38           -2.2629     5.3984     0.0468 H       
  39 H39           -5.9844     3.6307     0.9343 H       
  40 H40           -5.9884     3.6475    -0.8456 H       
  41 H41           -7.2275     2.7249     0.0385 H       
  42 H42            3.3605    -1.5768    -2.7985 H       
  43 H43            5.1154    -1.5515    -3.0949 H       
  44 H44            4.4727    -2.3144    -1.6207 H       
@<TRIPOS>BOND
   1    1    2 2
   2    1    3 1
   3    1   20 1
   4    2    5 1
   5    2   29 1
   6    3    4 1
   7    4    5 2
   8    4    6 1
   9    5   30 1
  10    6    7 am
  11    6   18 2
  12    6   19 2
  13    7    8 1
  14    7   28 1
  15    8    9 ar
  16    8   13 ar
  17    9   10 ar
  18    9   14 ar
  19   10   11 ar
  20   10   17 ar
  21   11   12 ar
  22   11   31 1
  23   12   13 ar
  24   12   32 1
  25   13   33 1
  26   14   15 ar
  27   15   16 ar
  28   15   34 1
  29   16   17 ar
  30   16   35 1
  31   17   36 1
  32   20   21 ar
  33   20   22 ar
  34   21   25 ar
  35   21   37 1
  36   22   23 ar
  37   23   24 ar
  38   23   26 1
  39   24   25 ar
  40   25   38 1
  41   26   27 1
  42   27   39 1
  43   27   40 1
  44   27   41 1
  45   28   42 1
  46   28   43 1
  47   28   44 1

#	End of record

