#	Name: ASD03082318
#	Creating user name:	WinNT
#	Creation time:	15. 06. 2019 20:27

#	Modifying user name:	WinNT
#	Modification time:	15. 06. 2019 20:27

#	Program:	/corina/corina34_cracker 3.40 0067  02.08.2006

@<TRIPOS>MOLECULE
ASD03082318
  49   53    0    0    0
SMALL
NO_CHARGES


@<TRIPOS>ATOM
   1 C1            -0.0658     1.3988    -0.2728 C.ar    
   2 C2            -0.2194     0.2116    -0.9759 C.ar    
   3 C3            -1.4165    -0.4818    -0.9096 C.ar    
   4 C4            -2.4641     0.0139    -0.1372 C.ar    
   5 C5            -2.3068     1.1990     0.5629 C.ar    
   6 C6            -1.1105     1.8877     0.5006 C.ar    
   7 O7            -1.8184    -1.6488    -1.4928 O.3     
   8 C8            -2.9746    -2.0734    -0.7471 C.3     
   9 O9            -3.5229    -0.8437    -0.2368 O.3     
  10 F10           -3.8943    -2.7106    -1.5869 F       
  11 F11           -2.5992    -2.9175     0.3034 F       
  12 N12            1.1439     2.1000    -0.3389 N.pl3   
  13 C13            1.1492     3.4909    -0.2473 C.2     
  14 N14            2.2413     4.2586    -0.2067 N.2     
  15 N15            0.0817     4.2526    -0.1930 N.2     
  16 N16            0.5293     5.5811    -0.1072 N.am    
  17 C17            1.8930     5.5249    -0.1200 C.2     
  18 C18            2.8144     6.6802    -0.0492 C.ar    
  19 C19            2.6622     7.7730    -0.9088 C.ar    
  20 C20            3.5460     8.8282    -0.8059 C.ar    
  21 N21            4.5178     8.8137     0.0830 N.ar    
  22 C22            4.7009     7.8020     0.9167 C.ar    
  23 C23            3.8577     6.7106     0.8837 C.ar    
  24 C24           -0.2343     6.6891    -0.0317 C.2     
  25 N25           -1.5752     6.5910    -0.1253 N.am    
  26 O26            0.2862     7.7764     0.1208 O.2     
  27 C27           -2.4052     7.7954    -0.0432 C.3     
  28 C28            5.7475     7.6028     1.9938 C.3     
  29 C29            5.1925     6.4794     2.8950 C.3     
  30 C30            4.2764     5.7010     1.9285 C.3     
  31 C31           -3.8795     7.4088    -0.1770 C.3     
  32 H32            0.5940    -0.1709    -1.5745 H       
  33 H33           -3.1195     1.5833     1.1615 H       
  34 H34           -0.9905     2.8111     1.0477 H       
  35 H35            1.9785     1.6180    -0.4485 H       
  36 H36            1.8678     7.7907    -1.6402 H       
  37 H37            3.4393     9.6778    -1.4640 H       
  38 H38           -1.9907     5.7230    -0.2470 H       
  39 H39           -2.2434     8.2834     0.9179 H       
  40 H40           -2.1344     8.4789    -0.8479 H       
  41 H41            6.6946     7.2974     1.5489 H       
  42 H42            5.8773     8.5195     2.5690 H       
  43 H43            5.9983     5.8448     3.2639 H       
  44 H44            4.6156     6.8948     3.7213 H       
  45 H45            3.4035     5.3202     2.4587 H       
  46 H46            4.8253     4.8818     1.4641 H       
  47 H47           -4.0414     6.9208    -1.1381 H       
  48 H48           -4.1504     6.7253     0.6277 H       
  49 H49           -4.4971     8.3049    -0.1160 H       
@<TRIPOS>BOND
   1    1    2 ar
   2    1   12 1
   3    1    6 ar
   4    2    3 ar
   5    2   32 1
   6    3    4 ar
   7    3    7 1
   8    4    5 ar
   9    4    9 1
  10    5    6 ar
  11    5   33 1
  12    6   34 1
  13    7    8 1
  14    8    9 1
  15    8   10 1
  16    8   11 1
  17   12   13 1
  18   12   35 1
  19   13   14 1
  20   13   15 2
  21   14   17 2
  22   15   16 1
  23   16   17 1
  24   16   24 am
  25   17   18 1
  26   18   19 ar
  27   18   23 ar
  28   19   20 ar
  29   19   36 1
  30   20   21 ar
  31   20   37 1
  32   21   22 ar
  33   22   23 ar
  34   22   28 1
  35   23   30 1
  36   24   25 am
  37   24   26 2
  38   25   27 1
  39   25   38 1
  40   27   31 1
  41   27   39 1
  42   27   40 1
  43   28   29 1
  44   28   41 1
  45   28   42 1
  46   29   30 1
  47   29   43 1
  48   29   44 1
  49   30   45 1
  50   30   46 1
  51   31   47 1
  52   31   48 1
  53   31   49 1

#	End of record

