#	Name: ASD01151042
#	Creating user name:	WinNT
#	Creation time:	15. 06. 2019 19:05

#	Modifying user name:	WinNT
#	Modification time:	15. 06. 2019 19:05

#	Program:	/corina/corina34_cracker 3.40 0067  02.08.2006

@<TRIPOS>MOLECULE
ASD01151042
  36   37    0    0    0
SMALL
NO_CHARGES


@<TRIPOS>ATOM
   1 C1            -0.2484     1.5869    -0.2637 C.3     
   2 C2            -0.1590     0.0603    -0.2142 C.3     
   3 C3             0.6555    -0.3770     1.0191 C.3     
   4 C4            -0.3204    -1.2740     1.8205 C.3     
   5 C5            -1.3490    -1.6767     0.7402 C.3     
   6 O6            -1.4760    -0.5025    -0.0800 O.3     
   7 C7            -0.8326    -2.8289    -0.0611 C.2     
   8 C8            -1.2730    -4.0429     0.0568 C.2     
   9 C9            -2.3644    -4.4475     1.0039 C.3     
  10 C10           -2.5584    -3.3794     2.0818 C.3     
  11 C11           -2.6842    -2.0122     1.3957 C.3     
  12 C12           -3.0291    -0.9446     2.4359 C.3     
  13 C13           -3.7800    -2.0707     0.3296 C.3     
  14 C14            0.2614    -2.5640    -1.0631 C.3     
  15 H15            0.7550     2.0077    -0.3275 H       
  16 H16           -0.8254     1.8889    -1.1377 H       
  17 H17           -0.7386     1.9516     0.6390 H       
  18 H18            0.3148    -0.3125    -1.1223 H       
  19 H19            1.5336    -0.9463     0.7141 H       
  20 H20            0.9486     0.4907     1.6100 H       
  21 H21            0.1924    -2.1509     2.2157 H       
  22 H22           -0.7981    -0.7102     2.6218 H       
  23 H23           -0.8285    -4.8074    -0.5631 H       
  24 H24           -3.2944    -4.5734     0.4496 H       
  25 H25           -2.0991    -5.3930     1.4769 H       
  26 H26           -3.4662    -3.5902     2.6470 H       
  27 H27           -1.6989    -3.3753     2.7522 H       
  28 H28           -2.3190    -0.9985     3.2611 H       
  29 H29           -2.9764     0.0419     1.9752 H       
  30 H30           -4.0374    -1.1164     2.8124 H       
  31 H31           -4.7296    -2.3290     0.7984 H       
  32 H32           -3.8670    -1.0986    -0.1558 H       
  33 H33           -3.5242    -2.8262    -0.4133 H       
  34 H34            1.1122    -2.1051    -0.5594 H       
  35 H35            0.5726    -3.5042    -1.5184 H       
  36 H36           -0.1092    -1.8910    -1.8364 H       
@<TRIPOS>BOND
   1    1    2 1
   2    1   15 1
   3    1   16 1
   4    1   17 1
   5    2    3 1
   6    2    6 1
   7    2   18 1
   8    3    4 1
   9    3   19 1
  10    3   20 1
  11    4    5 1
  12    4   21 1
  13    4   22 1
  14    5    6 1
  15    5    7 1
  16    5   11 1
  17    7    8 2
  18    7   14 1
  19    8    9 1
  20    8   23 1
  21    9   10 1
  22    9   24 1
  23    9   25 1
  24   10   11 1
  25   10   26 1
  26   10   27 1
  27   11   12 1
  28   11   13 1
  29   12   28 1
  30   12   29 1
  31   12   30 1
  32   13   31 1
  33   13   32 1
  34   13   33 1
  35   14   34 1
  36   14   35 1
  37   14   36 1

#	End of record

