#	Name: ASD01917941
#	Creating user name:	WinNT
#	Creation time:	15. 06. 2019 20:10

#	Modifying user name:	WinNT
#	Modification time:	15. 06. 2019 20:10

#	Program:	/corina/corina34_cracker 3.40 0067  02.08.2006

@<TRIPOS>MOLECULE
ASD01917941
  36   39    0    0    0
SMALL
NO_CHARGES


@<TRIPOS>ATOM
   1 N1             4.7254    -0.5764    -2.1731 N.ar    
   2 C2             5.2092     0.1533    -3.1581 C.ar    
   3 N3             5.1509     1.4698    -3.1432 N.ar    
   4 C4             4.5983     2.1135    -2.1282 C.ar    
   5 C5             4.0751     1.3801    -1.0681 C.ar    
   6 C6             4.1572    -0.0076    -1.1226 C.ar    
   7 O7             3.4991     2.0032    -0.0066 O.3     
   8 C8             3.5511     3.3615     0.0418 C.2     
   9 N9             2.4077     5.4370    -0.0253 N.pl3   
  10 C10            2.4043     4.0794    -0.0676 C.2     
  11 C11            4.7860     3.9993     0.2096 C.2     
  12 C12            4.8311     5.3882     0.2582 C.2     
  13 C13            3.5757     6.1279     0.1307 C.2     
  14 C14            6.1102     6.0964     0.4339 C.2     
  15 N15            6.1342     7.4432     0.4787 N.am    
  16 C16            7.3277     8.1105     0.7504 C.ar    
  17 N17            8.4536     7.4226     0.8561 N.ar    
  18 C18            7.3244     9.4922     0.9019 C.ar    
  19 C19            8.5156    10.1432     1.1710 C.ar    
  20 C20            9.6752     9.3850     1.2798 C.ar    
  21 C21            9.6048     8.0138     1.1118 C.ar    
  22 O22            7.1450     5.4659     0.5388 O.2     
  23 N23            1.3941     6.4025    -0.1123 N.2     
  24 C24            1.9712     7.5767    -0.0164 C.2     
  25 N25            3.2799     7.4181     0.1354 N.2     
  26 F26           10.8591     9.9812     1.5412 F       
  27 H27            5.6670    -0.3419    -4.0017 H       
  28 H28            4.5543     3.1926    -2.1225 H       
  29 H29            3.7625    -0.6118    -0.3191 H       
  30 H30            1.4665     3.5585    -0.1918 H       
  31 H31            5.6927     3.4196     0.3006 H       
  32 H32            5.3210     7.9482     0.3218 H       
  33 H33            6.4044    10.0504     0.8105 H       
  34 H34            8.5435    11.2159     1.2934 H       
  35 H35           10.5034     7.4199     1.1911 H       
  36 H36            1.4588     8.5269    -0.0484 H       
@<TRIPOS>BOND
   1    1    2 ar
   2    1    6 ar
   3    2    3 ar
   4    2   27 1
   5    3    4 ar
   6    4    5 ar
   7    4   28 1
   8    5    6 ar
   9    5    7 1
  10    6   29 1
  11    7    8 1
  12    8   11 1
  13    8   10 2
  14    9   10 1
  15    9   23 1
  16    9   13 1
  17   10   30 1
  18   11   12 2
  19   11   31 1
  20   12   13 1
  21   12   14 1
  22   13   25 2
  23   14   15 am
  24   14   22 2
  25   15   16 1
  26   15   32 1
  27   16   18 ar
  28   16   17 ar
  29   17   21 ar
  30   18   19 ar
  31   18   33 1
  32   19   20 ar
  33   19   34 1
  34   20   21 ar
  35   20   26 1
  36   21   35 1
  37   23   24 2
  38   24   25 1
  39   24   36 1

#	End of record

