#	Name: ASD01912114
#	Creating user name:	WinNT
#	Creation time:	15. 06. 2019 19:59

#	Modifying user name:	WinNT
#	Modification time:	15. 06. 2019 19:59

#	Program:	/corina/corina34_cracker 3.40 0067  02.08.2006

@<TRIPOS>MOLECULE
ASD01912114
  55   59    0    0    0
SMALL
NO_CHARGES


@<TRIPOS>ATOM
   1 N1             0.0270     1.3908    -0.1028 N.2     
   2 C2            -0.0388     0.0591     0.0786 C.2     
   3 C3             1.2319    -0.4205     0.1479 C.2     
   4 N4             2.0697     0.6506     0.0044 N.pl3   
   5 C5             1.2870     1.7582    -0.1490 C.2     
   6 C6             1.7762     3.1412    -0.3366 C.ar    
   7 C7             3.0849     3.4747     0.0151 C.ar    
   8 C8             3.5361     4.7659    -0.1617 C.ar    
   9 C9             2.6924     5.7314    -0.6877 C.ar    
  10 C10            1.3919     5.4054    -1.0386 C.ar    
  11 C11            0.9325     4.1159    -0.8711 C.ar    
  12 C12           -1.2810    -0.7457     0.1846 C.ar    
  13 C13           -2.5253    -0.1251     0.0957 C.ar    
  14 C14           -3.6780    -0.8775     0.1943 C.ar    
  15 C15           -3.5992    -2.2477     0.3814 C.ar    
  16 C16           -2.3639    -2.8690     0.4708 C.ar    
  17 C17           -1.2064    -2.1254     0.3676 C.ar    
  18 C18            3.5342     0.6159     0.0136 C.3     
  19 C19            4.0334     0.8479     1.4164 C.2     
  20 N20            5.3576     0.8587     1.6673 N.am    
  21 O21            3.2436     1.0249     2.3196 O.2     
  22 F22           -4.7302    -2.9805     0.4774 F       
  23 F23            3.1391     6.9949    -0.8586 F       
  24 C24           -5.0244    -0.2074     0.0987 C.3     
  25 C25            6.3343     0.6456     0.5837 C.3     
  26 C26            7.3824    -0.3056     1.1064 C.2     
  27 C27            7.4981    -0.6650     2.3992 C.2     
  28 C28            6.5987    -0.1765     3.5063 C.3     
  29 C29            5.8656     1.0894     3.0280 C.3     
  30 O30            8.3456    -0.9399     0.4251 O.3     
  31 C31            9.0435    -1.6772     1.3034 C.2     
  32 N32            8.5328    -1.5109     2.4927 N.2     
  33 C33           10.2238    -2.5531     0.9705 C.3     
  34 H34            1.5237    -1.4506     0.2897 H       
  35 H35            3.7431     2.7231     0.4254 H       
  36 H36            4.5486     5.0251     0.1105 H       
  37 H37            0.7383     6.1616    -1.4477 H       
  38 H38           -0.0810     3.8628    -1.1453 H       
  39 H39           -2.5876     0.9432    -0.0499 H       
  40 H40           -2.3071    -3.9375     0.6171 H       
  41 H41           -0.2440    -2.6104     0.4374 H       
  42 H42            3.8767    -0.3575    -0.3376 H       
  43 H43            3.9203     1.3955    -0.6431 H       
  44 H44           -5.3457    -0.1843    -0.9426 H       
  45 H45           -5.7504    -0.7646     0.6907 H       
  46 H46           -4.9509     0.8115     0.4789 H       
  47 H47            5.8375     0.2103    -0.2833 H       
  48 H48            6.7973     1.5937     0.3099 H       
  49 H49            5.8720    -0.9500     3.7546 H       
  50 H50            7.1976     0.0605     4.3857 H       
  51 H51            6.5569     1.9322     3.0265 H       
  52 H52            5.0316     1.3021     3.6969 H       
  53 H53           10.4276    -2.4973    -0.0988 H       
  54 H54           11.0977    -2.2115     1.5252 H       
  55 H55            9.9998    -3.5841     1.2443 H       
@<TRIPOS>BOND
   1    1    2 1
   2    1    5 2
   3    2    3 2
   4    2   12 1
   5    3    4 1
   6    3   34 1
   7    4    5 1
   8    4   18 1
   9    5    6 1
  10    6    7 ar
  11    6   11 ar
  12    7    8 ar
  13    7   35 1
  14    8    9 ar
  15    8   36 1
  16    9   10 ar
  17    9   23 1
  18   10   11 ar
  19   10   37 1
  20   11   38 1
  21   12   13 ar
  22   12   17 ar
  23   13   14 ar
  24   13   39 1
  25   14   15 ar
  26   14   24 1
  27   15   16 ar
  28   15   22 1
  29   16   17 ar
  30   16   40 1
  31   17   41 1
  32   18   19 1
  33   18   42 1
  34   18   43 1
  35   19   20 am
  36   19   21 2
  37   20   25 1
  38   20   29 1
  39   24   44 1
  40   24   45 1
  41   24   46 1
  42   25   26 1
  43   25   47 1
  44   25   48 1
  45   26   27 2
  46   26   30 1
  47   27   28 1
  48   27   32 1
  49   28   29 1
  50   28   49 1
  51   28   50 1
  52   29   51 1
  53   29   52 1
  54   30   31 1
  55   31   32 2
  56   31   33 1
  57   33   53 1
  58   33   54 1
  59   33   55 1

#	End of record

