#	Name: ASD05380325
#	Creating user name:	WinNT
#	Creation time:	15. 06. 2019 20:59

#	Modifying user name:	WinNT
#	Modification time:	15. 06. 2019 20:59

#	Program:	/corina/corina34_cracker 3.40 0067  02.08.2006

@<TRIPOS>MOLECULE
ASD05380325
  60   64    0    0    0
SMALL
NO_CHARGES


@<TRIPOS>ATOM
   1 N1            -1.5761     1.1839    -0.3858 N.ar    
   2 C2            -1.2811    -0.1159    -0.3509 C.ar    
   3 C3            -0.0538    -0.5452    -0.8535 C.ar    
   4 C4             0.8181     0.4076    -1.3742 C.ar    
   5 N5             0.4543     1.6862    -1.3750 N.ar    
   6 C6            -0.7205     2.0591    -0.8890 C.ar    
   7 N7             2.0537     0.0266    -1.8863 N.am    
   8 C8             3.1531    -0.5703    -1.1126 C.3     
   9 C9             2.4347     0.1380    -3.1662 C.2     
  10 O10            3.6758    -0.3018    -3.4015 O.3     
  11 C11            4.2621    -0.7891    -2.1598 C.3     
  12 C12            5.4895     0.0104    -1.8056 C.ar    
  13 O13            1.7180     0.5959    -4.0338 O.2     
  14 N14           -1.0620     3.4002    -0.9081 N.3     
  15 C15           -2.4246     3.6042    -0.3952 C.3     
  16 C16           -0.9255     3.9595    -2.2608 C.3     
  17 C17           -1.2546     5.4543    -2.2248 C.3     
  18 O18           -2.5704     5.6350    -1.6945 O.3     
  19 C19           -2.7386     5.1026    -0.3779 C.3     
  20 C20           -2.2442    -1.0904     0.2147 C.ar    
  21 C21           -2.8147    -0.8856     1.4743 C.ar    
  22 N22           -3.6692    -1.7768     1.9437 N.ar    
  23 C23           -3.9869    -2.8526     1.2373 C.ar    
  24 N24           -3.4671    -3.0818     0.0393 N.ar    
  25 C25           -2.6095    -2.2349    -0.5006 C.ar    
  26 C26           -2.4596     0.3340     2.2851 C.3     
  27 F27           -3.0371     1.4665     1.7013 F       
  28 F28           -2.9429     0.1838     3.5894 F       
  29 F29           -1.0690     0.4838     2.3175 F       
  30 N30           -4.8849    -3.7613     1.7647 N.pl3   
  31 C31            3.6266     0.3919    -0.0214 C.3     
  32 C32            2.5164     0.5731     1.0157 C.3     
  33 C33            6.5999    -0.6137    -1.2586 C.ar    
  34 C34            7.7070     0.1618    -0.9488 C.ar    
  35 C35            7.6669     1.5211    -1.1938 C.ar    
  36 N36            6.5927     2.0812    -1.7151 N.ar    
  37 C37            5.5243     1.3743    -2.0274 C.ar    
  38 H38            0.2145    -1.5913    -0.8390 H       
  39 H39            2.8428    -1.5197    -0.6762 H       
  40 H40            4.5055    -1.8484    -2.2421 H       
  41 H41           -3.1372     3.0904    -1.0405 H       
  42 H42           -2.4960     3.2057     0.6169 H       
  43 H43            0.0974     3.8203    -2.6107 H       
  44 H44           -1.6141     3.4514    -2.9360 H       
  45 H45           -0.5329     5.9707    -1.5918 H       
  46 H46           -1.2102     5.8611    -3.2351 H       
  47 H47           -3.7676     5.2550    -0.0524 H       
  48 H48           -2.0602     5.6087     0.3088 H       
  49 H49           -2.1902    -2.4277    -1.4771 H       
  50 H50           -5.2732    -3.6071     2.6401 H       
  51 H51           -5.1269    -4.5531     1.2594 H       
  52 H52            4.5135    -0.0164     0.4633 H       
  53 H53            3.8681     1.3567    -0.4675 H       
  54 H54            2.8961     1.1532     1.8568 H       
  55 H55            1.6769     1.0990     0.5611 H       
  56 H56            2.1854    -0.4038     1.3680 H       
  57 H57            6.6027    -1.6784    -1.0777 H       
  58 H58            8.5894    -0.2909    -0.5211 H       
  59 H59            8.5250     2.1320    -0.9553 H       
  60 H60            4.6631     1.8681    -2.4526 H       
@<TRIPOS>BOND
   1    1    2 ar
   2    1    6 ar
   3    2    3 ar
   4    2   20 1
   5    3    4 ar
   6    3   38 1
   7    4    5 ar
   8    4    7 1
   9    5    6 ar
  10    6   14 1
  11    7    8 1
  12    7    9 am
  13    8   31 1
  14    8   11 1
  15    8   39 1
  16    9   10 1
  17    9   13 2
  18   10   11 1
  19   11   12 1
  20   11   40 1
  21   12   33 ar
  22   12   37 ar
  23   14   15 1
  24   14   16 1
  25   15   19 1
  26   15   41 1
  27   15   42 1
  28   16   17 1
  29   16   43 1
  30   16   44 1
  31   17   18 1
  32   17   45 1
  33   17   46 1
  34   18   19 1
  35   19   47 1
  36   19   48 1
  37   20   21 ar
  38   20   25 ar
  39   21   22 ar
  40   21   26 1
  41   22   23 ar
  42   23   24 ar
  43   23   30 1
  44   24   25 ar
  45   25   49 1
  46   26   27 1
  47   26   28 1
  48   26   29 1
  49   30   50 1
  50   30   51 1
  51   31   32 1
  52   31   52 1
  53   31   53 1
  54   32   54 1
  55   32   55 1
  56   32   56 1
  57   33   34 ar
  58   33   57 1
  59   34   35 ar
  60   34   58 1
  61   35   36 ar
  62   35   59 1
  63   36   37 ar
  64   37   60 1

#	End of record

