#	Name: ASD02030631
#	Creating user name:	WinNT
#	Creation time:	15. 06. 2019 20:15

#	Modifying user name:	WinNT
#	Modification time:	15. 06. 2019 20:15

#	Program:	/corina/corina34_cracker 3.40 0067  02.08.2006

@<TRIPOS>MOLECULE
ASD02030631
  61   64    0    0    0
SMALL
NO_CHARGES


@<TRIPOS>ATOM
   1 C1             0.1625     1.1535    -0.0919 C.ar    
   2 C2             0.0208    -0.2178    -0.0961 C.ar    
   3 C3             1.1478    -1.0244    -0.1657 C.ar    
   4 C4             2.4034    -0.4450    -0.2245 C.ar    
   5 C5             2.5442     0.9367    -0.2137 C.ar    
   6 C6             1.4226     1.7338    -0.1564 C.ar    
   7 C7             1.5021     3.2399    -0.1750 C.3     
   8 C8             3.9423     1.4954    -0.2512 C.3     
   9 C9             3.9349     2.9488    -0.7221 C.3     
  10 N10            2.8913     3.6640     0.0294 N.am    
  11 C11            1.0047     3.7594    -1.5254 C.3     
  12 O12            1.7444     3.1363    -2.5773 O.3     
  13 C13            1.4244     3.4903    -3.8506 C.ar    
  14 C14            3.2002     4.6689     0.8726 C.2     
  15 O15            4.3639     4.9516     1.0808 O.2     
  16 C16            2.1236     5.4275     1.5445 C.ar    
  17 C17            0.7726     4.2104    -6.4429 C.ar    
  18 C18            0.0981     4.7816    -5.3740 C.ar    
  19 C19            0.4232     4.4221    -4.0806 C.ar    
  20 C20            2.1032     2.9237    -4.9193 C.ar    
  21 C21            1.7780     3.2832    -6.2128 C.ar    
  22 C22            2.3040     5.8960     2.8465 C.ar    
  23 C23            0.9244     5.6830     0.8770 C.ar    
  24 C24           -0.0761     6.3917     1.5091 C.ar    
  25 C25            0.1067     6.8492     2.8022 C.ar    
  26 C26            1.2950     6.6040     3.4679 C.ar    
  27 O27            0.4526     4.5643    -7.7163 O.3     
  28 C28            1.1878     3.9363    -8.7684 C.3     
  29 O29            1.0193    -2.3772    -0.1757 O.3     
  30 C30           -0.2946    -2.9055     0.0156 C.3     
  31 C31           -0.9449    -3.1606    -1.3457 C.3     
  32 C32           -0.2075    -4.2201     0.7935 C.3     
  33 I33            1.5626     7.3081     5.4228 I       
  34 H34           -0.7143     1.7820    -0.0424 H       
  35 H35           -0.9623    -0.6620    -0.0451 H       
  36 H36            3.2807    -1.0724    -0.2789 H       
  37 H37            0.8782     3.6459     0.6212 H       
  38 H38            4.3757     1.4444     0.7476 H       
  39 H39            4.5479     0.9003    -0.9347 H       
  40 H40            4.9063     3.4040    -0.5288 H       
  41 H41            3.7136     2.9898    -1.7886 H       
  42 H42           -0.0539     3.5248    -1.6373 H       
  43 H43            1.1445     4.8393    -1.5731 H       
  44 H44           -0.6849     5.5036    -5.5532 H       
  45 H45           -0.1026     4.8663    -3.2483 H       
  46 H46            2.8861     2.2017    -4.7401 H       
  47 H47            2.3032     2.8383    -7.0450 H       
  48 H48            3.2308     5.7049     3.3670 H       
  49 H49            0.7805     5.3269    -0.1323 H       
  50 H50           -1.0040     6.5902     0.9935 H       
  51 H51           -0.6797     7.4039     3.2924 H       
  52 H52            2.2477     4.1658    -8.6582 H       
  53 H53            1.0427     2.8572    -8.7192 H       
  54 H54            0.8339     4.3070    -9.7304 H       
  55 H55           -0.8957    -2.1902     0.5770 H       
  56 H56           -1.0070    -2.2240    -1.8999 H       
  57 H57           -0.3439    -3.8758    -1.9072 H       
  58 H58           -1.9471    -3.5635    -1.1998 H       
  59 H59            0.2557    -4.0384     1.7632 H       
  60 H60           -1.2097    -4.6231     0.9393 H       
  61 H61            0.3935    -4.9354     0.2320 H       
@<TRIPOS>BOND
   1    1    2 ar
   2    1    6 ar
   3    1   34 1
   4    2    3 ar
   5    2   35 1
   6    3    4 ar
   7    3   29 1
   8    4    5 ar
   9    4   36 1
  10    5    6 ar
  11    5    8 1
  12    6    7 1
  13    7   10 1
  14    7   11 1
  15    7   37 1
  16    8    9 1
  17    8   38 1
  18    8   39 1
  19    9   10 1
  20    9   40 1
  21    9   41 1
  22   10   14 am
  23   11   12 1
  24   11   42 1
  25   11   43 1
  26   12   13 1
  27   13   20 ar
  28   13   19 ar
  29   14   15 2
  30   14   16 1
  31   16   23 ar
  32   16   22 ar
  33   17   18 ar
  34   17   21 ar
  35   17   27 1
  36   18   19 ar
  37   18   44 1
  38   19   45 1
  39   20   21 ar
  40   20   46 1
  41   21   47 1
  42   22   26 ar
  43   22   48 1
  44   23   24 ar
  45   23   49 1
  46   24   25 ar
  47   24   50 1
  48   25   26 ar
  49   25   51 1
  50   26   33 1
  51   27   28 1
  52   28   52 1
  53   28   53 1
  54   28   54 1
  55   29   30 1
  56   30   31 1
  57   30   32 1
  58   30   55 1
  59   31   56 1
  60   31   57 1
  61   31   58 1
  62   32   59 1
  63   32   60 1
  64   32   61 1

#	End of record

