#	Name: ASD01911855
#	Creating user name:	WinNT
#	Creation time:	15. 06. 2019 19:58

#	Modifying user name:	WinNT
#	Modification time:	15. 06. 2019 19:58

#	Program:	/corina/corina34_cracker 3.40 0067  02.08.2006

@<TRIPOS>MOLECULE
ASD01911855
  37   39    0    0    0
SMALL
NO_CHARGES


@<TRIPOS>ATOM
   1 C1            -1.0596    -0.4996    -2.0781 C.ar    
   2 C2            -1.0551     0.0569    -0.8025 C.ar    
   3 C3            -1.0031     1.4368    -0.6699 C.ar    
   4 N4            -0.9585     2.2137    -1.7341 N.ar    
   5 C5            -0.9614     1.7185    -2.9560 C.ar    
   6 C6            -1.0118     0.3533    -3.1686 C.ar    
   7 O7            -1.1013    -0.7400     0.2973 O.3     
   8 C8            -1.1520    -2.0849     0.1090 C.ar    
   9 C9            -0.0027    -2.7791    -0.2331 C.ar    
  10 C10           -0.0551    -4.1603    -0.4263 C.ar    
  11 C11           -1.2661    -4.8370    -0.2740 C.ar    
  12 C12           -2.4115    -4.1349     0.0684 C.ar    
  13 C13           -2.3530    -2.7611     0.2652 C.ar    
  14 N14           -3.6261    -4.8115     0.2215 N.am    
  15 C15           -4.7837    -4.1983    -0.0954 C.2     
  16 C16           -6.0729    -4.8734     0.1639 C.ar    
  17 O17           -4.7676    -3.0899    -0.5944 O.2     
  18 C18           -7.2733    -4.2410    -0.1630 C.ar    
  19 C19           -8.4736    -4.8762     0.0814 C.ar    
  20 C20           -8.4895    -6.1373     0.6493 C.ar    
  21 C21           -7.3023    -6.7708     0.9768 C.ar    
  22 C22           -6.0945    -6.1485     0.7316 C.ar    
  23 Cl23          -7.3327    -8.3531     1.6903 Cl      
  24 C24            1.1305    -4.8811    -0.7804 C.1     
  25 N25            2.0711    -5.4529    -1.0613 N.1     
  26 H26           -1.0951    -1.5704    -2.2143 H       
  27 H27           -0.9994     1.8793     0.3153 H       
  28 H28           -0.9243     2.3884    -3.8024 H       
  29 H29           -1.0134    -0.0436    -4.1730 H       
  30 H30            0.9325    -2.2520    -0.3504 H       
  31 H31           -1.3110    -5.9057    -0.4230 H       
  32 H32           -3.2468    -2.2167     0.5320 H       
  33 H33           -3.6353    -5.7221     0.5557 H       
  34 H34           -7.2628    -3.2562    -0.6062 H       
  35 H35           -9.4030    -4.3873    -0.1710 H       
  36 H36           -9.4318    -6.6299     0.8385 H       
  37 H37           -5.1691    -6.6432     0.9869 H       
@<TRIPOS>BOND
   1    1    2 ar
   2    1    6 ar
   3    1   26 1
   4    2    3 ar
   5    2    7 1
   6    3    4 ar
   7    3   27 1
   8    4    5 ar
   9    5    6 ar
  10    5   28 1
  11    6   29 1
  12    7    8 1
  13    8    9 ar
  14    8   13 ar
  15    9   10 ar
  16    9   30 1
  17   10   11 ar
  18   10   24 1
  19   11   12 ar
  20   11   31 1
  21   12   13 ar
  22   12   14 1
  23   13   32 1
  24   14   15 am
  25   14   33 1
  26   15   16 1
  27   15   17 2
  28   16   18 ar
  29   16   22 ar
  30   18   19 ar
  31   18   34 1
  32   19   20 ar
  33   19   35 1
  34   20   21 ar
  35   20   36 1
  36   21   22 ar
  37   21   23 1
  38   22   37 1
  39   24   25 3

#	End of record

