#	Name: ASD02500223
#	Creating user name:	WinNT
#	Creation time:	15. 06. 2019 20:22

#	Modifying user name:	WinNT
#	Modification time:	15. 06. 2019 20:22

#	Program:	/corina/corina34_cracker 3.40 0067  02.08.2006

@<TRIPOS>MOLECULE
ASD02500223
  60   64    0    0    0
SMALL
NO_CHARGES


@<TRIPOS>ATOM
   1 N1            -3.6992     5.6641    -0.1258 N.ar    
   2 C2            -4.7959     6.3175    -0.4235 C.ar    
   3 C3            -5.9705     6.1499     0.3071 C.ar    
   4 C4            -5.9981     5.2858     1.3644 C.ar    
   5 C5            -4.8186     4.5856     1.6809 C.ar    
   6 C6            -4.7707     3.6813     2.7537 C.ar    
   7 C7            -3.6103     3.0235     3.0280 C.ar    
   8 C8            -2.4688     3.2363     2.2582 C.ar    
   9 C9            -2.4799     4.1058     1.2111 C.ar    
  10 C10           -3.6587     4.8037     0.8965 C.ar    
  11 S11           -1.0217     4.3564     0.2543 S.o2    
  12 O12           -0.8246     5.7619     0.1838 O.2     
  13 O13           -0.0460     3.4596     0.7673 O.2     
  14 N14           -1.3546     3.8530    -1.2878 N.am    
  15 C15           -1.5622     2.5017    -1.5492 C.ar    
  16 C16           -1.1821     1.9644    -2.7783 C.ar    
  17 C17           -1.3866     0.6273    -3.0391 C.ar    
  18 C18           -1.9759    -0.1900    -2.0693 C.ar    
  19 C19           -2.3552     0.3527    -0.8387 C.ar    
  20 C20           -2.1432     1.6887    -0.5815 C.ar    
  21 C21           -2.1969    -1.6222    -2.3449 C.2     
  22 O22           -1.9656    -2.4498    -1.4846 O.2     
  23 N23           -2.6554    -2.0135    -3.5504 N.am    
  24 C24           -2.9668    -3.4262    -3.8097 C.3     
  25 C25           -4.4158    -3.5261    -4.3023 C.3     
  26 N26           -4.6137    -2.5477    -5.3809 N.am    
  27 C27           -4.3023    -1.1350    -5.1216 C.3     
  28 C28           -2.8586    -1.0342    -4.6273 C.3     
  29 C29           -5.0722    -2.9390    -6.5864 C.2     
  30 C30           -5.3757    -1.9321    -7.6234 C.ar    
  31 C31           -4.8144    -2.0462    -8.8994 C.ar    
  32 C32           -5.1044    -1.0992    -9.8644 C.ar    
  33 C33           -5.9462    -0.0431    -9.5691 C.ar    
  34 C34           -6.5044     0.0745    -8.3079 C.ar    
  35 C35           -6.2289    -0.8648    -7.3366 C.ar    
  36 O36           -5.2359    -4.1207    -6.8202 O.2     
  37 F37           -3.9913    -3.0779    -9.1880 F       
  38 F38           -0.6134     2.7556    -3.7142 F       
  39 H39           -4.7889     7.0042    -1.2571 H       
  40 H40           -6.8581     6.7031     0.0378 H       
  41 H41           -6.8997     5.1439     1.9418 H       
  42 H42           -5.6489     3.5085     3.3581 H       
  43 H43           -3.5743     2.3280     3.8535 H       
  44 H44           -1.5604     2.7030     2.4964 H       
  45 H45           -1.4050     4.4998    -2.0089 H       
  46 H46           -1.0927     0.2109    -3.9912 H       
  47 H47           -2.8104    -0.2763    -0.0881 H       
  48 H48           -2.4321     2.1069     0.3714 H       
  49 H49           -2.2932    -3.8151    -4.5733 H       
  50 H50           -2.8525    -4.0007    -2.8905 H       
  51 H51           -4.6051    -4.5308    -4.6805 H       
  52 H52           -5.0975    -3.3075    -3.4804 H       
  53 H53           -4.4166    -0.5605    -6.0408 H       
  54 H54           -4.9759    -0.7461    -4.3580 H       
  55 H55           -2.6728    -0.0294    -4.2478 H       
  56 H56           -2.1771    -1.2489    -5.4504 H       
  57 H57           -4.6721    -1.1845   -10.8504 H       
  58 H58           -6.1693     0.6941   -10.3262 H       
  59 H59           -7.1611     0.9025    -8.0850 H       
  60 H60           -6.6693    -0.7730    -6.3548 H       
@<TRIPOS>BOND
   1    1    2 ar
   2    1   10 ar
   3    2    3 ar
   4    2   39 1
   5    3    4 ar
   6    3   40 1
   7    4    5 ar
   8    4   41 1
   9    5    6 ar
  10    5   10 ar
  11    6    7 ar
  12    6   42 1
  13    7    8 ar
  14    7   43 1
  15    8    9 ar
  16    8   44 1
  17    9   10 ar
  18    9   11 1
  19   11   12 2
  20   11   13 2
  21   11   14 am
  22   14   15 1
  23   14   45 1
  24   15   16 ar
  25   15   20 ar
  26   16   17 ar
  27   16   38 1
  28   17   18 ar
  29   17   46 1
  30   18   19 ar
  31   18   21 1
  32   19   20 ar
  33   19   47 1
  34   20   48 1
  35   21   22 2
  36   21   23 am
  37   23   24 1
  38   23   28 1
  39   24   25 1
  40   24   49 1
  41   24   50 1
  42   25   26 1
  43   25   51 1
  44   25   52 1
  45   26   27 1
  46   26   29 am
  47   27   28 1
  48   27   53 1
  49   27   54 1
  50   28   55 1
  51   28   56 1
  52   29   30 1
  53   29   36 2
  54   30   31 ar
  55   30   35 ar
  56   31   32 ar
  57   31   37 1
  58   32   33 ar
  59   32   57 1
  60   33   34 ar
  61   33   58 1
  62   34   35 ar
  63   34   59 1
  64   35   60 1

#	End of record

