#	Name: ASD01884652
#	Creating user name:	WinNT
#	Creation time:	15. 06. 2019 19:48

#	Modifying user name:	WinNT
#	Modification time:	15. 06. 2019 19:48

#	Program:	/corina/corina34_cracker 3.40 0067  02.08.2006

@<TRIPOS>MOLECULE
ASD01884652
  53   56    0    0    0
SMALL
NO_CHARGES


@<TRIPOS>ATOM
   1 C1            -0.0168     1.3884     0.0097 C.2     
   2 C2             0.0021    -0.0041     0.0020 C.2     
   3 C3            -1.2095    -0.6965     0.0104 C.2     
   4 C4            -2.3831    -0.0157     0.0252 C.2     
   5 N5            -2.4093     1.3392     0.0327 N.am    
   6 C6            -1.2693     2.0558     0.0312 C.2     
   7 O7            -1.3129     3.2741     0.0383 O.2     
   8 C8            -3.6983     2.0352     0.0483 C.3     
   9 C9             1.2059     2.1337     0.0020 C.1     
  10 N10            2.1759     2.7249    -0.0041 N.1     
  11 C11            1.3105    -0.7515    -0.0155 C.3     
  12 N12            1.6890    -1.1056     1.3547 N.pl3   
  13 C13           -4.1338     2.2698     1.4962 C.3     
  14 C14           -5.4800     2.9967     1.5124 C.3     
  15 C15           -5.9155     3.2312     2.9603 C.3     
  16 C16            1.3419    -2.2628     2.0016 C.ar    
  17 C17            1.9103    -2.1942     3.2881 C.ar    
  18 C18            2.6161    -0.9189     3.3571 C.2     
  19 N19            2.4677    -0.3195     2.2104 N.2     
  20 C20            0.5976    -3.3836     1.6413 C.ar    
  21 C21            0.4263    -4.4021     2.5352 C.ar    
  22 C22            0.9864    -4.3363     3.8053 C.ar    
  23 C23            1.7204    -3.2507     4.1861 C.ar    
  24 C24           -0.3805    -5.6119     2.1395 C.3     
  25 C25            0.5289    -6.6414     1.5198 C.ar    
  26 C26            0.5600    -7.9234     2.0346 C.ar    
  27 C27            1.4003    -8.8633     1.4571 C.ar    
  28 C28            2.1810    -8.4763     0.3788 C.ar    
  29 C29            2.0964    -7.1757    -0.0815 C.ar    
  30 N30            1.2819    -6.3099     0.4890 N.ar    
  31 H31           -1.2130    -1.7765     0.0046 H       
  32 H32           -3.3137    -0.5638     0.0308 H       
  33 H33           -3.5999     2.9937    -0.4613 H       
  34 H34           -4.4456     1.4275    -0.4619 H       
  35 H35            1.2023    -1.6595    -0.6087 H       
  36 H36            2.0835    -0.1207    -0.4544 H       
  37 H37           -4.2323     1.3113     2.0058 H       
  38 H38           -3.3866     2.8775     2.0064 H       
  39 H39           -5.3816     3.9552     1.0028 H       
  40 H40           -6.2273     2.3889     1.0022 H       
  41 H41           -6.0140     2.2727     3.4699 H       
  42 H42           -5.1683     3.8390     3.4705 H       
  43 H43           -6.8746     3.7491     2.9718 H       
  44 H44            3.1671    -0.5416     4.2059 H       
  45 H45            0.1566    -3.4471     0.6575 H       
  46 H46            0.8391    -5.1519     4.4977 H       
  47 H47            2.1528    -3.2073     5.1748 H       
  48 H48           -0.8590    -6.0344     3.0230 H       
  49 H49           -1.1434    -5.3196     1.4179 H       
  50 H50           -0.0620    -8.1899     2.8763 H       
  51 H51            1.4458    -9.8726     1.8385 H       
  52 H52            2.8471    -9.1819    -0.0953 H       
  53 H53            2.7016    -6.8662    -0.9209 H       
@<TRIPOS>BOND
   1    1    2 2
   2    1    9 1
   3    1    6 1
   4    2    3 1
   5    2   11 1
   6    3    4 2
   7    3   31 1
   8    4    5 1
   9    4   32 1
  10    5    8 1
  11    5    6 am
  12    6    7 2
  13    8   13 1
  14    8   33 1
  15    8   34 1
  16    9   10 3
  17   11   12 1
  18   11   35 1
  19   11   36 1
  20   12   16 1
  21   12   19 1
  22   13   14 1
  23   13   37 1
  24   13   38 1
  25   14   15 1
  26   14   39 1
  27   14   40 1
  28   15   41 1
  29   15   42 1
  30   15   43 1
  31   16   17 ar
  32   16   20 ar
  33   17   18 1
  34   17   23 ar
  35   18   19 2
  36   18   44 1
  37   20   21 ar
  38   20   45 1
  39   21   22 ar
  40   21   24 1
  41   22   23 ar
  42   22   46 1
  43   23   47 1
  44   24   25 1
  45   24   48 1
  46   24   49 1
  47   25   26 ar
  48   25   30 ar
  49   26   27 ar
  50   26   50 1
  51   27   28 ar
  52   27   51 1
  53   28   29 ar
  54   28   52 1
  55   29   30 ar
  56   29   53 1

#	End of record

