#	Name: ASD04591121
#	Creating user name:	WinNT
#	Creation time:	15. 06. 2019 20:52

#	Modifying user name:	WinNT
#	Modification time:	15. 06. 2019 20:52

#	Program:	/corina/corina34_cracker 3.40 0067  02.08.2006

@<TRIPOS>MOLECULE
ASD04591121
  63   68    0    0    0
SMALL
NO_CHARGES


@<TRIPOS>ATOM
   1 N1            -0.0171     1.3232    -0.0119 N.ar    
   2 C2             0.0017    -0.0035    -0.0051 C.ar    
   3 N3             1.1298    -0.6949    -0.0118 N.ar    
   4 C4             2.3050    -0.0728    -0.0262 C.ar    
   5 C5             2.3189     1.3366    -0.0341 C.ar    
   6 C6             1.1072     2.0202    -0.0262 C.ar    
   7 N7             3.6031    -0.5195    -0.0358 N.pl3   
   8 C8             4.4823     0.5495    -0.0499 C.ar    
   9 C9             3.7312     1.7385    -0.0495 C.ar    
  10 C10            5.8680     0.6418    -0.0633 C.ar    
  11 N11            6.4613     1.8181    -0.0753 N.ar    
  12 C12            5.7850     2.9533    -0.0753 C.ar    
  13 C13            4.4064     2.9585    -0.0621 C.ar    
  14 N14           -1.2019    -0.6887     0.0098 N.pl3   
  15 C15           -2.4019     0.0120     0.1303 C.ar    
  16 C16            4.0018    -1.9292    -0.0312 C.3     
  17 N17           -2.3783     1.3196     0.3309 N.ar    
  18 C18           -3.4885     2.0229     0.4509 C.ar    
  19 C19           -4.7291     1.4087     0.3703 C.ar    
  20 C20           -4.7935     0.0321     0.1596 C.ar    
  21 C21           -3.6094    -0.6709     0.0326 C.ar    
  22 N22           -5.9023     2.1615     0.4995 N.3     
  23 C23           -5.5953     3.5824     0.7148 C.3     
  24 C24           -6.9000     4.3806     0.7711 C.3     
  25 N25           -7.7449     3.8574     1.8537 N.3     
  26 C26           -8.0519     2.4365     1.6384 C.3     
  27 C27           -6.7473     1.6383     1.5820 C.3     
  28 C28            3.4578    -2.6090     1.2269 C.3     
  29 C29            3.8742    -4.0812     1.2316 C.3     
  30 C30            3.3077    -4.7754    -0.0086 C.3     
  31 C31            3.8516    -4.0957    -1.2667 C.3     
  32 C32            3.4353    -2.6234    -1.2715 C.3     
  33 C33            3.7240    -6.2477    -0.0038 C.3     
  34 H34            1.0848     3.1000    -0.0323 H       
  35 H35            6.4645    -0.2585    -0.0635 H       
  36 H36            6.3203     3.8912    -0.0851 H       
  37 H37            3.8596     3.8899    -0.0625 H       
  38 H38           -1.2103    -1.6559    -0.0635 H       
  39 H39            5.0895    -1.9992    -0.0406 H       
  40 H40           -3.4301     3.0889     0.6140 H       
  41 H41           -5.7459    -0.4729     0.0926 H       
  42 H42           -3.6221    -1.7382    -0.1317 H       
  43 H43           -5.0564     3.6996     1.6549 H       
  44 H44           -4.9794     3.9498    -0.1061 H       
  45 H45           -6.6760     5.4305     0.9597 H       
  46 H46           -7.4258     4.2855    -0.1789 H       
  47 H47           -7.3106     4.0013     2.7530 H       
  48 H48           -8.6679     2.0691     2.4592 H       
  49 H49           -8.5909     2.3193     0.6982 H       
  50 H50           -6.9712     0.5883     1.3935 H       
  51 H51           -6.2214     1.7334     2.5321 H       
  52 H52            3.8614    -2.1144     2.1104 H       
  53 H53            2.3701    -2.5390     1.2363 H       
  54 H54            4.9619    -4.1513     1.2222 H       
  55 H55            3.4866    -4.5655     2.1279 H       
  56 H56            2.2200    -4.7054     0.0008 H       
  57 H57            4.9394    -4.1657    -1.2761 H       
  58 H58            3.4481    -4.5902    -2.1503 H       
  59 H59            2.3476    -2.5534    -1.2621 H       
  60 H60            3.8228    -2.1391    -2.1678 H       
  61 H61            3.3365    -6.7320     0.8925 H       
  62 H62            3.3205    -6.7422    -0.8874 H       
  63 H63            4.8117    -6.3177    -0.0132 H       
@<TRIPOS>BOND
   1    1    2 ar
   2    1    6 ar
   3    2    3 ar
   4    2   14 1
   5    3    4 ar
   6    4    5 ar
   7    4    7 1
   8    5    6 ar
   9    5    9 1
  10    6   34 1
  11    7    8 1
  12    7   16 1
  13    8    9 ar
  14    8   10 ar
  15    9   13 ar
  16   10   11 ar
  17   10   35 1
  18   11   12 ar
  19   12   13 ar
  20   12   36 1
  21   13   37 1
  22   14   15 1
  23   14   38 1
  24   15   17 ar
  25   15   21 ar
  26   16   28 1
  27   16   32 1
  28   16   39 1
  29   17   18 ar
  30   18   19 ar
  31   18   40 1
  32   19   20 ar
  33   19   22 1
  34   20   21 ar
  35   20   41 1
  36   21   42 1
  37   22   23 1
  38   22   27 1
  39   23   24 1
  40   23   43 1
  41   23   44 1
  42   24   25 1
  43   24   45 1
  44   24   46 1
  45   25   26 1
  46   25   47 1
  47   26   27 1
  48   26   48 1
  49   26   49 1
  50   27   50 1
  51   27   51 1
  52   28   29 1
  53   28   52 1
  54   28   53 1
  55   29   30 1
  56   29   54 1
  57   29   55 1
  58   30   31 1
  59   30   33 1
  60   30   56 1
  61   31   32 1
  62   31   57 1
  63   31   58 1
  64   32   59 1
  65   32   60 1
  66   33   61 1
  67   33   62 1
  68   33   63 1

#	End of record

