#	Name: ASD01880010
#	Creating user name:	WinNT
#	Creation time:	15. 06. 2019 19:39

#	Modifying user name:	WinNT
#	Modification time:	15. 06. 2019 19:39

#	Program:	/corina/corina34_cracker 3.40 0067  02.08.2006

@<TRIPOS>MOLECULE
ASD01880010
  62   64    0    0    0
SMALL
NO_CHARGES


@<TRIPOS>ATOM
   1 N1            -0.4684     0.4800     0.4749 N.pl3   
   2 N2            -0.5097     1.7626     0.3731 N.2     
   3 N3             0.6958     2.2164     0.3055 N.2     
   4 C4             1.5218     1.1624     0.3687 C.2     
   5 N5             0.7604     0.0915     0.4742 N.2     
   6 C6             3.0052     1.1949     0.3272 C.ar    
   7 C7             3.6738     2.4121     0.2124 C.ar    
   8 C8             5.0521     2.4393     0.1741 C.ar    
   9 C9             5.7734     1.2555     0.2494 C.ar    
  10 C10            5.1099     0.0414     0.3634 C.ar    
  11 C11            3.7319     0.0088     0.4088 C.ar    
  12 C12           12.4605     3.2498     2.8412 C.ar    
  13 C13           13.1800     2.0629     2.9514 C.ar    
  14 C14           14.5444     2.0783     2.9356 C.ar    
  15 C15           15.2312     3.2931     2.8074 C.ar    
  16 C16           14.5071     4.4940     2.6954 C.ar    
  17 C17           13.1237     4.4622     2.7136 C.ar    
  18 C18           12.3382     5.7427     2.5938 C.3     
  19 C19           12.0568     6.0322     1.1181 C.3     
  20 C20           11.2593     7.3323     0.9965 C.3     
  21 O21           15.1607     5.6756     2.5714 O.3     
  22 C22           16.6959     3.3124     2.7906 C.2     
  23 C23           17.4679     2.0238     2.9114 C.3     
  24 O24           17.2875     4.3659     2.6795 O.2     
  25 O25            7.1313     1.2852     0.2109 O.3     
  26 C26            7.7523     2.5722     0.2129 C.3     
  27 C27           10.4831     1.9335     2.8512 C.3     
  28 C28            9.1621     2.4572     0.7962 C.3     
  29 C29            9.0733     2.0484     2.2679 C.3     
  30 O30           11.1042     3.2205     2.8532 O.3     
  31 C31            7.8350     3.1007    -1.2205 C.3     
  32 C32           10.4004     1.4049     4.2846 C.3     
  33 H33           -1.2409    -0.1024     0.5453 H       
  34 H34            3.1131     3.3332     0.1530 H       
  35 H35            5.5708     3.3824     0.0850 H       
  36 H36            5.6735    -0.8781     0.4214 H       
  37 H37            3.2162    -0.9360     0.4976 H       
  38 H38           12.6550     1.1243     3.0504 H       
  39 H39           15.0955     1.1535     3.0223 H       
  40 H40           11.3949     5.6418     3.1306 H       
  41 H41           12.9138     6.5634     3.0218 H       
  42 H42           13.0001     6.1331     0.5813 H       
  43 H43           11.4812     5.2115     0.6901 H       
  44 H44           10.3160     7.2314     1.5332 H       
  45 H45           11.8349     8.1530     1.4244 H       
  46 H46           11.0588     7.5386    -0.0549 H       
  47 H47           15.3413     5.9310     1.6563 H       
  48 H48           17.6437     1.6111     1.9179 H       
  49 H49           18.4235     2.2171     3.3988 H       
  50 H50           16.8950     1.3112     3.5047 H       
  51 H51            7.1628     3.2592     0.8200 H       
  52 H52           11.0726     1.2465     2.2441 H       
  53 H53            9.7239     1.7044     0.2432 H       
  54 H54            9.6679     3.4194     0.7163 H       
  55 H55            8.5675     1.0862     2.3478 H       
  56 H56            8.5116     2.8012     2.8209 H       
  57 H57            6.8307     3.1826    -1.6361 H       
  58 H58            8.3088     4.0824    -1.2191 H       
  59 H59            8.4246     2.4137    -1.8277 H       
  60 H60            9.8109     2.0919     4.8917 H       
  61 H61            9.9267     0.4233     4.2831 H       
  62 H62           11.4048     1.3231     4.7002 H       
@<TRIPOS>BOND
   1    1    2 1
   2    1    5 1
   3    1   33 1
   4    2    3 2
   5    3    4 1
   6    4    5 2
   7    4    6 1
   8    6    7 ar
   9    6   11 ar
  10    7    8 ar
  11    7   34 1
  12    8    9 ar
  13    8   35 1
  14    9   10 ar
  15    9   25 1
  16   10   11 ar
  17   10   36 1
  18   11   37 1
  19   12   13 ar
  20   12   17 ar
  21   12   30 1
  22   13   14 ar
  23   13   38 1
  24   14   15 ar
  25   14   39 1
  26   15   16 ar
  27   15   22 1
  28   16   17 ar
  29   16   21 1
  30   17   18 1
  31   18   19 1
  32   18   40 1
  33   18   41 1
  34   19   20 1
  35   19   42 1
  36   19   43 1
  37   20   44 1
  38   20   45 1
  39   20   46 1
  40   21   47 1
  41   22   23 1
  42   22   24 2
  43   23   48 1
  44   23   49 1
  45   23   50 1
  46   25   26 1
  47   26   28 1
  48   26   31 1
  49   26   51 1
  50   27   30 1
  51   27   32 1
  52   27   29 1
  53   27   52 1
  54   28   29 1
  55   28   53 1
  56   28   54 1
  57   29   55 1
  58   29   56 1
  59   31   57 1
  60   31   58 1
  61   31   59 1
  62   32   60 1
  63   32   61 1
  64   32   62 1

#	End of record

