#	Name: ASD02039415
#	Creating user name:	WinNT
#	Creation time:	15. 06. 2019 20:18

#	Modifying user name:	WinNT
#	Modification time:	15. 06. 2019 20:18

#	Program:	/corina/corina34_cracker 3.40 0067  02.08.2006

@<TRIPOS>MOLECULE
ASD02039415
  52   55    0    0    0
SMALL
NO_CHARGES


@<TRIPOS>ATOM
   1 C1            -0.1167     0.6710    -0.9222 C.ar    
   2 C2             0.2087    -0.6484    -1.1796 C.ar    
   3 C3             0.9437     1.6258    -0.4375 C.3     
   4 N4             1.6851     2.1554    -1.5847 N.am    
   5 C5             1.1579     3.2996    -2.3325 C.3     
   6 C6             2.8521     1.5901    -1.9521 C.2     
   7 C7             3.3267     0.3722    -1.2726 C.2     
   8 C8             4.4197    -0.3687    -1.6157 C.2     
   9 N9             2.7596    -0.2140    -0.1873 N.2     
  10 C10            3.4532    -1.2682     0.1322 C.2     
  11 N11            4.4916    -1.3940    -0.7346 N.pl3   
  12 O12            3.5133     2.0855    -2.8447 O.2     
  13 C13           -0.7585    -1.5310    -1.6251 C.ar    
  14 C14           -2.3878     0.2354    -1.5670 C.ar    
  15 C15           -1.4091     1.1169    -1.1135 C.ar    
  16 C16           -3.7780     0.7091    -1.7749 C.ar    
  17 C17           -4.8280     0.2071    -0.9905 C.ar    
  18 C18           -4.0627     1.6629    -2.7468 C.ar    
  19 N19           -5.2975     2.0856    -2.9322 N.ar    
  20 C20           -6.3076     1.6302    -2.2152 C.ar    
  21 C21           -6.1120     0.6859    -1.2271 C.ar    
  22 C22            5.5067    -2.4502    -0.7192 C.3     
  23 C23           -2.0573    -1.0978    -1.8155 C.ar    
  24 C24            2.1574     4.4605    -2.4677 C.3     
  25 C25            1.6517     4.6241    -3.9107 C.3     
  26 C26            1.2598     3.1380    -3.8584 C.3     
  27 F27           -3.0019    -1.9601    -2.2507 F       
  28 O28           -4.5967    -0.7208    -0.0278 O.3     
  29 C29           -5.7262    -1.1741     0.7211 C.3     
  30 H30            1.2223    -0.9909    -1.0324 H       
  31 H31            0.4733     2.4478     0.1020 H       
  32 H32            1.6295     1.1002     0.2270 H       
  33 H33            0.1710     3.6107    -1.9900 H       
  34 H34            5.0975    -0.1746    -2.4338 H       
  35 H35            3.2394    -1.9337     0.9555 H       
  36 H36           -0.4986    -2.5601    -1.8248 H       
  37 H37           -1.6592     2.1494    -0.9193 H       
  38 H38           -3.2641     2.0612    -3.3551 H       
  39 H39           -7.3030     2.0055    -2.4016 H       
  40 H40           -6.9468     0.3207    -0.6473 H       
  41 H41            5.1717    -3.2851    -1.3346 H       
  42 H42            6.4437    -2.0594    -1.1160 H       
  43 H43            5.6600    -2.7919     0.3044 H       
  44 H44            1.9281     5.3110    -1.8256 H       
  45 H45            3.1999     4.1489    -2.4030 H       
  46 H46            0.7994     5.2975    -4.0011 H       
  47 H47            2.4426     4.8420    -4.6284 H       
  48 H48            2.0569     2.4648    -4.1739 H       
  49 H49            0.3059     2.9208    -4.3391 H       
  50 H50           -5.4029    -1.9119     1.4555 H       
  51 H51           -6.1855    -0.3287     1.2334 H       
  52 H52           -6.4517    -1.6275     0.0457 H       
@<TRIPOS>BOND
   1    1    2 ar
   2    1    3 1
   3    1   15 ar
   4    2   13 ar
   5    2   30 1
   6    3    4 1
   7    3   31 1
   8    3   32 1
   9    4    5 1
  10    4    6 am
  11    5   24 1
  12    5   26 1
  13    5   33 1
  14    6    7 1
  15    6   12 2
  16    7    8 2
  17    7    9 1
  18    8   11 1
  19    8   34 1
  20    9   10 2
  21   10   11 1
  22   10   35 1
  23   11   22 1
  24   13   23 ar
  25   13   36 1
  26   14   15 ar
  27   14   16 1
  28   14   23 ar
  29   15   37 1
  30   16   17 ar
  31   16   18 ar
  32   17   28 1
  33   17   21 ar
  34   18   19 ar
  35   18   38 1
  36   19   20 ar
  37   20   21 ar
  38   20   39 1
  39   21   40 1
  40   22   41 1
  41   22   42 1
  42   22   43 1
  43   23   27 1
  44   24   25 1
  45   24   44 1
  46   24   45 1
  47   25   26 1
  48   25   46 1
  49   25   47 1
  50   26   48 1
  51   26   49 1
  52   28   29 1
  53   29   50 1
  54   29   51 1
  55   29   52 1

#	End of record

