#	Name: ASD01910205
#	Creating user name:	WinNT
#	Creation time:	15. 06. 2019 19:55

#	Modifying user name:	WinNT
#	Modification time:	15. 06. 2019 19:55

#	Program:	/corina/corina34_cracker 3.40 0067  02.08.2006

@<TRIPOS>MOLECULE
ASD01910205
  47   51    0    0    0
SMALL
NO_CHARGES


@<TRIPOS>ATOM
   1 C1            -0.0167     1.3776     0.0096 C.ar    
   2 C2             0.0021    -0.0041     0.0020 C.ar    
   3 C3             1.2067    -0.6907    -0.0127 C.ar    
   4 C4             2.3990     0.0145    -0.0203 C.ar    
   5 C5             2.3799     1.4245    -0.0130 C.ar    
   6 C6             1.1688     2.0968     0.0022 C.ar    
   7 C7             3.8259    -0.3703    -0.0360 C.2     
   8 N8             4.5719     0.7492    -0.0376 N.am    
   9 C9             3.7959     1.8480    -0.0245 C.2     
  10 O10            4.1925     2.9959    -0.0232 O.2     
  11 O11            4.2535    -1.5070    -0.0459 O.2     
  12 C12            5.9735     0.7682    -0.0506 C.ar    
  13 C13            6.6842    -0.4253    -0.0630 C.ar    
  14 C14            8.0667    -0.4120    -0.0763 C.ar    
  15 C15            8.7497     0.7868    -0.0774 C.ar    
  16 C16            8.0445     1.9917    -0.0650 C.ar    
  17 C17            6.6500     1.9779    -0.0569 C.ar    
  18 C18            8.7736     3.2780    -0.0660 C.2     
  19 N19           10.1213     3.2887    -0.0790 N.am    
  20 C20           10.8437     4.5632    -0.0800 C.3     
  21 O21            8.1576     4.3258    -0.0552 O.2     
  22 C22           12.2700     4.3801     0.5231 C.3     
  23 C23           13.0618     3.9019    -0.7449 C.3     
  24 C24           12.6427     5.1023    -1.6651 C.3     
  25 C25           11.0906     5.0415    -1.5291 C.3     
  26 C26           13.0657     6.3099    -0.7739 C.3     
  27 C27           12.8188     5.8316     0.6752 C.3     
  28 H28           -0.9613     1.9010     0.0169 H       
  29 H29           -0.9280    -0.5530     0.0079 H       
  30 H30            1.2153    -1.7706    -0.0179 H       
  31 H31            1.1481     3.1766     0.0074 H       
  32 H32            6.1550    -1.3667    -0.0619 H       
  33 H33            8.6138    -1.3432    -0.0856 H       
  34 H34            9.8296     0.7931    -0.0875 H       
  35 H35            6.0990     2.9068    -0.0476 H       
  36 H36           10.6129     2.4525    -0.0876 H       
  37 H37           10.2878     5.3147     0.4806 H       
  38 H38           12.3368     3.7396     1.4025 H       
  39 H39           14.1374     3.8771    -0.5698 H       
  40 H40           12.6918     2.9487    -1.1226 H       
  41 H41           13.0328     5.0882    -2.6828 H       
  42 H42           10.6745     4.3284    -2.2407 H       
  43 H43           10.6567     6.0296    -1.6822 H       
  44 H44           14.1203     6.5414    -0.9232 H       
  45 H45           12.4493     7.1809    -0.9967 H       
  46 H46           12.0811     6.4674     1.1647 H       
  47 H47           13.7520     5.8279     1.2383 H       
@<TRIPOS>BOND
   1    1    2 ar
   2    1    6 ar
   3    1   28 1
   4    2    3 ar
   5    2   29 1
   6    3    4 ar
   7    3   30 1
   8    4    5 ar
   9    4    7 1
  10    5    6 ar
  11    5    9 1
  12    6   31 1
  13    7    8 am
  14    7   11 2
  15    8    9 am
  16    8   12 1
  17    9   10 2
  18   12   13 ar
  19   12   17 ar
  20   13   14 ar
  21   13   32 1
  22   14   15 ar
  23   14   33 1
  24   15   16 ar
  25   15   34 1
  26   16   17 ar
  27   16   18 1
  28   17   35 1
  29   18   19 am
  30   18   21 2
  31   19   20 1
  32   19   36 1
  33   20   22 1
  34   20   25 1
  35   20   37 1
  36   22   23 1
  37   22   27 1
  38   22   38 1
  39   23   24 1
  40   23   39 1
  41   23   40 1
  42   24   25 1
  43   24   26 1
  44   24   41 1
  45   25   42 1
  46   25   43 1
  47   26   27 1
  48   26   44 1
  49   26   45 1
  50   27   46 1
  51   27   47 1

#	End of record

