#	Name: ASD03621004
#	Creating user name:	WinNT
#	Creation time:	15. 06. 2019 20:43

#	Modifying user name:	WinNT
#	Modification time:	15. 06. 2019 20:43

#	Program:	/corina/corina34_cracker 3.40 0067  02.08.2006

@<TRIPOS>MOLECULE
ASD03621004
  88   91    0    0    0
SMALL
NO_CHARGES


@<TRIPOS>ATOM
   1 C1             1.1407     0.3045     3.9134 C.ar    
   2 C2             1.1748    -1.0486     3.6326 C.ar    
   3 C3             2.3066    -1.6097     3.0712 C.ar    
   4 C4             3.4041    -0.8176     2.7903 C.ar    
   5 C5             3.3696     0.5357     3.0702 C.ar    
   6 C6             2.2384     1.0965     3.6329 C.ar    
   7 C7             4.6383    -1.4294     2.1792 C.3     
   8 C8             4.5331    -1.3783     0.6767 C.2     
   9 N9             5.5288    -1.8721    -0.0857 N.am    
  10 O10            3.5525    -0.8929     0.1537 O.2     
  11 C11            5.4265    -1.8224    -1.5463 C.3     
  12 C12            4.6824    -3.0348    -2.0668 C.2     
  13 N13            5.3404    -3.5682    -3.0988 N.am    
  14 C14            6.5302    -2.7612    -3.4526 C.3     
  15 C15            6.8297    -1.9299    -2.1912 C.3     
  16 O16            3.6409    -3.4590    -1.6125 O.2     
  17 C17            5.5144    -6.0019    -3.0124 C.2     
  18 N18            5.3448    -7.2519    -3.4868 N.am    
  19 O19            6.0431    -5.8289    -1.9346 O.2     
  20 C20            5.7990    -8.4017    -2.7008 C.3     
  21 C21            5.0005    -9.6204    -3.0858 C.2     
  22 N22            5.2459   -10.8033    -2.4882 N.am    
  23 O23            4.1370    -9.5367    -3.9333 O.2     
  24 C24            7.2822    -8.6552    -2.9781 C.3     
  25 C25            8.1056    -7.4688    -2.4728 C.3     
  26 C26            4.3983   -11.9617    -2.7811 C.3     
  27 C27            5.2766   -13.1978    -2.9849 C.3     
  28 C28            3.4421   -12.2028    -1.6114 C.3     
  29 C29            2.4952   -11.0369    -1.4881 C.ar    
  30 C30            1.2935   -11.0473    -2.1713 C.ar    
  31 C31            0.4249    -9.9779    -2.0583 C.ar    
  32 C32            0.7578    -8.8982    -1.2618 C.ar    
  33 C33            1.9591    -8.8882    -0.5779 C.ar    
  34 C34            2.8258    -9.9596    -0.6875 C.ar    
  35 C35            9.5887    -7.7223    -2.7502 C.3     
  36 N36           10.3771    -6.5863    -2.2664 N.am    
  37 C37           11.7178    -6.5888    -2.4045 C.2     
  38 N38           12.4431    -5.5437    -1.9594 N.am    
  39 O39           12.2729    -7.5340    -2.9307 O.2     
  40 H40            6.3365    -2.1212    -4.3134 H       
  41 C41            5.0472    -4.8191    -3.8210 C.3     
  42 C42            5.8120    -4.7570    -5.1475 C.3     
  43 C43            7.3121    -4.6295    -4.9234 C.3     
  44 C44            7.6605    -3.7583    -3.7207 C.3     
  45 C45            6.1212   -13.0159    -4.2197 C.2     
  46 O46            6.0558   -11.9873    -4.8502 O.2     
  47 O47            6.9462   -13.9965    -4.6190 O.3     
  48 H48            0.2548     0.7437     4.3478 H       
  49 H49            0.3174    -1.6674     3.8521 H       
  50 H50            2.3335    -2.6669     2.8525 H       
  51 H51            4.2274     1.1544     2.8513 H       
  52 H52            2.2116     2.1537     3.8519 H       
  53 H53            5.5178    -0.8717     2.5010 H       
  54 H54            4.7276    -2.4666     2.5021 H       
  55 H55            6.3131    -2.2604     0.3327 H       
  56 H56            4.9291    -0.9053    -1.8617 H       
  57 H57            7.2145    -0.9449    -2.4552 H       
  58 H58            7.5225    -2.4546    -1.5334 H       
  59 H59            4.9220    -7.3903    -4.3488 H       
  60 H60            5.6579    -8.1951    -1.6399 H       
  61 H61            5.9838   -10.8876    -1.8642 H       
  62 H62            7.5982    -9.5624    -2.4631 H       
  63 H63            7.4361    -8.7739    -4.0506 H       
  64 H64            7.7895    -6.5616    -2.9878 H       
  65 H65            7.9516    -7.3501    -1.4003 H       
  66 H66            3.8232   -11.7713    -3.6873 H       
  67 H67            5.9241   -13.3304    -2.1181 H       
  68 H68            4.6440   -14.0774    -3.1038 H       
  69 H69            2.8734   -13.1155    -1.7891 H       
  70 H70            4.0144   -12.3050    -0.6894 H       
  71 H71            1.0333   -11.8908    -2.7936 H       
  72 H72           -0.5136    -9.9857    -2.5926 H       
  73 H73            0.0796    -8.0624    -1.1741 H       
  74 H74            2.2194    -8.0446     0.0441 H       
  75 H75            3.7643    -9.9518    -0.1532 H       
  76 H76            9.9047    -8.6295    -2.2352 H       
  77 H77            9.7427    -7.8410    -3.8227 H       
  78 H78            9.9342    -5.8322    -1.8466 H       
  79 H79           12.0002    -4.7897    -1.5397 H       
  80 H80           13.4080    -5.5456    -2.0589 H       
  81 H81            3.9768    -4.8968    -4.0117 H       
  82 H82            5.6130    -5.6656    -5.7159 H       
  83 H83            5.4632    -3.8973    -5.7195 H       
  84 H84            7.7301    -5.6243    -4.7694 H       
  85 H85            7.7647    -4.1950    -5.8147 H       
  86 H86            8.5828    -3.2138    -3.9233 H       
  87 H87            7.8006    -4.3908    -2.8441 H       
  88 H88            7.4679   -13.8337    -5.4168 H       
@<TRIPOS>BOND
   1    1    2 ar
   2    1    6 ar
   3    1   48 1
   4    2    3 ar
   5    2   49 1
   6    3    4 ar
   7    3   50 1
   8    4    5 ar
   9    4    7 1
  10    5    6 ar
  11    5   51 1
  12    6   52 1
  13    7    8 1
  14    7   53 1
  15    7   54 1
  16    8    9 am
  17    8   10 2
  18    9   11 1
  19    9   55 1
  20   11   12 1
  21   11   15 1
  22   11   56 1
  23   12   13 am
  24   12   16 2
  25   13   14 1
  26   13   41 1
  27   14   15 1
  28   14   40 1
  29   14   44 1
  30   15   57 1
  31   15   58 1
  32   17   18 am
  33   17   19 2
  34   17   41 1
  35   18   20 1
  36   18   59 1
  37   20   21 1
  38   20   24 1
  39   20   60 1
  40   21   22 am
  41   21   23 2
  42   22   26 1
  43   22   61 1
  44   24   25 1
  45   24   62 1
  46   24   63 1
  47   25   35 1
  48   25   64 1
  49   25   65 1
  50   26   27 1
  51   26   28 1
  52   26   66 1
  53   27   45 1
  54   27   67 1
  55   27   68 1
  56   28   29 1
  57   28   69 1
  58   28   70 1
  59   29   30 ar
  60   29   34 ar
  61   30   31 ar
  62   30   71 1
  63   31   32 ar
  64   31   72 1
  65   32   33 ar
  66   32   73 1
  67   33   34 ar
  68   33   74 1
  69   34   75 1
  70   35   36 1
  71   35   76 1
  72   35   77 1
  73   36   37 am
  74   36   78 1
  75   37   38 am
  76   37   39 2
  77   38   79 1
  78   38   80 1
  79   41   42 1
  80   41   81 1
  81   42   43 1
  82   42   82 1
  83   42   83 1
  84   43   44 1
  85   43   84 1
  86   43   85 1
  87   44   86 1
  88   44   87 1
  89   45   46 2
  90   45   47 1
  91   47   88 1

#	End of record

