#	Name: ASD01820088
#	Creating user name:	WinNT
#	Creation time:	15. 06. 2019 19:36

#	Modifying user name:	WinNT
#	Modification time:	15. 06. 2019 19:36

#	Program:	/corina/corina34_cracker 3.40 0067  02.08.2006

@<TRIPOS>MOLECULE
ASD01820088
  43   45    0    0    0
SMALL
NO_CHARGES


@<TRIPOS>ATOM
   1 C1             1.8238     1.4025    -0.9048 C.ar    
   2 C2             1.8085     0.0214    -0.8985 C.ar    
   3 C3             1.0658    -0.6590     0.0487 C.ar    
   4 C4             0.3360     0.0403     0.9928 C.ar    
   5 C5             0.3472     1.4210     0.9925 C.ar    
   6 C6             1.0924     2.1079     0.0421 C.ar    
   7 N7             1.1059     3.5045     0.0389 N.3     
   8 C8             0.4922     4.0344    -1.1868 C.3     
   9 C9             0.4547     5.5628    -1.1158 C.3     
  10 N10            1.8215     6.0765    -0.9501 N.3     
  11 C11            2.4353     5.5467     0.2756 C.3     
  12 C12            2.4727     4.0183     0.2046 C.3     
  13 C13            1.8351     7.4714    -0.9533 C.ar    
  14 C14            2.1752     8.1854     0.1925 C.ar    
  15 C15            2.1769     9.5653     0.1492 C.ar    
  16 N16            1.8621    10.2102    -0.9579 N.ar    
  17 C17            1.5333     9.5746    -2.0672 C.ar    
  18 C18            1.5126     8.1905    -2.1104 C.ar    
  19 C19            2.6018    -0.7448    -1.9255 C.3     
  20 C20           -0.4488     2.1821     2.0212 C.3     
  21 N21            1.1689     7.5207    -3.2915 N.pl3   
  22 H22            2.4074     1.9334    -1.6424 H       
  23 H23            1.0554    -1.7390     0.0512 H       
  24 H24           -0.2436    -0.4943     1.7308 H       
  25 H25            1.0799     3.7248    -2.0509 H       
  26 H26           -0.5234     3.6496    -1.2806 H       
  27 H27            0.0263     5.9592    -2.0363 H       
  28 H28           -0.1556     5.8725    -0.2674 H       
  29 H29            3.4508     5.9314     0.3693 H       
  30 H30            1.8475     5.8563     1.1397 H       
  31 H31            2.9012     3.6219     1.1251 H       
  32 H32            3.0830     3.7085    -0.6438 H       
  33 H33            2.4341     7.6665     1.1036 H       
  34 H34            2.4395    10.1251     1.0347 H       
  35 H35            1.2818    10.1402    -2.9522 H       
  36 H36            3.6041    -0.9356    -1.5420 H       
  37 H37            2.1061    -1.6928    -2.1343 H       
  38 H38            2.6690    -0.1601    -2.8429 H       
  39 H39            0.1392     2.2835     2.9334 H       
  40 H40           -0.6916     3.1715     1.6336 H       
  41 H41           -1.3696     1.6418     2.2407 H       
  42 H42            1.0982     6.5533    -3.2975 H       
  43 H43            1.0016     8.0243    -4.1035 H       
@<TRIPOS>BOND
   1    1    2 ar
   2    1    6 ar
   3    1   22 1
   4    2    3 ar
   5    2   19 1
   6    3    4 ar
   7    3   23 1
   8    4    5 ar
   9    4   24 1
  10    5    6 ar
  11    5   20 1
  12    6    7 1
  13    7    8 1
  14    7   12 1
  15    8    9 1
  16    8   25 1
  17    8   26 1
  18    9   10 1
  19    9   27 1
  20    9   28 1
  21   10   11 1
  22   10   13 1
  23   11   12 1
  24   11   29 1
  25   11   30 1
  26   12   31 1
  27   12   32 1
  28   13   14 ar
  29   13   18 ar
  30   14   15 ar
  31   14   33 1
  32   15   16 ar
  33   15   34 1
  34   16   17 ar
  35   17   18 ar
  36   17   35 1
  37   18   21 1
  38   19   36 1
  39   19   37 1
  40   19   38 1
  41   20   39 1
  42   20   40 1
  43   20   41 1
  44   21   42 1
  45   21   43 1

#	End of record

