#	Name: ASD01948069
#	Creating user name:	WinNT
#	Creation time:	15. 06. 2019 20:13

#	Modifying user name:	WinNT
#	Modification time:	15. 06. 2019 20:13

#	Program:	/corina/corina34_cracker 3.40 0067  02.08.2006

@<TRIPOS>MOLECULE
ASD01948069
  53   54    0    0    0
SMALL
NO_CHARGES


@<TRIPOS>ATOM
   1 K1             0.0000     0.0000     0.0000 Du      
   2 C2            11.9140     9.7184     7.6778 C.3     
   3 C3            11.6784     8.1991     7.7107 C.3     
   4 C4            13.0136     8.0876     8.4653 C.3     
   5 C5            13.4162     9.4085     7.7887 C.3     
   6 S6            11.4459    10.4925     6.1055 S.o2    
   7 O7            11.7196    11.9170     6.2141 O.co2   
   8 O8            12.1995     9.9214     5.0000 O.co2   
   9 O9            10.0221    10.2692     5.9082 O.co2   
  10 C10           12.0947     6.9868    10.5114 C.3     
  11 C11           12.8698     8.1962     9.9847 C.3     
  12 C12           14.2580     8.2314    10.6271 C.3     
  13 O13           14.9385     9.4221    10.2257 O.3     
  14 C14           16.2518     9.5537    10.7735 C.3     
  15 C15           16.8728    10.8376    10.2867 C.ar    
  16 C16           16.7052    12.0040    11.0094 C.ar    
  17 C17           17.2748    13.1817    10.5628 C.ar    
  18 C18           18.0124    13.1930     9.3938 C.ar    
  19 C19           18.1808    12.0264     8.6715 C.ar    
  20 C20           17.6148    10.8478     9.1204 C.ar    
  21 O21           10.7495     7.0375    10.0317 O.3     
  22 C22            9.9353     5.9472    10.4682 C.3     
  23 C23            8.5456     6.1018     9.9064 C.ar    
  24 C24            8.2295     5.5453     8.6811 C.ar    
  25 C25            6.9547     5.6871     8.1657 C.ar    
  26 C26            5.9958     6.3850     8.8758 C.ar    
  27 C27            6.3116     6.9407    10.1015 C.ar    
  28 C28            7.5852     6.7952    10.6189 C.ar    
  29 H29           11.5110    10.2416     8.5449 H       
  30 H30           10.8144     7.9040     8.3061 H       
  31 H31           11.6936     7.7334     6.7252 H       
  32 H32           13.6200     7.2361     8.1564 H       
  33 H33           13.9065     9.2735     6.8246 H       
  34 H34           13.9552    10.0898     8.4470 H       
  35 H35           12.5705     6.0703    10.1626 H       
  36 H36           12.0926     7.0031    11.6012 H       
  37 H37           12.3307     9.1101    10.2342 H       
  38 H38           14.1565     8.2192    11.7123 H       
  39 H39           14.8293     7.3605    10.3058 H       
  40 H40           16.1917     9.5689    11.8617 H       
  41 H41           16.8645     8.7102    10.4552 H       
  42 H42           16.1289    11.9952    11.9227 H       
  43 H43           17.1432    14.0931    11.1271 H       
  44 H44           18.4568    14.1132     9.0445 H       
  45 H45           18.7568    12.0352     7.7580 H       
  46 H46           17.7495     9.9356     8.5581 H       
  47 H47           10.3664     5.0091    10.1185 H       
  48 H48            9.8885     5.9420    11.5572 H       
  49 H49            8.9787     5.0000     8.1263 H       
  50 H50            6.7080     5.2529     7.2081 H       
  51 H51            5.0000     6.4964     8.4728 H       
  52 H52            5.5625     7.4863    10.6561 H       
  53 H53            7.8308     7.2263    11.5782 H       
@<TRIPOS>BOND
   1    2    3 1
   2    2    5 1
   3    2    6 1
   4    2   29 1
   5    3    4 1
   6    3   30 1
   7    3   31 1
   8    4    5 1
   9    4   11 1
  10    4   32 1
  11    5   33 1
  12    5   34 1
  13    6    7 ar
  14    6    8 ar
  15    6    9 ar
  16   10   11 1
  17   10   21 1
  18   10   35 1
  19   10   36 1
  20   11   12 1
  21   11   37 1
  22   12   13 1
  23   12   38 1
  24   12   39 1
  25   13   14 1
  26   14   15 1
  27   14   40 1
  28   14   41 1
  29   15   16 ar
  30   15   20 ar
  31   16   17 ar
  32   16   42 1
  33   17   18 ar
  34   17   43 1
  35   18   19 ar
  36   18   44 1
  37   19   20 ar
  38   19   45 1
  39   20   46 1
  40   21   22 1
  41   22   23 1
  42   22   47 1
  43   22   48 1
  44   23   24 ar
  45   23   28 ar
  46   24   25 ar
  47   24   49 1
  48   25   26 ar
  49   25   50 1
  50   26   27 ar
  51   26   51 1
  52   27   28 ar
  53   27   52 1
  54   28   53 1

#	End of record

