#	Name: ASD01200229
#	Creating user name:	WinNT
#	Creation time:	15. 06. 2019 19:08

#	Modifying user name:	WinNT
#	Modification time:	15. 06. 2019 19:08

#	Program:	/corina/corina34_cracker 3.40 0067  02.08.2006

@<TRIPOS>MOLECULE
ASD01200229
  44   46    0    0    0
SMALL
NO_CHARGES


@<TRIPOS>ATOM
   1 C1             0.4456     1.0963     0.0029 C.ar    
   2 C2             0.2895    -0.2779     0.0006 C.ar    
   3 C3            -0.9781    -0.8296     0.0055 C.ar    
   4 C4            -2.0901    -0.0086     0.0128 C.ar    
   5 C5            -1.9359     1.3652     0.0151 C.ar    
   6 C6            -0.6685     1.9189     0.0159 C.ar    
   7 C7            -1.1477    -2.3271     0.0025 C.3     
   8 C8            -1.9154    -2.7559     1.2545 C.3     
   9 C9            -1.9163    -2.7431    -1.2252 C.2     
  10 N10           -2.0913    -4.0510    -1.4996 N.am    
  11 O11           -2.3773    -1.9010    -1.9663 O.2     
  12 C12           -1.0720    -2.4600     2.4963 C.3     
  13 C13           -2.7107    -4.4360    -2.6829 C.2     
  14 C14           -1.8845    -2.7581     3.7686 C.3     
  15 C15           -1.1185    -3.8573     4.5333 C.3     
  16 C16            0.3414    -3.7202     4.0342 C.3     
  17 C17            0.1594    -3.3886     2.5322 C.3     
  18 Cl18           2.0371     1.7896    -0.0033 Cl      
  19 Cl19          -0.4743     3.6440     0.0188 Cl      
  20 S20           -3.2969    -3.3611    -3.8761 S.3     
  21 C21           -3.8351    -4.7239    -4.8544 C.2     
  22 C22           -3.5288    -5.8474    -4.2028 C.2     
  23 N23           -2.9230    -5.6625    -3.0448 N.2     
  24 C24           -3.8442    -7.2167    -4.7475 C.3     
  25 H25            1.1579    -0.9200    -0.0055 H       
  26 H26           -3.0799    -0.4406     0.0163 H       
  27 H27           -2.8051     2.0062     0.0204 H       
  28 H28           -0.1674    -2.8037    -0.0036 H       
  29 H29           -2.8535    -2.2038     1.3124 H       
  30 H30           -2.1252    -3.8243     1.2039 H       
  31 H31           -1.7851    -4.7236    -0.8713 H       
  32 H32           -0.7544    -1.4174     2.4918 H       
  33 H33           -1.9604    -1.8602     4.3820 H       
  34 H34           -2.8797    -3.1135     3.5014 H       
  35 H35           -1.1723    -3.6826     5.6079 H       
  36 H36           -1.5155    -4.8417     4.2855 H       
  37 H37            0.8513    -2.9068     4.5504 H       
  38 H38            0.8823    -4.6581     4.1600 H       
  39 H39           -0.0312    -4.2973     1.9613 H       
  40 H40            1.0382    -2.8718     2.1465 H       
  41 H41           -4.3270    -4.6610    -5.8138 H       
  42 H42           -3.0066    -7.5703    -5.3488 H       
  43 H43           -4.0146    -7.9062    -3.9207 H       
  44 H44           -4.7395    -7.1639    -5.3670 H       
@<TRIPOS>BOND
   1    1    2 ar
   2    1   18 1
   3    1    6 ar
   4    2    3 ar
   5    2   25 1
   6    3    4 ar
   7    3    7 1
   8    4    5 ar
   9    4   26 1
  10    5    6 ar
  11    5   27 1
  12    6   19 1
  13    7    8 1
  14    7    9 1
  15    7   28 1
  16    8   12 1
  17    8   29 1
  18    8   30 1
  19    9   10 am
  20    9   11 2
  21   10   13 1
  22   10   31 1
  23   12   14 1
  24   12   17 1
  25   12   32 1
  26   13   20 1
  27   13   23 2
  28   14   15 1
  29   14   33 1
  30   14   34 1
  31   15   16 1
  32   15   35 1
  33   15   36 1
  34   16   17 1
  35   16   37 1
  36   16   38 1
  37   17   39 1
  38   17   40 1
  39   20   21 1
  40   21   22 2
  41   21   41 1
  42   22   23 1
  43   22   24 1
  44   24   42 1
  45   24   43 1
  46   24   44 1

#	End of record

