#	Name: ASD01911471
#	Creating user name:	WinNT
#	Creation time:	15. 06. 2019 19:57

#	Modifying user name:	WinNT
#	Modification time:	15. 06. 2019 19:57

#	Program:	/corina/corina34_cracker 3.40 0067  02.08.2006

@<TRIPOS>MOLECULE
ASD01911471
  37   39    0    0    0
SMALL
NO_CHARGES


@<TRIPOS>ATOM
   1 N1            -0.0070     1.4095    -0.0032 N.2     
   2 N2            -0.0070     0.0096    -0.0452 N.pl3   
   3 C3             1.2423     1.8244     0.0383 C.2     
   4 C4             2.0821     0.6977     0.0240 C.2     
   5 C5             1.2900    -0.4115    -0.0276 C.2     
   6 C6             1.7538    -1.8165    -0.0594 C.ar    
   7 C7             1.6868     3.2389     0.0903 C.ar    
   8 C8            -1.1916    -0.8508    -0.0980 C.3     
   9 C9            -1.6292    -1.0156    -1.5307 C.2     
  10 O10           -2.7017    -1.7681    -1.8225 O.3     
  11 O11           -1.0147    -0.4703    -2.4166 O.2     
  12 C12            0.7396     4.2602     0.0986 C.ar    
  13 N13            2.9827     3.5194     0.1339 N.ar    
  14 C14            3.4198     4.7613     0.1808 C.ar    
  15 C15            2.5342     5.8262     0.1863 C.ar    
  16 C16            1.1680     5.5752     0.1473 C.ar    
  17 C17            0.9283    -2.8150    -0.5765 C.ar    
  18 C18            1.3666    -4.1231    -0.6038 C.ar    
  19 C19            2.6218    -4.4453    -0.1193 C.ar    
  20 C20            3.4452    -3.4595     0.3947 C.ar    
  21 C21            3.0206    -2.1470     0.4222 C.ar    
  22 F22            2.9937     7.0958     0.2352 F       
  23 C23            0.1757     6.7093     0.1520 C.3     
  24 H24            3.1617     0.7082     0.0489 H       
  25 H25           -0.9507    -1.8270     0.3229 H       
  26 H26           -1.9973    -0.3955     0.4779 H       
  27 H27           -2.9439    -1.8441    -2.7556 H       
  28 H28           -0.3149     4.0289     0.0672 H       
  29 H29            4.4823     4.9515     0.2158 H       
  30 H30           -0.0521    -2.5648    -0.9543 H       
  31 H31            0.7284    -4.8970    -1.0038 H       
  32 H32            2.9601    -5.4706    -0.1422 H       
  33 H33            4.4238    -3.7174     0.7717 H       
  34 H34            3.6644    -1.3783     0.8234 H       
  35 H35           -0.0390     7.0085    -0.8739 H       
  36 H36           -0.7453     6.3842     0.6359 H       
  37 H37            0.5936     7.5555     0.6974 H       
@<TRIPOS>BOND
   1    1    2 1
   2    1    3 2
   3    2    8 1
   4    2    5 1
   5    3    4 1
   6    3    7 1
   7    4    5 2
   8    4   24 1
   9    5    6 1
  10    6   17 ar
  11    6   21 ar
  12    7   12 ar
  13    7   13 ar
  14    8    9 1
  15    8   25 1
  16    8   26 1
  17    9   10 1
  18    9   11 2
  19   10   27 1
  20   12   16 ar
  21   12   28 1
  22   13   14 ar
  23   14   15 ar
  24   14   29 1
  25   15   16 ar
  26   15   22 1
  27   16   23 1
  28   17   18 ar
  29   17   30 1
  30   18   19 ar
  31   18   31 1
  32   19   20 ar
  33   19   32 1
  34   20   21 ar
  35   20   33 1
  36   21   34 1
  37   23   35 1
  38   23   36 1
  39   23   37 1

#	End of record

