#	Name: ASD03331009
#	Creating user name:	WinNT
#	Creation time:	15. 06. 2019 20:38

#	Modifying user name:	WinNT
#	Modification time:	15. 06. 2019 20:38

#	Program:	/corina/corina34_cracker 3.40 0067  02.08.2006

@<TRIPOS>MOLECULE
ASD03331009
  68   71    0    0    0
SMALL
NO_CHARGES


@<TRIPOS>ATOM
   1 N1            -0.8202     1.7205    -0.3873 N.pl3   
   2 C2            -0.6632     0.4005    -0.1012 C.2     
   3 C3             0.6356    -0.2701     0.2628 C.3     
   4 N4             1.3232     0.5336     1.2855 N.3     
   5 C5             2.1869     1.5448     0.6730 C.3     
   6 C6             1.5854     2.0584    -0.6320 C.3     
   7 C7             0.2394     2.7325    -0.3525 C.3     
   8 C8            -2.1347     1.9183    -0.6956 C.2     
   9 N9            -2.7672     0.7733    -0.5872 N.2     
  10 C10           -1.8874    -0.1838    -0.2189 C.2     
  11 C11           -2.1972    -1.6056     0.0134 C.2     
  12 O12           -1.3144    -2.3744     0.3431 O.2     
  13 N13           -3.4590    -2.0540    -0.1395 N.am    
  14 C14            2.0851    -0.3232     2.2039 C.3     
  15 C15           -4.9961    -3.8484    -0.6930 C.2     
  16 C16           -3.7670    -3.4675     0.0914 C.3     
  17 C17           -4.0222    -3.6969     1.5824 C.3     
  18 C18           -4.4352    -5.1522     1.8112 C.3     
  19 O19           -5.8392    -3.0131    -0.9427 O.2     
  20 O20           -5.0726    -7.2893    -2.8000 O.3     
  21 C21           -6.0188    -6.2580    -3.0912 C.3     
  22 C22           -6.3967    -5.5381    -1.7916 C.3     
  23 N23           -5.1584    -5.1174    -1.1171 N.am    
  24 C24           -4.1023    -6.1229    -0.9199 C.3     
  25 C25           -3.8362    -6.8143    -2.2619 C.3     
  26 C26           -2.7448    -3.3994     2.3702 C.3     
  27 C27           -5.1419    -2.7684     2.0570 C.3     
  28 C28           -2.7449     3.2075    -1.0861 C.ar    
  29 C29           -3.5962     3.2744    -2.1927 C.ar    
  30 C30           -4.1627     4.4826    -2.5517 C.ar    
  31 C31           -3.8876     5.6236    -1.8178 C.ar    
  32 C32           -3.0449     5.5621    -0.7207 C.ar    
  33 C33           -2.4779     4.3609    -0.3482 C.ar    
  34 F34           -3.8640     2.1610    -2.9096 F       
  35 Cl35          -4.6018     7.1384    -2.2751 Cl      
  36 H36            0.4335    -1.2660     0.6572 H       
  37 H37            1.2658    -0.3490    -0.6231 H       
  38 H38            2.3078     2.3788     1.3643 H       
  39 H39            3.1634     1.1055     0.4688 H       
  40 H40            2.2651     2.7803    -1.0848 H       
  41 H41            1.4372     1.2230    -1.3163 H       
  42 H42            0.0459     3.4891    -1.1129 H       
  43 H43            0.2638     3.2010     0.6314 H       
  44 H44           -4.1631    -1.4408    -0.4024 H       
  45 H45            2.7825    -0.9370     1.6338 H       
  46 H46            2.6394     0.2995     2.9061 H       
  47 H47            1.3989    -0.9678     2.7531 H       
  48 H48           -2.9254    -4.0802    -0.2316 H       
  49 H49           -3.6347    -5.8135     1.4793 H       
  50 H50           -4.6235    -5.3139     2.8726 H       
  51 H51           -5.3415    -5.3661     1.2447 H       
  52 H52           -5.5773    -5.5448    -3.7873 H       
  53 H53           -6.9112    -6.6978    -3.5365 H       
  54 H54           -7.0057    -4.6634    -2.0201 H       
  55 H55           -6.9546    -6.2158    -1.1454 H       
  56 H56           -3.1918    -5.6355    -0.5711 H       
  57 H57           -4.4292    -6.8595    -0.1859 H       
  58 H58           -3.1583    -7.6543    -2.1106 H       
  59 H59           -3.3868    -6.1031    -2.9550 H       
  60 H60           -2.4506    -2.3625     2.2072 H       
  61 H61           -2.9266    -3.5628     3.4324 H       
  62 H62           -1.9471    -4.0608     2.0322 H       
  63 H63           -6.0520    -2.9804     1.4957 H       
  64 H64           -5.3238    -2.9318     3.1192 H       
  65 H65           -4.8477    -1.7316     1.8940 H       
  66 H66           -4.8207     4.5367    -3.4063 H       
  67 H67           -2.8344     6.4561    -0.1525 H       
  68 H68           -1.8245     4.3144     0.5104 H       
@<TRIPOS>BOND
   1    1    2 1
   2    1    7 1
   3    1    8 1
   4    2    3 1
   5    2   10 2
   6    3    4 1
   7    3   36 1
   8    3   37 1
   9    4    5 1
  10    4   14 1
  11    5    6 1
  12    5   38 1
  13    5   39 1
  14    6    7 1
  15    6   40 1
  16    6   41 1
  17    7   42 1
  18    7   43 1
  19    8    9 2
  20    8   28 1
  21    9   10 1
  22   10   11 1
  23   11   12 2
  24   11   13 am
  25   13   16 1
  26   13   44 1
  27   14   45 1
  28   14   46 1
  29   14   47 1
  30   15   19 2
  31   15   23 am
  32   15   16 1
  33   16   17 1
  34   16   48 1
  35   17   18 1
  36   17   26 1
  37   17   27 1
  38   18   49 1
  39   18   50 1
  40   18   51 1
  41   20   21 1
  42   20   25 1
  43   21   22 1
  44   21   52 1
  45   21   53 1
  46   22   23 1
  47   22   54 1
  48   22   55 1
  49   23   24 1
  50   24   25 1
  51   24   56 1
  52   24   57 1
  53   25   58 1
  54   25   59 1
  55   26   60 1
  56   26   61 1
  57   26   62 1
  58   27   63 1
  59   27   64 1
  60   27   65 1
  61   28   29 ar
  62   28   33 ar
  63   29   30 ar
  64   29   34 1
  65   30   31 ar
  66   30   66 1
  67   31   32 ar
  68   31   35 1
  69   32   33 ar
  70   32   67 1
  71   33   68 1

#	End of record

