#	Name: ASD01040003
#	Creating user name:	WinNT
#	Creation time:	15. 06. 2019 18:58

#	Modifying user name:	WinNT
#	Modification time:	15. 06. 2019 18:58

#	Program:	/corina/corina34_cracker 3.40 0067  02.08.2006

@<TRIPOS>MOLECULE
ASD01040003
  62   66    0    0    0
SMALL
NO_CHARGES


@<TRIPOS>ATOM
   1 C1            -2.1353     3.3676    -1.1691 C.3     
   2 C2            -1.1472     2.2298    -0.9043 C.3     
   3 C3            -0.9803     1.4079    -2.1563 C.2     
   4 C4            -1.7697     0.3258    -2.3673 C.2     
   5 C5            -1.6305    -0.4598    -3.6131 C.ar    
   6 C6            -1.9333     0.1226    -4.8451 C.ar    
   7 C7            -1.7969    -0.6109    -6.0042 C.ar    
   8 C8            -1.3593    -1.9277    -5.9474 C.ar    
   9 O9            -1.2265    -2.6475    -7.0919 O.3     
  10 C10           -1.0567    -2.5105    -4.7236 C.ar    
  11 C11           -1.1905    -1.7835    -3.5602 C.ar    
  12 C12           -2.7703    -0.0692    -1.3516 C.ar    
  13 C13           -2.3539    -0.5762    -0.1194 C.ar    
  14 C14           -3.2891    -0.9427     0.8245 C.ar    
  15 C15           -4.6441    -0.8085     0.5508 C.ar    
  16 O16           -5.5629    -1.1712     1.4836 O.3     
  17 C17           -5.0622    -0.3040    -0.6737 C.ar    
  18 C18           -4.1329     0.0696    -1.6207 C.ar    
  19 C19            0.0389     1.7794    -3.1493 C.ar    
  20 C20            1.1158     0.9230    -3.4051 C.ar    
  21 C21            2.0693     1.2745    -4.3374 C.ar    
  22 C22            1.9664     2.4715    -5.0222 C.ar    
  23 C23            0.9010     3.3308    -4.7761 C.ar    
  24 N24            0.8032     4.5389    -5.4712 N.pl3   
  25 C25            0.3338     5.6796    -4.8230 C.ar    
  26 C26            0.1151     5.6660    -3.4614 C.ar    
  27 C27           -0.3535     6.7997    -2.8050 C.ar    
  28 C28           -0.6092     7.9512    -3.4856 C.ar    
  29 C29           -0.3997     8.0071    -4.8739 C.ar    
  30 C30           -0.6546     9.1823    -5.6021 C.ar    
  31 C31           -0.4403     9.2018    -6.9460 C.ar    
  32 C32            0.0291     8.0725    -7.6138 C.ar    
  33 C33            0.2867     6.9172    -6.9406 C.ar    
  34 C34            0.0832     6.8614    -5.5531 C.ar    
  35 C35           -0.0671     2.9864    -3.8458 C.ar    
  36 H36           -1.7051     4.0618    -1.8909 H       
  37 H37           -3.0632     2.9575    -1.5679 H       
  38 H38           -2.3416     3.8939    -0.2372 H       
  39 H39           -0.1833     2.6464    -0.6119 H       
  40 H40           -1.5279     1.5972    -0.1024 H       
  41 H41           -2.2743     1.1463    -4.8900 H       
  42 H42           -2.0309    -0.1610    -6.9577 H       
  43 H43           -0.3519    -2.5813    -7.4990 H       
  44 H44           -0.7163    -3.5346    -4.6835 H       
  45 H45           -0.9514    -2.2362    -2.6092 H       
  46 H46           -1.3005    -0.6815     0.0938 H       
  47 H47           -2.9678    -1.3351     1.7780 H       
  48 H48           -5.8149    -0.4577     2.0857 H       
  49 H49           -6.1167    -0.2008    -0.8827 H       
  50 H50           -4.4588     0.4653    -2.5713 H       
  51 H51            1.2003    -0.0127    -2.8724 H       
  52 H52            2.8999     0.6126    -4.5332 H       
  53 H53            2.7168     2.7404    -5.7509 H       
  54 H54            1.0622     4.5836    -6.4049 H       
  55 H55            0.3095     4.7651    -2.8984 H       
  56 H56           -0.5175     6.7659    -1.7380 H       
  57 H57           -0.9733     8.8208    -2.9587 H       
  58 H58           -1.0190    10.0650    -5.0977 H       
  59 H59           -0.6374    10.1058    -7.5031 H       
  60 H60            0.1905     8.1139    -8.6808 H       
  61 H61            0.6499     6.0494    -7.4711 H       
  62 H62           -0.8976     3.6504    -3.6565 H       
@<TRIPOS>BOND
   1    1   36 1
   2    1   37 1
   3    1   38 1
   4    1    2 1
   5    2    3 1
   6    2   39 1
   7    2   40 1
   8    3   19 1
   9    3    4 2
  10    4   12 1
  11    4    5 1
  12    5   11 ar
  13    5    6 ar
  14    6   41 1
  15    6    7 ar
  16    7    8 ar
  17    7   42 1
  18    8   10 ar
  19    8    9 1
  20    9   43 1
  21   10   11 ar
  22   10   44 1
  23   11   45 1
  24   12   18 ar
  25   12   13 ar
  26   13   14 ar
  27   13   46 1
  28   14   15 ar
  29   14   47 1
  30   15   17 ar
  31   15   16 1
  32   16   48 1
  33   17   49 1
  34   17   18 ar
  35   18   50 1
  36   19   35 ar
  37   19   20 ar
  38   20   21 ar
  39   20   51 1
  40   21   22 ar
  41   21   52 1
  42   22   53 1
  43   22   23 ar
  44   23   24 1
  45   23   35 ar
  46   24   54 1
  47   24   25 1
  48   25   26 ar
  49   25   34 ar
  50   26   55 1
  51   26   27 ar
  52   27   56 1
  53   27   28 ar
  54   28   57 1
  55   28   29 ar
  56   29   34 ar
  57   29   30 ar
  58   30   58 1
  59   30   31 ar
  60   31   32 ar
  61   31   59 1
  62   32   33 ar
  63   32   60 1
  64   33   34 ar
  65   33   61 1
  66   35   62 1

#	End of record

