#	Name: ASD01470035
#	Creating user name:	WinNT
#	Creation time:	15. 06. 2019 19:21

#	Modifying user name:	WinNT
#	Modification time:	15. 06. 2019 19:21

#	Program:	/corina/corina34_cracker 3.40 0067  02.08.2006

@<TRIPOS>MOLECULE
ASD01470035
  84   90    0    0    0
SMALL
NO_CHARGES


@<TRIPOS>ATOM
   1 N1            -1.6738     1.3886     0.6017 N.am    
   2 C2            -0.3394     0.9375     0.2164 C.3     
   3 C3             0.1963    -0.0946     1.2187 C.3     
   4 C4            -0.2693    -1.5037     0.8858 C.3     
   5 C5            -1.6355    -1.4966     0.2201 C.3     
   6 N6            -2.6051    -0.7574     1.0294 N.am    
   7 C7            -2.6365     0.5867     1.0279 C.2     
   8 O8            -3.6479     1.1143     1.4486 O.2     
   9 C9            -3.5575    -1.4958     1.8625 C.3     
  10 C10           -1.9636     2.8221     0.5166 C.3     
  11 C11           -1.7046     3.4672     1.8537 C.ar    
  12 C12           -3.0071    -1.6264     3.2593 C.ar    
  13 C13           -3.1542    -0.5967     4.1427 C.ar    
  14 C14           -2.6431    -0.7194     5.4397 C.ar    
  15 C15           -1.9826    -1.9037     5.8192 C.ar    
  16 C16           -1.8480    -2.9379     4.8959 C.ar    
  17 C17           -2.3596    -2.7965     3.6373 C.ar    
  18 C18           -0.4259     3.8689     2.1910 C.ar    
  19 C19           -0.1882     4.4607     3.4177 C.ar    
  20 C20           -1.2295     4.6510     4.3065 C.ar    
  21 C21           -2.5087     4.2500     3.9687 C.ar    
  22 C22           -2.7471     3.6623     2.7406 C.ar    
  23 C23           -2.6208     0.1549     6.6079 C.2     
  24 N24           -2.0031    -0.4761     7.5653 N.2     
  25 N25           -1.5965    -1.7395     7.1237 N.pl3   
  26 C26           -0.4039     0.3030    -1.1744 C.3     
  27 O27            1.6248    -0.0613     1.2007 O.3     
  28 C28            0.4634     1.0873    -2.1250 C.ar    
  29 C29            1.7660     0.6892    -2.3608 C.ar    
  30 C30            2.5616     1.4087    -3.2328 C.ar    
  31 C31            2.0544     2.5260    -3.8693 C.ar    
  32 C32            0.7515     2.9236    -3.6343 C.ar    
  33 C33           -0.0455     2.2016    -2.7656 C.ar    
  34 C34           -2.1188    -2.9379     0.0464 C.3     
  35 O35           -0.3409    -2.2687     2.0907 O.3     
  36 C36           -1.1972    -3.6664    -0.8975 C.ar    
  37 C37           -0.0648    -4.2930    -0.4118 C.ar    
  38 C38            0.7806    -4.9613    -1.2776 C.ar    
  39 C39            0.4933    -5.0034    -2.6291 C.ar    
  40 C40           -0.6396    -4.3776    -3.1147 C.ar    
  41 C41           -1.4873    -3.7130    -2.2483 C.ar    
  42 C42           -3.6439     4.4571     4.9380 C.3     
  43 C43           -4.3492     5.7496     4.6168 C.2     
  44 N44           -5.3797     5.8828     3.7828 N.2     
  45 C45           -5.7510     7.1364     3.7328 C.2     
  46 N46           -4.9495     7.8417     4.5497 N.pl3   
  47 N47           -4.0528     6.9209     5.1157 N.2     
  48 H48            0.3347     1.7935     0.1877 H       
  49 H49           -0.1534     0.1671     2.2174 H       
  50 H50            0.4523    -1.9677     0.2134 H       
  51 H51           -1.5545    -1.0275    -0.7605 H       
  52 H52           -4.5053    -0.9584     1.8942 H       
  53 H53           -3.7164    -2.4880     1.4403 H       
  54 H54           -1.3221     3.2783    -0.2373 H       
  55 H55           -3.0081     2.9658     0.2401 H       
  56 H56           -3.6619     0.3079     3.8425 H       
  57 H57           -1.3431    -3.8507     5.1755 H       
  58 H58           -2.2532    -3.6011     2.9248 H       
  59 H59            0.3877     3.7202     1.4965 H       
  60 H60            0.8111     4.7739     3.6816 H       
  61 H61           -1.0437     5.1127     5.2650 H       
  62 H62           -3.7464     3.3491     2.4767 H       
  63 H63           -3.0414     1.1478     6.6679 H       
  64 H64           -1.1182    -2.3945     7.6558 H       
  65 H65           -0.0470    -0.7255    -1.1214 H       
  66 H66           -1.4340     0.3123    -1.5306 H       
  67 H67            2.0405    -0.6871     1.8094 H       
  68 H68            2.1623    -0.1837    -1.8635 H       
  69 H69            3.5795     1.0981    -3.4164 H       
  70 H70            2.6761     3.0885    -4.5501 H       
  71 H71            0.3553     3.7968    -4.1313 H       
  72 H72           -1.0634     2.5122    -2.5820 H       
  73 H73           -2.1191    -3.4401     1.0138 H       
  74 H74           -3.1294    -2.9355    -0.3621 H       
  75 H75            0.5020    -2.3458     2.5583 H       
  76 H76            0.1597    -4.2601     0.6441 H       
  77 H77            1.6657    -5.4502    -0.8982 H       
  78 H78            1.1541    -5.5249    -3.3057 H       
  79 H79           -0.8639    -4.4102    -4.1707 H       
  80 H80           -2.3724    -3.2241    -2.6277 H       
  81 H81           -4.3478     3.6289     4.8555 H       
  82 H82           -3.2511     4.5002     5.9538 H       
  83 H83           -6.5600     7.5350     3.1386 H       
  84 H84           -4.9858     8.7963     4.7177 H       
@<TRIPOS>BOND
   1    1    2 1
   2    1   10 1
   3    1    7 am
   4    2    3 1
   5    2   26 1
   6    2   48 1
   7    3    4 1
   8    3   27 1
   9    3   49 1
  10    4    5 1
  11    4   35 1
  12    4   50 1
  13    5    6 1
  14    5   34 1
  15    5   51 1
  16    6    7 am
  17    6    9 1
  18    7    8 2
  19    9   12 1
  20    9   52 1
  21    9   53 1
  22   10   11 1
  23   10   54 1
  24   10   55 1
  25   11   18 ar
  26   11   22 ar
  27   12   13 ar
  28   12   17 ar
  29   13   14 ar
  30   13   56 1
  31   14   15 ar
  32   14   23 1
  33   15   16 ar
  34   15   25 1
  35   16   17 ar
  36   16   57 1
  37   17   58 1
  38   18   19 ar
  39   18   59 1
  40   19   20 ar
  41   19   60 1
  42   20   21 ar
  43   20   61 1
  44   21   22 ar
  45   21   42 1
  46   22   62 1
  47   23   24 2
  48   23   63 1
  49   24   25 1
  50   25   64 1
  51   26   28 1
  52   26   65 1
  53   26   66 1
  54   27   67 1
  55   28   29 ar
  56   28   33 ar
  57   29   30 ar
  58   29   68 1
  59   30   31 ar
  60   30   69 1
  61   31   32 ar
  62   31   70 1
  63   32   33 ar
  64   32   71 1
  65   33   72 1
  66   34   36 1
  67   34   73 1
  68   34   74 1
  69   35   75 1
  70   36   37 ar
  71   36   41 ar
  72   37   38 ar
  73   37   76 1
  74   38   39 ar
  75   38   77 1
  76   39   40 ar
  77   39   78 1
  78   40   41 ar
  79   40   79 1
  80   41   80 1
  81   42   43 1
  82   42   81 1
  83   42   82 1
  84   43   44 1
  85   43   47 2
  86   44   45 2
  87   45   46 1
  88   45   83 1
  89   46   47 1
  90   46   84 1

#	End of record

