#	Name: ASD01200408
#	Creating user name:	WinNT
#	Creation time:	15. 06. 2019 19:09

#	Modifying user name:	WinNT
#	Modification time:	15. 06. 2019 19:09

#	Program:	/corina/corina34_cracker 3.40 0067  02.08.2006

@<TRIPOS>MOLECULE
ASD01200408
  58   62    0    0    0
SMALL
NO_CHARGES


@<TRIPOS>ATOM
   1 C1             0.3069     1.0906     1.6212 C.ar    
   2 C2             0.2292    -0.2171     1.1316 C.ar    
   3 C3             1.3053    -0.7579     0.4576 C.ar    
   4 C4             2.4630    -0.0069     0.2652 C.ar    
   5 C5             2.5513     1.2812     0.7429 C.ar    
   6 C6             3.6300    -0.6107    -0.4727 C.3     
   7 C7             3.4484    -0.4337    -1.9965 C.3     
   8 C8             4.2203     0.8808    -2.2555 C.3     
   9 C9             5.2187     0.9544    -1.1213 C.2     
  10 N10            4.8669     0.1058    -0.1400 N.am    
  11 C11           -0.6198     1.9521     2.3530 C.2     
  12 C12            1.4781     1.8462     1.4248 C.ar    
  13 N13            1.2744     3.0804     2.0043 N.pl3   
  14 C14            0.0156     3.1328     2.5578 C.2     
  15 C15            5.6212    -0.0799     1.1021 C.3     
  16 O16            1.2356    -2.0290    -0.0202 O.3     
  17 O17            6.1949     1.6738    -1.1007 O.2     
  18 C18            0.0531    -2.6890     0.0926 C.ar    
  19 C19           -2.1012    -3.2759    -0.7455 C.ar    
  20 C20           -2.2905    -4.0401     0.3911 C.ar    
  21 N21           -1.3584    -4.1132     1.3207 N.ar    
  22 C22           -0.2124    -3.4715     1.2069 C.ar    
  23 C23           -0.9112    -2.5850    -0.9054 C.ar    
  24 S24           -3.8010    -4.9220     0.6037 S.o2    
  25 O25           -3.9348    -5.0535     2.0122 O.2     
  26 O26           -4.7479    -4.1838    -0.1564 O.2     
  27 C27           -3.4929    -6.5383    -0.1601 C.3     
  28 C28           -0.5580     4.2987     3.2626 C.ar    
  29 N29           -1.7912     4.2317     3.7524 N.ar    
  30 C30           -2.3379     5.2484     4.3865 C.ar    
  31 C31           -1.6430     6.4307     4.5660 C.ar    
  32 C32           -0.3516     6.5440     4.0702 C.ar    
  33 C33            0.2018     5.4591     3.4134 C.ar    
  34 C34           -2.2824     7.5856     5.2928 C.3     
  35 F35           -3.5749     7.2278     5.6912 F       
  36 F36           -1.5191     7.9072     6.4203 F       
  37 F37           -2.3469     8.6940     4.4417 F       
  38 H38           -0.6674    -0.8005     1.2804 H       
  39 H39            3.4540     1.8536     0.5881 H       
  40 H40            3.7264    -1.6677    -0.2245 H       
  41 H41            3.8975    -1.2638    -2.5419 H       
  42 H42            2.3948    -0.3246    -2.2537 H       
  43 H43            4.7355     0.8380    -3.2151 H       
  44 H44            3.5426     1.7339    -2.2231 H       
  45 H45           -1.6201     1.6970     2.6703 H       
  46 H46            1.9206     3.8037     2.0183 H       
  47 H47            6.3593    -0.8701     0.9642 H       
  48 H48            6.1281     0.8494     1.3618 H       
  49 H49            4.9375    -0.3573     1.9044 H       
  50 H50           -2.8702    -3.2218    -1.5018 H       
  51 H51            0.5275    -3.5562     1.9891 H       
  52 H52           -0.7363    -1.9801    -1.7829 H       
  53 H53           -2.6613    -7.0273     0.3473 H       
  54 H54           -4.3859    -7.1573    -0.0736 H       
  55 H55           -3.2462    -6.4015    -1.2130 H       
  56 H56           -3.3430     5.1578     4.7714 H       
  57 H57            0.2105     7.4574     4.1979 H       
  58 H58            1.2059     5.5114     3.0192 H       
@<TRIPOS>BOND
   1    1    2 ar
   2    1   12 ar
   3    1   11 1
   4    2    3 ar
   5    2   38 1
   6    3    4 ar
   7    3   16 1
   8    4    5 ar
   9    4    6 1
  10    5   12 ar
  11    5   39 1
  12    6    7 1
  13    6   10 1
  14    6   40 1
  15    7    8 1
  16    7   41 1
  17    7   42 1
  18    8    9 1
  19    8   43 1
  20    8   44 1
  21    9   10 am
  22    9   17 2
  23   10   15 1
  24   11   14 2
  25   11   45 1
  26   12   13 1
  27   13   14 1
  28   13   46 1
  29   14   28 1
  30   15   47 1
  31   15   48 1
  32   15   49 1
  33   16   18 1
  34   18   23 ar
  35   18   22 ar
  36   19   20 ar
  37   19   23 ar
  38   19   50 1
  39   20   21 ar
  40   20   24 1
  41   21   22 ar
  42   22   51 1
  43   23   52 1
  44   24   25 2
  45   24   26 2
  46   24   27 1
  47   27   53 1
  48   27   54 1
  49   27   55 1
  50   28   29 ar
  51   28   33 ar
  52   29   30 ar
  53   30   31 ar
  54   30   56 1
  55   31   32 ar
  56   31   34 1
  57   32   33 ar
  58   32   57 1
  59   33   58 1
  60   34   35 1
  61   34   36 1
  62   34   37 1

#	End of record

