#	Name: ASD00310125
#	Creating user name:	WinNT
#	Creation time:	15. 06. 2019 18:33

#	Modifying user name:	WinNT
#	Modification time:	15. 06. 2019 18:33

#	Program:	/corina/corina34_cracker 3.40 0067  02.08.2006

@<TRIPOS>MOLECULE
ASD00310125
  26   27    0    0    0
SMALL
NO_CHARGES


@<TRIPOS>ATOM
   1 C1            -0.0173     1.4248     0.0099 C.3     
   2 O2             0.0021    -0.0041     0.0020 O.3     
   3 C3             1.4181     1.9544    -0.0010 C.3     
   4 C4             1.5084     3.4895     0.0064 C.3     
   5 C5             1.4948     3.4045     1.5418 C.3     
   6 C6             2.0730     1.9876     1.3900 C.3     
   7 C7             2.2737     1.3044    -1.0577 C.ar    
   8 C8             2.3165    -0.0735    -1.1609 C.ar    
   9 C9             3.1007    -0.6700    -2.1302 C.ar    
  10 C10            3.8427     0.1119    -2.9971 C.ar    
  11 C11            3.7995     1.4906    -2.8934 C.ar    
  12 C12            3.0109     2.0864    -1.9272 C.ar    
  13 Br13           4.9163    -0.7037    -4.3230 Br      
  14 H14           -0.5445     1.7859    -0.8732 H       
  15 H15           -0.5275     1.7763     0.9067 H       
  16 H16           -0.8759    -0.4094     0.0082 H       
  17 H17            2.4433     3.8739    -0.4014 H       
  18 H18            0.6296     3.9806    -0.4115 H       
  19 H19            2.1767     4.1050     2.0239 H       
  20 H20            0.4932     3.4236     1.9713 H       
  21 H21            1.6500     1.2662     2.0891 H       
  22 H22            3.1622     1.9614     1.3605 H       
  23 H23            1.7374    -0.6839    -0.4838 H       
  24 H24            3.1344    -1.7465    -2.2106 H       
  25 H25            4.3790     2.1015    -3.5697 H       
  26 H26            2.9739     3.1629    -1.8488 H       
@<TRIPOS>BOND
   1    1    2 1
   2    1    3 1
   3    1   14 1
   4    1   15 1
   5    2   16 1
   6    3    4 1
   7    3    6 1
   8    3    7 1
   9    4    5 1
  10    4   17 1
  11    4   18 1
  12    5    6 1
  13    5   19 1
  14    5   20 1
  15    6   21 1
  16    6   22 1
  17    7    8 ar
  18    7   12 ar
  19    8    9 ar
  20    8   23 1
  21    9   10 ar
  22    9   24 1
  23   10   11 ar
  24   10   13 1
  25   11   12 ar
  26   11   25 1
  27   12   26 1

#	End of record

