#	Name: ASD03730249
#	Creating user name:	WinNT
#	Creation time:	15. 06. 2019 20:44

#	Modifying user name:	WinNT
#	Modification time:	15. 06. 2019 20:44

#	Program:	/corina/corina34_cracker 3.40 0067  02.08.2006

@<TRIPOS>MOLECULE
ASD03730249
  62   68    0    0    0
SMALL
NO_CHARGES


@<TRIPOS>ATOM
   1 O1            -0.4533     1.1587     1.2497 O.3     
   2 C2            -0.3889    -0.2779     1.3199 C.3     
   3 O3             0.7000    -0.6152     0.4405 O.3     
   4 C4             1.5234     0.4744     0.4444 C.ar    
   5 C5             0.8129     1.5654     0.9395 C.ar    
   6 C6             2.8440     0.6252     0.0614 C.ar    
   7 C7             3.4706     1.8635     0.1634 C.ar    
   8 C8             2.7470     2.9491     0.6476 C.ar    
   9 C9             1.4322     2.8001     1.0371 C.ar    
  10 O10            4.7529     2.2188    -0.1362 O.3     
  11 C11            3.6735     4.1347     0.6069 C.3     
  12 C12            4.8274     3.6500    -0.2817 C.3     
  13 N13            3.1051     6.3160     0.9825 N.am    
  14 C14            3.0085     5.3565     0.0407 C.2     
  15 C15            4.1485     4.5372     1.9711 C.ar    
  16 C16            4.8269     3.8749     2.9851 C.ar    
  17 C17            5.1310     4.5461     4.1693 C.ar    
  18 C18            4.7544     5.8655     4.3241 C.ar    
  19 C19            4.0800     6.5234     3.3156 C.ar    
  20 C20            3.7693     5.8659     2.1265 C.ar    
  21 O21            2.4870     5.4595    -1.0495 O.2     
  22 N22            6.5045     0.8565     1.6195 N.ar    
  23 C23            6.1327     2.0986     1.7975 C.ar    
  24 C24            5.2279     2.4573     2.8095 C.ar    
  25 C25            4.7120     1.4772     3.6438 C.ar    
  26 C26            5.1245     0.1493     3.4355 C.ar    
  27 C27            4.6447    -0.8973     4.2402 C.ar    
  28 C28            5.0658    -2.1714     4.0090 C.ar    
  29 C29            5.9673    -2.4507     2.9843 C.ar    
  30 C30            6.4524    -1.4608     2.1856 C.ar    
  31 C31            6.0417    -0.1327     2.3918 C.ar    
  32 C32            2.5764     7.6731     0.8246 C.3     
  33 C33            1.1339     7.7207     1.3324 C.3     
  34 C34            0.5816     9.1380     1.1675 C.3     
  35 C35           -0.8608     9.1856     1.6752 C.3     
  36 C36           -1.4131    10.6029     1.5103 C.3     
  37 H37           -0.1736    -0.6024     2.3380 H       
  38 H38           -1.3194    -0.7208     0.9645 H       
  39 H39            3.3926    -0.2239    -0.3189 H       
  40 H40            0.8845     3.6486     1.4197 H       
  41 H41            5.7825     4.0271     0.0842 H       
  42 H42            4.6663     3.9426    -1.3192 H       
  43 H43            5.6585     4.0361     4.9618 H       
  44 H44            4.9889     6.3862     5.2408 H       
  45 H45            3.7904     7.5553     3.4489 H       
  46 H46            6.5316     2.8660     1.1507 H       
  47 H47            4.0148     1.7263     4.4301 H       
  48 H48            3.9461    -0.6926     5.0380 H       
  49 H49            4.6965    -2.9756     4.6281 H       
  50 H50            6.2869    -3.4694     2.8211 H       
  51 H51            7.1510    -1.6953     1.3961 H       
  52 H52            3.1869     8.3700     1.3988 H       
  53 H53            2.6001     7.9520    -0.2289 H       
  54 H54            0.5234     7.0238     0.7581 H       
  55 H55            1.1101     7.4418     2.3858 H       
  56 H56            1.1921     9.8349     1.7417 H       
  57 H57            0.6054     9.4169     0.1140 H       
  58 H58           -1.4713     8.4887     1.1010 H       
  59 H59           -0.8846     8.9067     2.7287 H       
  60 H60           -0.8026    11.2998     2.0845 H       
  61 H61           -1.3893    10.8818     0.4569 H       
  62 H62           -2.4407    10.6368     1.8721 H       
@<TRIPOS>BOND
   1    1    2 1
   2    1    5 1
   3    2    3 1
   4    2   37 1
   5    2   38 1
   6    3    4 1
   7    4    5 ar
   8    4    6 ar
   9    5    9 ar
  10    6    7 ar
  11    6   39 1
  12    7    8 ar
  13    7   10 1
  14    8    9 ar
  15    8   11 1
  16    9   40 1
  17   10   12 1
  18   11   12 1
  19   11   14 1
  20   11   15 1
  21   12   41 1
  22   12   42 1
  23   13   14 am
  24   13   20 1
  25   13   32 1
  26   14   21 2
  27   15   16 ar
  28   15   20 ar
  29   16   17 ar
  30   16   24 1
  31   17   18 ar
  32   17   43 1
  33   18   19 ar
  34   18   44 1
  35   19   20 ar
  36   19   45 1
  37   22   23 ar
  38   22   31 ar
  39   23   24 ar
  40   23   46 1
  41   24   25 ar
  42   25   26 ar
  43   25   47 1
  44   26   27 ar
  45   26   31 ar
  46   27   28 ar
  47   27   48 1
  48   28   29 ar
  49   28   49 1
  50   29   30 ar
  51   29   50 1
  52   30   31 ar
  53   30   51 1
  54   32   33 1
  55   32   52 1
  56   32   53 1
  57   33   34 1
  58   33   54 1
  59   33   55 1
  60   34   35 1
  61   34   56 1
  62   34   57 1
  63   35   36 1
  64   35   58 1
  65   35   59 1
  66   36   60 1
  67   36   61 1
  68   36   62 1

#	End of record

