#	Name: ASD04881024
#	Creating user name:	WinNT
#	Creation time:	15. 06. 2019 20:53

#	Modifying user name:	WinNT
#	Modification time:	15. 06. 2019 20:53

#	Program:	/corina/corina34_cracker 3.40 0067  02.08.2006

@<TRIPOS>MOLECULE
ASD04881024
  80   85    0    0    0
SMALL
NO_CHARGES


@<TRIPOS>ATOM
   1 C1            -0.4545     2.3446     3.1221 C.ar    
   2 C2            -0.7165     1.3661     2.1804 C.ar    
   3 C3             0.2303     1.0527     1.2228 C.ar    
   4 C4             1.4415     1.7164     1.2037 C.ar    
   5 C5             1.7078     2.6995     2.1479 C.ar    
   6 C6             0.7542     3.0120     3.1088 C.ar    
   7 N7             2.9318     3.3723     2.1318 N.3     
   8 C8             3.0841     4.1591     0.9000 C.3     
   9 C9             4.3983     4.9414     0.9567 C.3     
  10 N10            5.5173     4.0030     1.1206 N.3     
  11 C11            5.3650     3.2162     2.3524 C.3     
  12 C12            4.0508     2.4339     2.2956 C.3     
  13 C13            6.7375     4.6737     1.1045 C.ar    
  14 C14            7.1748     5.2992    -0.0667 C.ar    
  15 C15            8.3856     5.9647    -0.0824 C.ar    
  16 C16            9.1698     6.0102     1.0741 C.ar    
  17 C17            8.7267     5.3828     2.2415 C.ar    
  18 C18            7.5163     4.7252     2.2545 C.ar    
  19 C19            1.0385     4.0783     4.1349 C.3     
  20 N20            6.3862     5.2510    -1.2239 N.am    
  21 C21            6.4796     6.2310    -2.1444 C.2     
  22 C22            5.5844     6.2299    -3.3154 C.2     
  23 O23            7.3027     7.1162    -2.0089 O.2     
  24 C24            5.5652     7.1488    -4.3194 C.2     
  25 O25            4.6039     6.7710    -5.1772 O.3     
  26 C26            4.0447     5.6453    -4.7112 C.2     
  27 N27            4.6257     5.3070    -3.5993 N.2     
  28 C28            2.9234     4.8885    -5.3752 C.3     
  29 C29           10.4635     6.7191     1.0620 C.2     
  30 O30           10.8485     7.2644     0.0456 O.2     
  31 N31           11.2187     6.7624     2.1775 N.am    
  32 C32           12.5034     7.4664     2.1654 C.3     
  33 C33            1.6016     5.6285    -5.5898 C.3     
  34 C34            2.5115     5.3264    -6.7821 C.3     
  35 C35           13.1537     7.3647     3.5466 C.3     
  36 C36           14.4954     8.0999     3.5341 C.3     
  37 C37           15.1456     7.9983     4.9153 C.3     
  38 C38           15.5332     6.5389     5.2228 C.3     
  39 O39           16.9643     6.4946     5.3502 O.3     
  40 C40           17.3913     7.8093     5.7671 C.3     
  41 C41           16.4924     8.7614     4.9376 C.3     
  42 H42           -1.1980     2.5901     3.8660 H       
  43 H43           -1.6626     0.8454     2.1933 H       
  44 H44            0.0227     0.2879     0.4891 H       
  45 H45            2.1808     1.4709     0.4556 H       
  46 H46            3.0963     3.4895     0.0400 H       
  47 H47            2.2503     4.8551     0.8076 H       
  48 H48            4.5273     5.5032     0.0316 H       
  49 H49            4.3751     5.6306     1.8009 H       
  50 H50            6.1988     2.5202     2.4448 H       
  51 H51            5.3528     3.8858     3.2124 H       
  52 H52            3.9217     1.8721     3.2207 H       
  53 H53            4.0740     1.7447     1.4515 H       
  54 H54            8.7257     6.4484    -0.9862 H       
  55 H55            9.3317     5.4173     3.1355 H       
  56 H56            7.1738     4.2448     3.1591 H       
  57 H57            1.4252     3.6152     5.0427 H       
  58 H58            1.7775     4.7753     3.7395 H       
  59 H59            0.1186     4.6159     4.3648 H       
  60 H60            5.7730     4.5123    -1.3625 H       
  61 H61            6.2017     8.0167    -4.4087 H       
  62 H62            2.8727     3.8245    -5.1438 H       
  63 H63           10.9116     6.3274     2.9883 H       
  64 H64           13.1587     7.0139     1.4211 H       
  65 H65           12.3407     8.5151     1.9167 H       
  66 H66            0.6813     5.0513    -5.5000 H       
  67 H67            1.5430     6.6628    -5.2507 H       
  68 H68            3.0516     6.1619    -7.2275 H       
  69 H69            2.1898     4.5504    -7.4767 H       
  70 H70           12.4984     7.8172     4.2909 H       
  71 H71           13.3163     6.3160     3.7953 H       
  72 H72           15.1507     7.6474     2.7898 H       
  73 H73           14.3327     9.1486     3.2854 H       
  74 H74           14.4734     8.3841     5.6817 H       
  75 H75           15.0681     6.2206     6.1558 H       
  76 H76           15.2136     5.8906     4.4069 H       
  77 H77           17.2168     7.9492     6.8339 H       
  78 H78           18.4425     7.9662     5.5253 H       
  79 H79           16.8853     8.8865     3.9287 H       
  80 H80           16.3849     9.7257     5.4341 H       
@<TRIPOS>BOND
   1    1    2 ar
   2    1    6 ar
   3    1   42 1
   4    2    3 ar
   5    2   43 1
   6    3    4 ar
   7    3   44 1
   8    4    5 ar
   9    4   45 1
  10    5    6 ar
  11    5    7 1
  12    6   19 1
  13    7    8 1
  14    7   12 1
  15    8    9 1
  16    8   46 1
  17    8   47 1
  18    9   10 1
  19    9   48 1
  20    9   49 1
  21   10   11 1
  22   10   13 1
  23   11   12 1
  24   11   50 1
  25   11   51 1
  26   12   52 1
  27   12   53 1
  28   13   14 ar
  29   13   18 ar
  30   14   15 ar
  31   14   20 1
  32   15   16 ar
  33   15   54 1
  34   16   17 ar
  35   16   29 1
  36   17   18 ar
  37   17   55 1
  38   18   56 1
  39   19   57 1
  40   19   58 1
  41   19   59 1
  42   20   21 am
  43   20   60 1
  44   21   22 1
  45   21   23 2
  46   22   24 2
  47   22   27 1
  48   24   25 1
  49   24   61 1
  50   25   26 1
  51   26   27 2
  52   26   28 1
  53   28   33 1
  54   28   34 1
  55   28   62 1
  56   29   30 2
  57   29   31 am
  58   31   32 1
  59   31   63 1
  60   32   35 1
  61   32   64 1
  62   32   65 1
  63   33   34 1
  64   33   66 1
  65   33   67 1
  66   34   68 1
  67   34   69 1
  68   35   36 1
  69   35   70 1
  70   35   71 1
  71   36   37 1
  72   36   72 1
  73   36   73 1
  74   37   38 1
  75   37   41 1
  76   37   74 1
  77   38   39 1
  78   38   75 1
  79   38   76 1
  80   39   40 1
  81   40   41 1
  82   40   77 1
  83   40   78 1
  84   41   79 1
  85   41   80 1

#	End of record

