#	Name: ASD03330035
#	Creating user name:	WinNT
#	Creation time:	15. 06. 2019 20:36

#	Modifying user name:	WinNT
#	Modification time:	15. 06. 2019 20:36

#	Program:	/corina/corina34_cracker 3.40 0067  02.08.2006

@<TRIPOS>MOLECULE
ASD03330035
  61   65    0    0    0
SMALL
NO_CHARGES


@<TRIPOS>ATOM
   1 N1            -0.0166     1.3750     0.0096 N.pl3   
   2 C2             0.0021    -0.0041     0.0020 C.2     
   3 C3             1.3153    -0.4368    -0.0128 C.2     
   4 C4             2.1509     0.7701    -0.0143 C.ar    
   5 C5             3.5312     0.9859    -0.0263 C.ar    
   6 C6             4.0190     2.2624    -0.0241 C.ar    
   7 C7             3.1517     3.3484    -0.0096 C.ar    
   8 C8             1.7885     3.1582     0.0029 C.ar    
   9 C9             1.2683     1.8654    -0.0000 C.ar    
  10 C10           -1.1808    -0.8721     0.0094 C.2     
  11 O11           -1.0479    -2.0817     0.0020 O.2     
  12 N12           -2.4145    -0.3297     0.0243 N.am    
  13 C13           -3.5956    -1.1965     0.0317 C.3     
  14 C14           -4.8601    -0.3352     0.0485 C.3     
  15 C15           -6.0750    -1.2268     0.0561 C.ar    
  16 C16           -6.6193    -1.6409     1.2580 C.ar    
  17 C17           -7.7327    -2.4580     1.2685 C.ar    
  18 C18           -8.3058    -2.8638     0.0700 C.ar    
  19 C19           -7.7565    -2.4459    -1.1356 C.ar    
  20 C20           -6.6464    -1.6243    -1.1388 C.ar    
  21 N21           -9.4316    -3.6905     0.0770 N.3     
  22 C22           -9.8695    -3.9949    -1.2912 C.3     
  23 C23          -11.0097    -5.0147    -1.2483 C.3     
  24 C24          -12.1731    -4.4385    -0.4364 C.3     
  25 C25          -11.6786    -4.0850     0.9690 C.3     
  26 C26          -10.5190    -3.0921     0.8618 C.3     
  27 C27            1.7856    -1.8396    -0.0244 C.ar    
  28 C28            1.5146    -2.6605    -1.1200 C.ar    
  29 C29            1.9558    -3.9676    -1.1246 C.ar    
  30 C30            2.6656    -4.4651    -0.0461 C.ar    
  31 C31            2.9371    -3.6566     1.0434 C.ar    
  32 C32            2.5069    -2.3459     1.0577 C.ar    
  33 Cl33           5.7343     2.5295    -0.0390 Cl      
  34 H34           -0.8192     1.9197     0.0165 H       
  35 H35            4.2106     0.1464    -0.0369 H       
  36 H36            3.5514     4.3517    -0.0076 H       
  37 H37            1.1235     4.0092     0.0145 H       
  38 H38           -2.5204     0.6344     0.0302 H       
  39 H39           -3.5934    -1.8212    -0.8615 H       
  40 H40           -3.5757    -1.8301     0.9183 H       
  41 H41           -4.8623     0.2895     0.9417 H       
  42 H42           -4.8799     0.2984    -0.8381 H       
  43 H43           -6.1730    -1.3253     2.1894 H       
  44 H44           -8.1571    -2.7814     2.2075 H       
  45 H45           -8.1997    -2.7596    -2.0692 H       
  46 H46           -6.2217    -1.2952    -2.0757 H       
  47 H47          -10.2175    -3.0811    -1.7730 H       
  48 H48           -9.0340    -4.4078    -1.8566 H       
  49 H49          -11.3450    -5.2287    -2.2632 H       
  50 H50          -10.6585    -5.9337    -0.7791 H       
  51 H51          -12.5499    -3.5407    -0.9265 H       
  52 H52          -12.9704    -5.1785    -0.3667 H       
  53 H53          -12.4918    -3.6348     1.5383 H       
  54 H54          -11.3379    -4.9894     1.4730 H       
  55 H55          -10.1553    -2.8494     1.8602 H       
  56 H56          -10.8639    -2.1826     0.3700 H       
  57 H57            0.9604    -2.2735    -1.9623 H       
  58 H58            1.7465    -4.6041    -1.9716 H       
  59 H59            3.0088    -5.4891    -0.0545 H       
  60 H60            3.4910    -4.0511     1.8824 H       
  61 H61            2.7240    -1.7142     1.9064 H       
@<TRIPOS>BOND
   1    1    2 1
   2    1    9 1
   3    1   34 1
   4    2    3 2
   5    2   10 1
   6    3    4 1
   7    3   27 1
   8    4    5 ar
   9    4    9 ar
  10    5    6 ar
  11    5   35 1
  12    6    7 ar
  13    6   33 1
  14    7    8 ar
  15    7   36 1
  16    8    9 ar
  17    8   37 1
  18   10   11 2
  19   10   12 am
  20   12   13 1
  21   12   38 1
  22   13   14 1
  23   13   39 1
  24   13   40 1
  25   14   15 1
  26   14   41 1
  27   14   42 1
  28   15   16 ar
  29   15   20 ar
  30   16   17 ar
  31   16   43 1
  32   17   18 ar
  33   17   44 1
  34   18   19 ar
  35   18   21 1
  36   19   20 ar
  37   19   45 1
  38   20   46 1
  39   21   22 1
  40   21   26 1
  41   22   23 1
  42   22   47 1
  43   22   48 1
  44   23   24 1
  45   23   49 1
  46   23   50 1
  47   24   25 1
  48   24   51 1
  49   24   52 1
  50   25   26 1
  51   25   53 1
  52   25   54 1
  53   26   55 1
  54   26   56 1
  55   27   28 ar
  56   27   32 ar
  57   28   29 ar
  58   28   57 1
  59   29   30 ar
  60   29   58 1
  61   30   31 ar
  62   30   59 1
  63   31   32 ar
  64   31   60 1
  65   32   61 1

#	End of record

