#	Name: ASD03090570
#	Creating user name:	WinNT
#	Creation time:	15. 06. 2019 20:29

#	Modifying user name:	WinNT
#	Modification time:	15. 06. 2019 20:29

#	Program:	/corina/corina34_cracker 3.40 0067  02.08.2006

@<TRIPOS>MOLECULE
ASD03090570
  34   35    0    0    0
SMALL
NO_CHARGES


@<TRIPOS>ATOM
   1 N1            -0.0162     1.3436     0.0094 N.am    
   2 C2            -1.0255     1.8181    -0.7473 C.2     
   3 O3            -0.8933     2.8663    -1.3491 O.2     
   4 N4            -2.1813     1.1307    -0.8370 N.am    
   5 O5            -5.0904     1.7353    -2.5357 O.3     
   6 N6            -4.3969     1.0701    -1.8019 N.2     
   7 C7            -3.2257     1.6218    -1.6202 C.2     
   8 C8            -3.2305     2.8218    -2.3799 C.2     
   9 C9            -4.4574     2.8430    -2.9485 C.2     
  10 C10           -5.0061     3.9045    -3.8668 C.3     
  11 C11            1.2187     2.0060     0.0259 C.ar    
  12 C12            1.2649     3.3911    -0.0568 C.ar    
  13 C13            2.4820     4.0433    -0.0406 C.ar    
  14 C14            3.6583     3.3147     0.0582 C.ar    
  15 C15            3.6128     1.9308     0.1409 C.ar    
  16 C16            2.3961     1.2778     0.1305 C.ar    
  17 O17            4.8565     3.9574     0.0737 O.3     
  18 C18            6.0273     3.1448     0.1774 C.3     
  19 C19            7.2696     4.0379     0.1795 C.3     
  20 H20           -0.1458     0.5458     0.5458 H       
  21 H21           -2.2868     0.2944    -0.3570 H       
  22 H22           -2.4383     3.5490    -2.4800 H       
  23 H23           -6.0224     3.6413    -4.1600 H       
  24 H24           -5.0142     4.8638    -3.3494 H       
  25 H25           -4.3787     3.9761    -4.7552 H       
  26 H26            0.3491     3.9584    -0.1341 H       
  27 H27            2.5181     5.1207    -0.1053 H       
  28 H28            4.5290     1.3641     0.2175 H       
  29 H29            2.3606     0.2006     0.1997 H       
  30 H30            5.9906     2.5713     1.1037 H       
  31 H31            6.0721     2.4620    -0.6711 H       
  32 H32            7.3063     4.6114    -0.7467 H       
  33 H33            7.2248     4.7207     1.0280 H       
  34 H34            8.1626     3.4180     0.2587 H       
@<TRIPOS>BOND
   1    1    2 am
   2    1   11 1
   3    1   20 1
   4    2    3 2
   5    2    4 am
   6    4    7 1
   7    4   21 1
   8    5    6 1
   9    5    9 1
  10    6    7 2
  11    7    8 1
  12    8    9 2
  13    8   22 1
  14    9   10 1
  15   10   23 1
  16   10   24 1
  17   10   25 1
  18   11   12 ar
  19   11   16 ar
  20   12   13 ar
  21   12   26 1
  22   13   14 ar
  23   13   27 1
  24   14   15 ar
  25   14   17 1
  26   15   16 ar
  27   15   28 1
  28   16   29 1
  29   17   18 1
  30   18   19 1
  31   18   30 1
  32   18   31 1
  33   19   32 1
  34   19   33 1
  35   19   34 1

#	End of record

