#	Name: ASD03910105
#	Creating user name:	WinNT
#	Creation time:	15. 06. 2019 20:47

#	Modifying user name:	WinNT
#	Modification time:	15. 06. 2019 20:47

#	Program:	/corina/corina34_cracker 3.40 0067  02.08.2006

@<TRIPOS>MOLECULE
ASD03910105
  58   59    0    0    0
SMALL
NO_CHARGES


@<TRIPOS>ATOM
   1 C1            -0.0173     1.4248     0.0099 C.3     
   2 O2             0.0021    -0.0041     0.0020 O.3     
   3 C3            -1.1961    -0.6353     0.0101 C.ar    
   4 C4            -1.2501    -2.0393     0.0030 C.ar    
   5 C5            -2.4842    -2.6837     0.0114 C.ar    
   6 C6            -3.6590    -1.9294     0.0266 C.ar    
   7 C7            -3.5918    -0.5288     0.0335 C.ar    
   8 C8            -2.3715     0.1061     0.0310 C.ar    
   9 C9            -4.9647    -2.6028     0.0350 C.2     
  10 O10           -5.9850    -1.9472     0.0483 O.2     
  11 C11           -0.0040    -2.8275    -0.0136 C.2     
  12 O12            1.0719    -2.2630    -0.0212 O.2     
  13 O13           -0.0585    -4.1738    -0.0203 O.3     
  14 O14            5.6426     9.5615    -0.0005 O.3     
  15 C15            6.8408    10.1926    -0.0085 C.ar    
  16 C16            6.8948    11.5967    -0.0015 C.ar    
  17 C17            8.1288    12.2411    -0.0098 C.ar    
  18 C18            9.3037    11.4868    -0.0251 C.ar    
  19 C19            9.2365    10.0862    -0.0320 C.ar    
  20 C20            8.0163     9.4512    -0.0180 C.ar    
  21 C21           10.6094    12.1602    -0.0344 C.2     
  22 O22           11.6297    11.5046    -0.0477 O.2     
  23 C23            5.6487    12.3849     0.0141 C.2     
  24 O24            4.5728    11.8204     0.0210 O.2     
  25 O25            5.7032    13.7312     0.0209 O.3     
  26 C26            1.4181     1.9544    -0.0010 C.3     
  27 C27            1.3973     3.4842     0.0074 C.3     
  28 C28            2.8327     4.0138    -0.0034 C.3     
  29 C29            2.8120     5.5436     0.0050 C.3     
  30 C30            4.2474     6.0732    -0.0059 C.3     
  31 C31            5.6620     8.1326    -0.0083 C.3     
  32 C32            4.2266     7.6030     0.0025 C.3     
  33 H33           -0.5445     1.7859    -0.8732 H       
  34 H34           -0.5275     1.7763     0.9067 H       
  35 H35           -2.5325    -3.7626     0.0057 H       
  36 H36           -4.5013     0.0535     0.0453 H       
  37 H37           -2.3266     1.1851     0.0412 H       
  38 H38           -5.0160    -3.6815     0.0293 H       
  39 H39            0.7846    -4.6473    -0.0312 H       
  40 H40            8.1772    13.3200    -0.0048 H       
  41 H41           10.1460     9.5039    -0.0438 H       
  42 H42            7.9715     8.3722    -0.0185 H       
  43 H43           10.6607    13.2389    -0.0295 H       
  44 H44            4.8601    14.2047     0.0311 H       
  45 H45            1.9453     1.5933     0.8821 H       
  46 H46            1.9283     1.6028    -0.8978 H       
  47 H47            0.8701     3.8453    -0.8756 H       
  48 H48            0.8871     3.8357     0.9042 H       
  49 H49            3.3599     3.6527     0.8796 H       
  50 H50            3.3429     3.6623    -0.9002 H       
  51 H51            2.2848     5.9047    -0.8781 H       
  52 H52            2.3018     5.8951     0.9018 H       
  53 H53            4.7745     5.7121     0.8772 H       
  54 H54            4.7575     5.7217    -0.9027 H       
  55 H55            6.1722     7.7811    -0.9051 H       
  56 H56            6.1892     7.7715     0.8747 H       
  57 H57            3.6994     7.9641    -0.8805 H       
  58 H58            3.7164     7.9546     0.8993 H       
@<TRIPOS>BOND
   1    1    2 1
   2    1   26 1
   3    1   33 1
   4    1   34 1
   5    2    3 1
   6    3    4 ar
   7    3    8 ar
   8    4    5 ar
   9    4   11 1
  10    5    6 ar
  11    5   35 1
  12    6    7 ar
  13    6    9 1
  14    7    8 ar
  15    7   36 1
  16    8   37 1
  17    9   10 2
  18    9   38 1
  19   11   12 2
  20   11   13 1
  21   13   39 1
  22   14   15 1
  23   14   31 1
  24   15   16 ar
  25   15   20 ar
  26   16   17 ar
  27   16   23 1
  28   17   18 ar
  29   17   40 1
  30   18   19 ar
  31   18   21 1
  32   19   20 ar
  33   19   41 1
  34   20   42 1
  35   21   22 2
  36   21   43 1
  37   23   24 2
  38   23   25 1
  39   25   44 1
  40   26   27 1
  41   26   45 1
  42   26   46 1
  43   27   28 1
  44   27   47 1
  45   27   48 1
  46   28   29 1
  47   28   49 1
  48   28   50 1
  49   29   30 1
  50   29   51 1
  51   29   52 1
  52   30   32 1
  53   30   53 1
  54   30   54 1
  55   31   32 1
  56   31   55 1
  57   31   56 1
  58   32   57 1
  59   32   58 1

#	End of record

