#	Name: ASD09116034
#	Creating user name:	WinNT
#	Creation time:	15. 06. 2019 21:20

#	Modifying user name:	WinNT
#	Modification time:	15. 06. 2019 21:20

#	Program:	/corina/corina34_cracker 3.40 0067  02.08.2006

@<TRIPOS>MOLECULE
ASD09116034
  78   85    0    0    0
SMALL
NO_CHARGES


@<TRIPOS>ATOM
   1 C1            -0.1991     1.3873     0.3727 C.ar    
   2 C2            -0.1627    -0.0043     0.3186 C.ar    
   3 C3            -1.3391    -0.6974     0.1694 C.ar    
   4 N4            -2.4749    -0.0022     0.0823 N.ar    
   5 N5            -2.5114     1.2802     0.1322 N.ar    
   6 C6            -1.4147     2.0284     0.2811 C.ar    
   7 N7            -1.3464    -2.0916     0.1099 N.pl3   
   8 N8            -0.2322    -2.9427     0.1883 N.2     
   9 C9            -0.6812    -4.1711     0.0913 C.2     
  10 N10           -2.0123    -4.1396    -0.0432 N.2     
  11 C11           -2.4296    -2.8918    -0.0288 C.2     
  12 N12            0.1025    -5.3247     0.1233 N.pl3   
  13 C13           -0.5057    -6.5828     0.1194 C.ar    
  14 C14            0.1254    -7.6588    -0.4926 C.ar    
  15 C15           -1.7400    -6.7611     0.7325 C.ar    
  16 C16           -2.3326    -8.0103     0.7225 C.ar    
  17 C17           -1.7097    -9.0688     0.1131 C.ar    
  18 C18           -0.4770    -8.9020    -0.4952 C.ar    
  19 N19           -3.7411    -2.4719    -0.1435 N.pl3   
  20 C20            1.1589     2.0226     0.5372 C.3     
  21 C21            1.7811     1.4515     1.8233 C.3     
  22 C22            1.8209    -0.0755     1.7646 C.3     
  23 C23            1.2273    -0.5780     0.4371 C.3     
  24 C24            2.0322     1.5528    -0.6392 C.3     
  25 C25            2.0725     0.0258    -0.6978 C.3     
  26 C26           -1.5023     3.5081     0.3340 C.ar    
  27 C27           -2.4854     4.1423     1.0992 C.ar    
  28 C28           -2.5312     5.5212     1.1203 C.ar    
  29 N29           -1.6642     6.2382     0.4316 N.ar    
  30 C30           -0.7215     5.6794    -0.3027 C.ar    
  31 C31           -0.6006     4.3067    -0.3754 C.ar    
  32 C32           -3.6789    -8.2014     1.3899 C.3     
  33 C33           -3.4774    -9.0341     2.6583 C.3     
  34 C34           -3.5006   -10.5166     2.3424 C.3     
  35 C35           -2.3189   -11.0022     1.5265 C.3     
  36 C36           -2.3650   -10.4346     0.1054 C.3     
  37 N37           -3.5309   -11.2622     3.6078 N.3     
  38 C38           -3.6744   -12.7094     3.3651 C.3     
  39 C39           -2.4801   -13.4082     4.0483 C.3     
  40 C40           -2.0368   -12.3761     5.1184 C.3     
  41 C41           -2.2944   -11.0357     4.3860 C.3     
  42 H42            1.0695    -5.2535     0.1483 H       
  43 H43            1.0864    -7.5232    -0.9664 H       
  44 H44           -2.2329    -5.9295     1.2140 H       
  45 H45            0.0093    -9.7391    -0.9739 H       
  46 H46           -4.4519    -3.1239    -0.2464 H       
  47 H47           -3.9509    -1.5251    -0.1213 H       
  48 H48            1.0841     3.1090     0.5830 H       
  49 H49            2.7956     1.8345     1.9337 H       
  50 H50            1.1857     1.7639     2.6812 H       
  51 H51            2.8541    -0.4126     1.8479 H       
  52 H52            1.2439    -0.4832     2.5947 H       
  53 H53            1.2098    -1.6672     0.3992 H       
  54 H54            1.6192     1.9385    -1.5712 H       
  55 H55            3.0449     1.9354    -0.5116 H       
  56 H56            3.1041    -0.3117    -0.5977 H       
  57 H57            1.6786    -0.3085    -1.6576 H       
  58 H58           -3.1986     3.5615     1.6652 H       
  59 H59           -3.2873     6.0202     1.7083 H       
  60 H60           -0.0324     6.3046    -0.8511 H       
  61 H61            0.1736     3.8559    -0.9786 H       
  62 H62           -4.0990    -7.2304     1.6521 H       
  63 H63           -4.3530    -8.7244     0.7116 H       
  64 H64           -2.5171    -8.7783     3.1059 H       
  65 H65           -4.2739    -8.8063     3.3666 H       
  66 H66           -4.4151   -10.7387     1.7925 H       
  67 H67           -1.3951   -10.6840     2.0096 H       
  68 H68           -2.3402   -12.0909     1.4781 H       
  69 H69           -3.4016   -10.3419    -0.2187 H       
  70 H70           -1.8243   -11.0965    -0.5712 H       
  71 H71           -4.6094   -13.0668     3.7965 H       
  72 H72           -3.6576   -12.9092     2.2937 H       
  73 H73           -2.7960   -14.3394     4.5185 H       
  74 H74           -1.6785   -13.5893     3.3322 H       
  75 H75           -2.6512   -12.4554     6.0153 H       
  76 H76           -0.9802   -12.4927     5.3592 H       
  77 H77           -1.4642   -10.8017     3.7196 H       
  78 H78           -2.4417   -10.2315     5.1070 H       
@<TRIPOS>BOND
   1    1    2 ar
   2    1   20 1
   3    1    6 ar
   4    2    3 ar
   5    2   23 1
   6    3    4 ar
   7    3    7 1
   8    4    5 ar
   9    5    6 ar
  10    6   26 1
  11    7    8 1
  12    7   11 1
  13    8    9 2
  14    9   10 1
  15    9   12 1
  16   10   11 2
  17   11   19 1
  18   12   13 1
  19   12   42 1
  20   13   14 ar
  21   13   15 ar
  22   14   18 ar
  23   14   43 1
  24   15   16 ar
  25   15   44 1
  26   16   17 ar
  27   16   32 1
  28   17   18 ar
  29   17   36 1
  30   18   45 1
  31   19   46 1
  32   19   47 1
  33   20   21 1
  34   20   24 1
  35   20   48 1
  36   21   22 1
  37   21   49 1
  38   21   50 1
  39   22   23 1
  40   22   51 1
  41   22   52 1
  42   23   25 1
  43   23   53 1
  44   24   25 1
  45   24   54 1
  46   24   55 1
  47   25   56 1
  48   25   57 1
  49   26   27 ar
  50   26   31 ar
  51   27   28 ar
  52   27   58 1
  53   28   29 ar
  54   28   59 1
  55   29   30 ar
  56   30   31 ar
  57   30   60 1
  58   31   61 1
  59   32   33 1
  60   32   62 1
  61   32   63 1
  62   33   34 1
  63   33   64 1
  64   33   65 1
  65   34   35 1
  66   34   37 1
  67   34   66 1
  68   35   36 1
  69   35   67 1
  70   35   68 1
  71   36   69 1
  72   36   70 1
  73   37   38 1
  74   37   41 1
  75   38   39 1
  76   38   71 1
  77   38   72 1
  78   39   40 1
  79   39   73 1
  80   39   74 1
  81   40   41 1
  82   40   75 1
  83   40   76 1
  84   41   77 1
  85   41   78 1

#	End of record

