#	Name: ASD08070257
#	Creating user name:	WinNT
#	Creation time:	15. 06. 2019 21:14

#	Modifying user name:	WinNT
#	Modification time:	15. 06. 2019 21:14

#	Program:	/corina/corina34_cracker 3.40 0067  02.08.2006

@<TRIPOS>MOLECULE
ASD08070257
  42   43    0    0    0
SMALL
NO_CHARGES


@<TRIPOS>ATOM
   1 C1            -0.0158     1.3175     0.0093 C.ar    
   2 N2             0.0021    -0.0041     0.0078 N.ar    
   3 C3             1.1231    -0.7020    -0.0064 C.ar    
   4 C4             2.3505    -0.1015    -0.0205 C.ar    
   5 C5             2.4187     1.3026    -0.0200 C.ar    
   6 C6             3.6406     1.9922    -0.0335 C.ar    
   7 C7             3.6411     3.3542    -0.0318 C.ar    
   8 C8             2.4466     4.0724    -0.0168 C.ar    
   9 C9             1.2426     3.4346    -0.0030 C.ar    
  10 C10            1.2027     2.0343    -0.0047 C.ar    
  11 C11           -1.3051     2.0434     0.0194 C.2     
  12 O12           -1.3197     3.2547     0.1177 O.2     
  13 N13           -2.4632     1.3613    -0.0806 N.am    
  14 C14           -5.4854     0.2740    -2.9889 C.3     
  15 C15           -4.4247     1.1084    -2.2682 C.3     
  16 C16           -4.8005     1.2456    -0.7914 C.3     
  17 C17           -3.7398     2.0800    -0.0706 C.3     
  18 C18           -4.1773     2.3224     1.3753 C.3     
  19 C19           -3.1800     3.2593     2.0597 C.3     
  20 C20           -3.6175     3.5016     3.5057 C.3     
  21 H21            1.0681    -1.7806    -0.0064 H       
  22 H22            3.2525    -0.6953    -0.0316 H       
  23 H23            4.5731     1.4474    -0.0448 H       
  24 H24            4.5812     3.8858    -0.0418 H       
  25 H25            2.4759     5.1520    -0.0159 H       
  26 H26            0.3254     4.0047     0.0085 H       
  27 H27           -2.4515     0.3946    -0.1591 H       
  28 H28           -5.2177     0.1763    -4.0410 H       
  29 H29           -5.5401    -0.7153    -2.5345 H       
  30 H30           -6.4542     0.7665    -2.9047 H       
  31 H31           -3.4560     0.6159    -2.3524 H       
  32 H32           -4.3701     2.0977    -2.7226 H       
  33 H33           -5.7692     1.7381    -0.7072 H       
  34 H34           -4.8551     0.2563    -0.3370 H       
  35 H35           -3.6222     3.0366    -0.5798 H       
  36 H36           -5.1678     2.7772     1.3838 H       
  37 H37           -4.2090     1.3727     1.9094 H       
  38 H38           -2.1895     2.8044     2.0513 H       
  39 H39           -3.1483     4.2090     1.5257 H       
  40 H40           -4.6080     3.9565     3.5141 H       
  41 H41           -3.6492     2.5520     4.0397 H       
  42 H42           -2.9070     4.1691     3.9933 H       
@<TRIPOS>BOND
   1    1    2 ar
   2    1   10 ar
   3    1   11 1
   4    2    3 ar
   5    3    4 ar
   6    3   21 1
   7    4    5 ar
   8    4   22 1
   9    5    6 ar
  10    5   10 ar
  11    6    7 ar
  12    6   23 1
  13    7    8 ar
  14    7   24 1
  15    8    9 ar
  16    8   25 1
  17    9   10 ar
  18    9   26 1
  19   11   12 2
  20   11   13 am
  21   13   17 1
  22   13   27 1
  23   14   15 1
  24   14   28 1
  25   14   29 1
  26   14   30 1
  27   15   16 1
  28   15   31 1
  29   15   32 1
  30   16   17 1
  31   16   33 1
  32   16   34 1
  33   17   18 1
  34   17   35 1
  35   18   19 1
  36   18   36 1
  37   18   37 1
  38   19   20 1
  39   19   38 1
  40   19   39 1
  41   20   40 1
  42   20   41 1
  43   20   42 1

#	End of record

