#	Name: ASD04880145
#	Creating user name:	WinNT
#	Creation time:	15. 06. 2019 20:52

#	Modifying user name:	WinNT
#	Modification time:	15. 06. 2019 20:52

#	Program:	/corina/corina34_cracker 3.40 0067  02.08.2006

@<TRIPOS>MOLECULE
ASD04880145
  57   59    0    0    0
SMALL
NO_CHARGES


@<TRIPOS>ATOM
   1 C1            -0.1099     1.0514     0.0811 C.2     
   2 O2            -0.0447    -0.1598    -0.0048 O.2     
   3 C3             1.1267     1.8608     0.0680 C.ar    
   4 C4             2.3735     1.2354     0.1087 C.ar    
   5 C5             3.5274     2.0003     0.0962 C.ar    
   6 C6             3.4427     3.3853     0.0438 C.ar    
   7 C7             2.2082     4.0064     0.0040 C.ar    
   8 C8             1.0517     3.2535     0.0093 C.ar    
   9 O9             4.7438     1.3952     0.1356 O.3     
  10 C10            5.8909     2.2343    -0.0132 C.3     
  11 C11            6.3975     2.6553     1.3677 C.3     
  12 C12            6.9919     1.4673    -0.7484 C.3     
  13 N13           -1.3101     1.6560     0.1826 N.am    
  14 N14           -1.5163     3.0175     0.3959 N.2     
  15 C15           -2.7574     3.3588     0.4566 C.2     
  16 C16           -3.6271     2.1359     0.2714 C.3     
  17 C17           -2.6169     0.9873     0.0798 C.3     
  18 C18           -4.4895     1.8977     1.5125 C.3     
  19 C19           -4.5046     2.2849    -0.9730 C.3     
  20 C20           -3.2529     4.7300     0.6737 C.ar    
  21 C21           -2.3494     5.7846     0.8325 C.ar    
  22 C22           -2.8194     7.0681     1.0352 C.ar    
  23 C23           -4.1912     7.3089     1.0811 C.ar    
  24 C24           -5.0881     6.2627     0.9241 C.ar    
  25 C25           -4.6267     4.9797     0.7155 C.ar    
  26 O26           -4.6515     8.5723     1.2806 O.3     
  27 C27           -6.0692     8.7482     1.3166 C.3     
  28 O28           -1.9430     8.0964     1.1905 O.3     
  29 C29           -0.5514     7.7771     1.1328 C.3     
  30 H30            2.4381     0.1581     0.1501 H       
  31 H31            4.3445     3.9795     0.0346 H       
  32 H32            2.1488     5.0840    -0.0359 H       
  33 H33            0.0890     3.7417    -0.0268 H       
  34 H34            5.6206     3.1209    -0.5869 H       
  35 H35            6.6678     1.7688     1.9414 H       
  36 H36            7.2724     3.2953     1.2542 H       
  37 H37            5.6131     3.2017     1.8914 H       
  38 H38            6.6310     1.1674    -1.7322 H       
  39 H39            7.8669     2.1074    -0.8619 H       
  40 H40            7.2622     0.5808    -0.1747 H       
  41 H41           -2.7367     0.5282    -0.9015 H       
  42 H42           -2.7303     0.2437     0.8688 H       
  43 H43           -5.1472     2.7529     1.6676 H       
  44 H44           -5.0896     0.9988     1.3709 H       
  45 H45           -3.8461     1.7715     2.3833 H       
  46 H46           -3.8718     2.4308    -1.8485 H       
  47 H47           -5.1046     1.3845    -1.1044 H       
  48 H48           -5.1625     3.1456    -0.8527 H       
  49 H49           -1.2864     5.5966     0.7971 H       
  50 H50           -6.1505     6.4538     0.9610 H       
  51 H51           -5.3273     4.1677     0.5888 H       
  52 H52           -6.4888     8.1522     2.1271 H       
  53 H53           -6.3007     9.8004     1.4819 H       
  54 H54           -6.4995     8.4261     0.3684 H       
  55 H55           -0.3192     7.3385     0.1623 H       
  56 H56            0.0357     8.6850     1.2710 H       
  57 H57           -0.3091     7.0643     1.9210 H       
@<TRIPOS>BOND
   1    1    2 2
   2    1    3 1
   3    1   13 am
   4    3    4 ar
   5    3    8 ar
   6    4    5 ar
   7    4   30 1
   8    5    6 ar
   9    5    9 1
  10    6    7 ar
  11    6   31 1
  12    7    8 ar
  13    7   32 1
  14    8   33 1
  15    9   10 1
  16   10   11 1
  17   10   12 1
  18   10   34 1
  19   11   35 1
  20   11   36 1
  21   11   37 1
  22   12   38 1
  23   12   39 1
  24   12   40 1
  25   13   14 1
  26   13   17 1
  27   14   15 2
  28   15   16 1
  29   15   20 1
  30   16   17 1
  31   16   18 1
  32   16   19 1
  33   17   41 1
  34   17   42 1
  35   18   43 1
  36   18   44 1
  37   18   45 1
  38   19   46 1
  39   19   47 1
  40   19   48 1
  41   20   21 ar
  42   20   25 ar
  43   21   22 ar
  44   21   49 1
  45   22   23 ar
  46   22   28 1
  47   23   24 ar
  48   23   26 1
  49   24   25 ar
  50   24   50 1
  51   25   51 1
  52   26   27 1
  53   27   52 1
  54   27   53 1
  55   27   54 1
  56   28   29 1
  57   29   55 1
  58   29   56 1
  59   29   57 1

#	End of record

