#	Name: ASD08070037
#	Creating user name:	WinNT
#	Creation time:	15. 06. 2019 21:14

#	Modifying user name:	WinNT
#	Modification time:	15. 06. 2019 21:14

#	Program:	/corina/corina34_cracker 3.40 0067  02.08.2006

@<TRIPOS>MOLECULE
ASD08070037
  41   42    0    0    0
SMALL
NO_CHARGES


@<TRIPOS>ATOM
   1 C1            -0.0168     1.3852     0.0097 C.ar    
   2 C2             0.0021    -0.0041     0.0020 C.ar    
   3 C3             1.1958    -0.6896    -0.0130 C.ar    
   4 C4             2.3976     0.0133    -0.0207 C.ar    
   5 C5             2.3758     1.4216    -0.0130 C.ar    
   6 C6             1.1478     2.0960     0.0024 C.ar    
   7 N7             3.7157    -0.3772    -0.0358 N.pl3   
   8 C8             4.5138     0.7505    -0.0377 C.2     
   9 C9             3.7235     1.8555    -0.0239 C.2     
  10 C10            5.9843     0.7541    -0.0522 C.2     
  11 N11            6.6610    -0.4114    -0.0651 N.am    
  12 O12            6.5899     1.8091    -0.0525 O.2     
  13 C13            8.1259    -0.4077    -0.0795 C.3     
  14 C14            8.6373    -1.6973     0.5090 C.2     
  15 C15            8.6214    -0.2730    -1.5208 C.3     
  16 C16            8.2077     1.0910    -2.0770 C.3     
  17 C17            8.9223     2.1973    -1.2982 C.3     
  18 C18            8.5931     1.1772    -3.5551 C.3     
  19 O19            7.8581    -2.5337     0.9004 O.2     
  20 O20            9.9585    -1.9169     0.5984 O.3     
  21 C21           10.3791    -3.1809     1.1760 C.3     
  22 H22           -0.9621     1.9073     0.0169 H       
  23 H23           -0.9289    -0.5515     0.0083 H       
  24 H24            1.2000    -1.7696    -0.0185 H       
  25 H25            1.1231     3.1757     0.0080 H       
  26 H26            4.0332    -1.2937    -0.0436 H       
  27 H27            4.0624     2.8810    -0.0221 H       
  28 H28            6.1781    -1.2526    -0.0648 H       
  29 H29            8.4930     0.4318     0.5108 H       
  30 H30            9.7078    -0.3594    -1.5411 H       
  31 H31            8.1827    -1.0624    -2.1311 H       
  32 H32            7.1294     1.2131    -1.9749 H       
  33 H33           10.0006     2.0751    -1.4003 H       
  34 H34            8.6276     3.1690    -1.6944 H       
  35 H35            8.6478     2.1358    -0.2452 H       
  36 H36            8.0840     0.3891    -4.1099 H       
  37 H37            8.2984     2.1490    -3.9513 H       
  38 H38            9.6714     1.0551    -3.6572 H       
  39 H39            9.9996    -3.2590     2.1948 H       
  40 H40            9.9855    -4.0026     0.5777 H       
  41 H41           11.4679    -3.2301     1.1891 H       
@<TRIPOS>BOND
   1    1    2 ar
   2    1    6 ar
   3    1   22 1
   4    2    3 ar
   5    2   23 1
   6    3    4 ar
   7    3   24 1
   8    4    5 ar
   9    4    7 1
  10    5    6 ar
  11    5    9 1
  12    6   25 1
  13    7    8 1
  14    7   26 1
  15    8    9 2
  16    8   10 1
  17    9   27 1
  18   10   11 am
  19   10   12 2
  20   11   13 1
  21   11   28 1
  22   13   14 1
  23   13   15 1
  24   13   29 1
  25   14   19 2
  26   14   20 1
  27   15   16 1
  28   15   30 1
  29   15   31 1
  30   16   17 1
  31   16   18 1
  32   16   32 1
  33   17   33 1
  34   17   34 1
  35   17   35 1
  36   18   36 1
  37   18   37 1
  38   18   38 1
  39   20   21 1
  40   21   39 1
  41   21   40 1
  42   21   41 1

#	End of record

