#	Name: ASD03092516
#	Creating user name:	WinNT
#	Creation time:	15. 06. 2019 20:32

#	Modifying user name:	WinNT
#	Modification time:	15. 06. 2019 20:32

#	Program:	/corina/corina34_cracker 3.40 0067  02.08.2006

@<TRIPOS>MOLECULE
ASD03092516
  33   35    0    0    0
SMALL
NO_CHARGES


@<TRIPOS>ATOM
   1 O1            -0.0160     1.3323     0.0094 O.3     
   2 C2             0.0021    -0.0041     0.0020 C.2     
   3 C3             1.3022    -0.4169    -0.0126 C.2     
   4 C4             2.1079     0.8128    -0.0137 C.2     
   5 C5             1.2311     1.8283     0.0001 C.2     
   6 C6             1.7959    -1.8055    -0.0248 C.2     
   7 O7             2.9919    -2.0256    -0.0369 O.2     
   8 N8             0.9219    -2.8315    -0.0225 N.am    
   9 C9             1.4126    -4.2118    -0.0345 C.3     
  10 N10           -2.9576    -7.7564    -0.2874 N.pl3   
  11 C11           -3.1010    -7.8550    -1.6446 C.2     
  12 C12           -2.1786    -7.0972    -2.2585 C.2     
  13 C13           -1.3790    -6.4614    -1.2086 C.ar    
  14 C14           -0.2949    -5.5814    -1.2129 C.ar    
  15 C15            0.2423    -5.1611    -0.0291 C.ar    
  16 C16           -0.2812    -5.6019     1.1788 C.ar    
  17 C17           -1.3501    -6.4703     1.2062 C.ar    
  18 C18           -1.9128    -6.9113     0.0127 C.ar    
  19 C19           -4.1403    -8.6908    -2.3462 C.3     
  20 H20           -0.8652    -0.6477     0.0068 H       
  21 H21            3.1855     0.8842    -0.0231 H       
  22 H22            1.4878     2.8774     0.0030 H       
  23 H23           -0.0320    -2.6560    -0.0128 H       
  24 H24            2.0103    -4.3771    -0.9310 H       
  25 H25            2.0266    -4.3869     0.8489 H       
  26 H26           -3.5120    -8.2108     0.3660 H       
  27 H27           -2.0502    -6.9788    -3.3243 H       
  28 H28            0.1182    -5.2350    -2.1487 H       
  29 H29            0.1542    -5.2607     2.1064 H       
  30 H30           -1.7500    -6.8078     2.1510 H       
  31 H31           -5.0391    -8.0949    -2.5052 H       
  32 H32           -3.7502    -9.0236    -3.3081 H       
  33 H33           -4.3834    -9.5585    -1.7329 H       
@<TRIPOS>BOND
   1    1    2 1
   2    1    5 1
   3    2    3 2
   4    2   20 1
   5    3    4 1
   6    3    6 1
   7    4    5 2
   8    4   21 1
   9    5   22 1
  10    6    7 2
  11    6    8 am
  12    8    9 1
  13    8   23 1
  14    9   15 1
  15    9   24 1
  16    9   25 1
  17   10   11 1
  18   10   18 1
  19   10   26 1
  20   11   12 2
  21   11   19 1
  22   12   13 1
  23   12   27 1
  24   13   14 ar
  25   13   18 ar
  26   14   15 ar
  27   14   28 1
  28   15   16 ar
  29   16   17 ar
  30   16   29 1
  31   17   18 ar
  32   17   30 1
  33   19   31 1
  34   19   32 1
  35   19   33 1

#	End of record

