#	Name: ASD01810558
#	Creating user name:	WinNT
#	Creation time:	15. 06. 2019 19:24

#	Modifying user name:	WinNT
#	Modification time:	15. 06. 2019 19:24

#	Program:	/corina/corina34_cracker 3.40 0067  02.08.2006

@<TRIPOS>MOLECULE
ASD01810558
  53   57    0    0    0
SMALL
NO_CHARGES


@<TRIPOS>ATOM
   1 C1             0.0118     1.6643     0.3728 C.ar    
   2 C2            -0.0358     0.2970     0.5501 C.ar    
   3 C3             1.1322    -0.4489     0.5354 C.ar    
   4 C4             2.3537     0.1619     0.3441 C.ar    
   5 C5             2.4234     1.5391     0.1635 C.ar    
   6 C6             1.2380     2.2920     0.1789 C.ar    
   7 N7             3.6464     2.1582    -0.0294 N.pl3   
   8 C8             3.7754     3.4826    -0.2086 C.2     
   9 C9             2.6876     4.3200    -0.2120 C.2     
  10 C10            1.3346     3.7518    -0.0147 C.2     
  11 C11            2.4778     5.7553    -0.3734 C.2     
  12 N12            1.1457     5.9541    -0.2738 N.am    
  13 N13            0.4888     4.7397    -0.0599 N.2     
  14 C14            0.4839     7.2572    -0.3759 C.3     
  15 C15            0.1257     7.5273    -1.8145 C.ar    
  16 O16            3.3339     6.6049    -0.5601 O.2     
  17 C17            4.8552     1.3305    -0.0379 C.3     
  18 C18            5.3628     1.1681     1.3717 C.ar    
  19 C19            0.9253     8.3526    -2.5826 C.ar    
  20 C20            0.5966     8.6004    -3.9024 C.ar    
  21 C21           -0.5313     8.0226    -4.4540 C.ar    
  22 C22           -1.3307     7.1964    -3.6860 C.ar    
  23 C23           -0.9997     6.9451    -2.3678 C.ar    
  24 C24           -1.8710     6.0445    -1.5306 C.3     
  25 C25           -0.8901     8.2936    -5.8923 C.3     
  26 C26            5.1507    -0.0166     2.0504 C.ar    
  27 C27            5.6159    -0.1658     3.3439 C.ar    
  28 C28            6.2934     0.8699     3.9596 C.ar    
  29 C29            6.5071     2.0557     3.2824 C.ar    
  30 C30            6.0468     2.2041     1.9853 C.ar    
  31 F31            6.2554     3.3626     1.3223 F       
  32 H32           -0.8993     2.2441     0.3800 H       
  33 H33           -0.9860    -0.1936     0.7011 H       
  34 H34            1.0852    -1.5188     0.6754 H       
  35 H35            3.2572    -0.4298     0.3350 H       
  36 H36            4.7609     3.9000    -0.3534 H       
  37 H37           -0.4224     7.2528     0.2296 H       
  38 H38            1.1570     8.0356    -0.0167 H       
  39 H39            4.6219     0.3510    -0.4552 H       
  40 H40            5.6207     1.8118    -0.6466 H       
  41 H41            1.8067     8.8041    -2.1516 H       
  42 H42            1.2211     9.2459    -4.5023 H       
  43 H43           -2.2122     6.7452    -4.1168 H       
  44 H44           -1.5245     5.0152    -1.6233 H       
  45 H45           -1.8162     6.3537    -0.4868 H       
  46 H46           -2.9025     6.1132    -1.8762 H       
  47 H47           -0.4180     7.5474    -6.5313 H       
  48 H48           -1.9722     8.2427    -6.0126 H       
  49 H49           -0.5396     9.2868    -6.1733 H       
  50 H50            4.6212    -0.8264     1.5705 H       
  51 H51            5.4494    -1.0920     3.8738 H       
  52 H52            6.6557     0.7525     4.9702 H       
  53 H53            7.0362     2.8649     3.7638 H       
@<TRIPOS>BOND
   1    1    2 ar
   2    1    6 ar
   3    1   32 1
   4    2    3 ar
   5    2   33 1
   6    3    4 ar
   7    3   34 1
   8    4    5 ar
   9    4   35 1
  10    5    6 ar
  11    5    7 1
  12    6   10 1
  13    7    8 1
  14    7   17 1
  15    8    9 2
  16    8   36 1
  17    9   10 1
  18    9   11 1
  19   10   13 2
  20   11   12 am
  21   11   16 2
  22   12   13 1
  23   12   14 1
  24   14   15 1
  25   14   37 1
  26   14   38 1
  27   15   19 ar
  28   15   23 ar
  29   17   18 1
  30   17   39 1
  31   17   40 1
  32   18   26 ar
  33   18   30 ar
  34   19   20 ar
  35   19   41 1
  36   20   21 ar
  37   20   42 1
  38   21   22 ar
  39   21   25 1
  40   22   23 ar
  41   22   43 1
  42   23   24 1
  43   24   44 1
  44   24   45 1
  45   24   46 1
  46   25   47 1
  47   25   48 1
  48   25   49 1
  49   26   27 ar
  50   26   50 1
  51   27   28 ar
  52   27   51 1
  53   28   29 ar
  54   28   52 1
  55   29   30 ar
  56   29   53 1
  57   30   31 1

#	End of record

