#	Name: ASD01230255
#	Creating user name:	WinNT
#	Creation time:	15. 06. 2019 19:12

#	Modifying user name:	WinNT
#	Modification time:	15. 06. 2019 19:12

#	Program:	/corina/corina34_cracker 3.40 0067  02.08.2006

@<TRIPOS>MOLECULE
ASD01230255
  39   41    0    0    0
SMALL
NO_CHARGES


@<TRIPOS>ATOM
   1 C1            -0.0169     1.3979     0.0097 C.ar    
   2 C2             0.0021    -0.0041     0.0020 C.ar    
   3 C3             1.2322    -0.6607    -0.0133 C.ar    
   4 C4             2.3888     0.1055    -0.0203 C.ar    
   5 C5             2.2901     1.4841    -0.0119 C.ar    
   6 N6             1.1140     2.0836     0.0026 N.ar    
   7 C7            -2.2598    -0.4890     0.9414 C.ar    
   8 C8            -1.2645    -0.7755     0.0105 C.ar    
   9 C9            -1.4769    -1.8012    -0.9169 C.ar    
  10 C10           -2.6731    -2.4917    -0.8701 C.ar    
  11 C11           -3.6184    -2.1476     0.0886 C.ar    
  12 N12           -3.3869    -1.1720     0.9518 N.ar    
  13 N13           -1.2318     2.0711     0.0191 N.pl3   
  14 O14           -4.7951    -2.8211     0.1398 O.3     
  15 C15           -5.7274    -2.4224     1.1468 C.3     
  16 C16           -7.1525    -2.6789     0.6526 C.3     
  17 C17           -8.1507    -2.2521     1.7307 C.3     
  18 C18           -7.9001    -3.0594     3.0060 C.3     
  19 C19           -6.4750    -2.8029     3.5002 C.3     
  20 C20           -5.4768    -3.2297     2.4221 C.3     
  21 Cl21           3.9465    -0.6607    -0.0388 Cl      
  22 H22            1.2833    -1.7395    -0.0192 H       
  23 H23            3.1902     2.0809    -0.0174 H       
  24 H24           -2.1047     0.2978     1.6648 H       
  25 H25           -0.7245    -2.0473    -1.6516 H       
  26 H26           -2.8711    -3.2893    -1.5708 H       
  27 H27           -2.0632     1.5715     0.0204 H       
  28 H28           -1.2487     3.0410     0.0245 H       
  29 H29           -5.6018    -1.3606     1.3583 H       
  30 H30           -7.3310    -2.1038    -0.2560 H       
  31 H31           -7.2781    -3.7408     0.4410 H       
  32 H32           -8.0251    -1.1903     1.9423 H       
  33 H33           -9.1660    -2.4349     1.3786 H       
  34 H34           -8.6113    -2.7553     3.7741 H       
  35 H35           -8.0257    -4.1212     2.7945 H       
  36 H36           -6.3494    -1.7410     3.7118 H       
  37 H37           -6.2965    -3.3780     4.4088 H       
  38 H38           -5.6024    -4.2916     2.2106 H       
  39 H39           -4.4616    -3.0470     2.7742 H       
@<TRIPOS>BOND
   1    1    2 ar
   2    1    6 ar
   3    1   13 1
   4    2    3 ar
   5    2    8 1
   6    3    4 ar
   7    3   22 1
   8    4    5 ar
   9    4   21 1
  10    5    6 ar
  11    5   23 1
  12    7    8 ar
  13    7   12 ar
  14    7   24 1
  15    8    9 ar
  16    9   10 ar
  17    9   25 1
  18   10   11 ar
  19   10   26 1
  20   11   12 ar
  21   11   14 1
  22   13   27 1
  23   13   28 1
  24   14   15 1
  25   15   16 1
  26   15   20 1
  27   15   29 1
  28   16   17 1
  29   16   30 1
  30   16   31 1
  31   17   18 1
  32   17   32 1
  33   17   33 1
  34   18   19 1
  35   18   34 1
  36   18   35 1
  37   19   20 1
  38   19   36 1
  39   19   37 1
  40   20   38 1
  41   20   39 1

#	End of record

