#	Name: ASD01912080
#	Creating user name:	WinNT
#	Creation time:	15. 06. 2019 19:59

#	Modifying user name:	WinNT
#	Modification time:	15. 06. 2019 19:59

#	Program:	/corina/corina34_cracker 3.40 0067  02.08.2006

@<TRIPOS>MOLECULE
ASD01912080
  61   65    0    0    0
SMALL
NO_CHARGES


@<TRIPOS>ATOM
   1 N1            -0.1345     1.7460    -0.2557 N.am    
   2 C2            -0.2028     0.2806    -0.3452 C.3     
   3 C3            -1.0076    -0.2463     0.8493 C.3     
   4 N4            -2.2601     0.5166     0.9450 N.am    
   5 C5            -2.1918     1.9819     1.0344 C.3     
   6 C6            -1.3868     2.5085    -0.1545 C.3     
   7 C7            -1.0715     3.9909     0.0551 C.3     
   8 C8            -2.1943     2.3286    -1.4415 C.3     
   9 C9             1.0554     2.3788    -0.2609 C.2     
  10 C10            2.3089     1.5963    -0.2174 C.2     
  11 O11            1.0979     3.5930    -0.3012 O.2     
  12 N12            2.4098     0.2575    -0.3089 N.2     
  13 C13            3.6809    -0.0432    -0.2281 C.2     
  14 N14            4.3646     1.1109    -0.0866 N.pl3   
  15 N15            3.5229     2.0865    -0.0881 N.2     
  16 C16            5.7557     1.2292     0.0358 C.ar    
  17 C17            6.5630     0.1059    -0.0869 C.ar    
  18 C18            6.3299     2.4704     0.2744 C.ar    
  19 C19            7.7014     2.5839     0.3941 C.ar    
  20 C20            8.5021     1.4629     0.2766 C.ar    
  21 C21            7.9334     0.2258     0.0338 C.ar    
  22 C22           -3.4500    -0.1163     0.9501 C.2     
  23 C23           -3.5018    -1.5969     0.9295 C.ar    
  24 O24           -4.4804     0.5275     0.9716 O.2     
  25 N25           -2.4136    -2.2975     1.2234 N.ar    
  26 C26           -2.4172    -3.6127     1.2172 C.ar    
  27 C27           -3.5660    -4.3198     0.9006 C.ar    
  28 C28           -4.7253    -3.6274     0.5872 C.ar    
  29 C29           -4.6938    -2.2420     0.6074 C.ar    
  30 C30           -1.1544    -4.3610     1.5586 C.3     
  31 C31           -0.9746    -4.8196     3.0071 C.3     
  32 C32           -1.2856    -5.8434     1.9135 C.3     
  33 C33            8.3255     3.9310     0.6525 C.3     
  34 H34           -0.6960    -0.0066    -1.2738 H       
  35 H35            0.8046    -0.1348    -0.3194 H       
  36 H36           -1.2329    -1.3024     0.7013 H       
  37 H37           -0.4301    -0.1177     1.7648 H       
  38 H38           -3.1992     2.3973     1.0086 H       
  39 H39           -1.6987     2.2691     1.9631 H       
  40 H40           -0.3217     4.0956     0.8392 H       
  41 H41           -0.6886     4.4156    -0.8729 H       
  42 H42           -1.9797     4.5176     0.3482 H       
  43 H43           -3.1299     2.8825    -1.3638 H       
  44 H44           -1.6186     2.7045    -2.2872 H       
  45 H45           -2.4099     1.2705    -1.5903 H       
  46 H46            4.1054    -1.0355    -0.2672 H       
  47 H47            6.1195    -0.8605    -0.2762 H       
  48 H48            5.7050     3.3465     0.3659 H       
  49 H49            9.5741     1.5541     0.3706 H       
  50 H50            8.5615    -0.6481    -0.0575 H       
  51 H51           -3.5581    -5.3997     0.8976 H       
  52 H52           -5.6334    -4.1555     0.3367 H       
  53 H53           -5.5785    -1.6705     0.3686 H       
  54 H54           -0.2623    -4.0504     1.0146 H       
  55 H55            0.0357    -4.8112     3.4160 H       
  56 H56           -1.7698    -4.5802     3.7131 H       
  57 H57           -2.2853    -6.2775     1.9000 H       
  58 H58           -0.4798    -6.5085     1.6029 H       
  59 H59            8.4008     4.0964     1.7273 H       
  60 H60            9.3210     3.9612     0.2097 H       
  61 H61            7.7062     4.7098     0.2076 H       
@<TRIPOS>BOND
   1    1    2 1
   2    1    9 am
   3    1    6 1
   4    2    3 1
   5    2   34 1
   6    2   35 1
   7    3    4 1
   8    3   36 1
   9    3   37 1
  10    4    5 1
  11    4   22 am
  12    5    6 1
  13    5   38 1
  14    5   39 1
  15    6    7 1
  16    6    8 1
  17    7   40 1
  18    7   41 1
  19    7   42 1
  20    8   43 1
  21    8   44 1
  22    8   45 1
  23    9   10 1
  24    9   11 2
  25   10   12 1
  26   10   15 2
  27   12   13 2
  28   13   14 1
  29   13   46 1
  30   14   15 1
  31   14   16 1
  32   16   17 ar
  33   16   18 ar
  34   17   21 ar
  35   17   47 1
  36   18   19 ar
  37   18   48 1
  38   19   20 ar
  39   19   33 1
  40   20   21 ar
  41   20   49 1
  42   21   50 1
  43   22   23 1
  44   22   24 2
  45   23   25 ar
  46   23   29 ar
  47   25   26 ar
  48   26   27 ar
  49   26   30 1
  50   27   28 ar
  51   27   51 1
  52   28   29 ar
  53   28   52 1
  54   29   53 1
  55   30   31 1
  56   30   32 1
  57   30   54 1
  58   31   32 1
  59   31   55 1
  60   31   56 1
  61   32   57 1
  62   32   58 1
  63   33   59 1
  64   33   60 1
  65   33   61 1

#	End of record

