#	Name: ASD09740066
#	Creating user name:	WinNT
#	Creation time:	15. 06. 2019 21:22

#	Modifying user name:	WinNT
#	Modification time:	15. 06. 2019 21:22

#	Program:	/corina/corina34_cracker 3.40 0067  02.08.2006

@<TRIPOS>MOLECULE
ASD09740066
  43   45    0    0    0
SMALL
NO_CHARGES


@<TRIPOS>ATOM
   1 N1            -0.0144     1.2085     0.0087 N.2     
   2 O2             0.0021    -0.0041     0.0020 O.3     
   3 C3             1.2060     1.6802    -0.0004 C.2     
   4 N4             2.0461     0.6245    -0.0141 N.2     
   5 C5             1.2702    -0.4440    -0.0125 C.2     
   6 C6             1.7127    -1.8530    -0.0235 C.ar    
   7 C7             1.5947     3.1129     0.0031 C.ar    
   8 C8             0.7691    -2.8832    -0.0201 C.ar    
   9 C9             3.0749    -2.1582    -0.0432 C.ar    
  10 C10            3.4866    -3.4742    -0.0544 C.ar    
  11 C11            2.5497    -4.4975    -0.0462 C.ar    
  12 C12            1.1881    -4.1996    -0.0310 C.ar    
  13 C13            0.6193     4.1130     0.0178 C.ar    
  14 C14            1.0334     5.4342     0.0211 C.ar    
  15 C15            2.3864     5.7189     0.0097 C.ar    
  16 N16            3.2844     4.7526    -0.0046 N.ar    
  17 C17            2.9381     3.4818    -0.0023 C.ar    
  18 C18            0.0204     6.5499     0.0363 C.3     
  19 O19            0.2721    -5.2049    -0.0229 O.3     
  20 C20           -1.9793    -6.0831    -0.0002 C.3     
  21 C21           -1.1059    -4.8269    -0.0074 C.3     
  22 O22            2.9603    -5.7925    -0.0583 O.3     
  23 C23            4.6371    -7.5325    -0.0903 C.3     
  24 C24            4.3699    -6.0261    -0.0792 C.3     
  25 H25           -0.2856    -2.6510    -0.0087 H       
  26 H26            3.8063    -1.3636    -0.0500 H       
  27 H27            4.5407    -3.7089    -0.0700 H       
  28 H28           -0.4311     3.8619     0.0262 H       
  29 H29            2.7131     6.7483     0.0121 H       
  30 H30            3.7025     2.7189    -0.0144 H       
  31 H31           -0.2144     6.8134     1.0676 H       
  32 H32            0.4303     7.4199    -0.4767 H       
  33 H33           -0.8874     6.2233    -0.4710 H       
  34 H34           -1.7552    -6.6763     0.8863 H       
  35 H35           -3.0304    -5.7947     0.0116 H       
  36 H36           -1.7744    -6.6731    -0.8936 H       
  37 H37           -1.3107    -4.2369     0.8859 H       
  38 H38           -1.3299    -4.2336    -0.8939 H       
  39 H39            4.2072    -7.9844     0.8037 H       
  40 H40            4.1822    -7.9758    -0.9761 H       
  41 H41            5.7124    -7.7107    -0.1062 H       
  42 H42            4.7998    -5.5743    -0.9731 H       
  43 H43            4.8248    -5.5829     0.8066 H       
@<TRIPOS>BOND
   1    1    2 1
   2    1    3 2
   3    2    5 1
   4    3    4 1
   5    3    7 1
   6    4    5 2
   7    5    6 1
   8    6    8 ar
   9    6    9 ar
  10    7   13 ar
  11    7   17 ar
  12    8   12 ar
  13    8   25 1
  14    9   10 ar
  15    9   26 1
  16   10   11 ar
  17   10   27 1
  18   11   12 ar
  19   11   22 1
  20   12   19 1
  21   13   14 ar
  22   13   28 1
  23   14   15 ar
  24   14   18 1
  25   15   16 ar
  26   15   29 1
  27   16   17 ar
  28   17   30 1
  29   18   31 1
  30   18   32 1
  31   18   33 1
  32   19   21 1
  33   20   21 1
  34   20   34 1
  35   20   35 1
  36   20   36 1
  37   21   37 1
  38   21   38 1
  39   22   24 1
  40   23   24 1
  41   23   39 1
  42   23   40 1
  43   23   41 1
  44   24   42 1
  45   24   43 1

#	End of record

