#	Name: ASD01884919
#	Creating user name:	WinNT
#	Creation time:	15. 06. 2019 19:49

#	Modifying user name:	WinNT
#	Modification time:	15. 06. 2019 19:49

#	Program:	/corina/corina34_cracker 3.40 0067  02.08.2006

@<TRIPOS>MOLECULE
ASD01884919
  50   54    0    0    0
SMALL
NO_CHARGES


@<TRIPOS>ATOM
   1 C1             0.0201     1.4017     0.1564 C.ar    
   2 C2             0.0679     0.0225     0.1542 C.ar    
   3 C3            -1.1101    -0.7141     0.0255 C.ar    
   4 C4            -2.3319    -0.0538    -0.1005 C.ar    
   5 C5            -2.3735     1.3248    -0.0977 C.ar    
   6 C6            -1.2015     2.0562     0.0357 C.ar    
   7 C7            -1.0629    -2.1949     0.0222 C.2     
   8 C8            -1.6556    -2.9143     1.0429 C.2     
   9 C9            -0.4151    -2.8874    -1.0298 C.2     
  10 C10           -0.3742    -4.2328    -1.0313 C.2     
  11 N11           -0.9524    -4.9513    -0.0246 N.pl3   
  12 C12           -1.5946    -4.3178     1.0119 C.2     
  13 C13           -1.0637    -6.2846     0.2289 C.2     
  14 N14           -1.7266    -6.4189     1.3485 N.2     
  15 N15           -2.0460    -5.2650     1.8198 N.2     
  16 C16           -0.5226    -7.4020    -0.6253 C.3     
  17 O17           -1.2463     3.4143     0.0381 O.3     
  18 C18           -1.0520     4.0610    -1.1412 C.ar    
  19 C19           -0.7412     3.3475    -2.2944 C.ar    
  20 C20           -0.5521     4.0511    -3.4731 C.ar    
  21 C21           -0.6772     5.4276    -3.4649 C.ar    
  22 N22           -0.9725     6.0741    -2.3540 N.ar    
  23 C23           -1.1663     5.4422    -1.2136 C.ar    
  24 F24            1.1596     2.1166     0.2813 F       
  25 C25            0.4936    -8.3509     0.0134 C.3     
  26 C26           -0.4731     6.2002    -4.7426 C.3     
  27 C27           -1.5015     6.2288     0.0273 C.3     
  28 C28           -0.9328    -8.8307    -0.2626 C.3     
  29 C29           -2.3563    -2.2041     2.1724 C.3     
  30 F30           -3.7243    -2.1191     1.8925 F       
  31 F31           -2.1668    -2.9175     3.3608 F       
  32 F32           -1.8281    -0.9162     2.3124 F       
  33 H33            1.0158    -0.4859     0.2516 H       
  34 H34           -3.2451    -0.6216    -0.2006 H       
  35 H35           -3.3198     1.8359    -0.1953 H       
  36 H36            0.0472    -2.3340    -1.8338 H       
  37 H37            0.1219    -4.7504    -1.8390 H       
  38 H38           -0.3967    -7.1671    -1.6822 H       
  39 H39           -0.6493     2.2717    -2.2715 H       
  40 H40           -0.3093     3.5301    -4.3874 H       
  41 H41            1.2878    -8.7406    -0.6234 H       
  42 H42            0.7707    -8.1670     1.0514 H       
  43 H43           -1.4249     6.2967    -5.2649 H       
  44 H44           -0.0843     7.1915    -4.5096 H       
  45 H45            0.2377     5.6711    -5.3774 H       
  46 H46           -2.5833     6.3340     0.1096 H       
  47 H47           -1.1197     5.7051     0.9037 H       
  48 H48           -1.0440     7.2163    -0.0338 H       
  49 H49           -1.5940    -8.9624     0.5938 H       
  50 H50           -1.0770    -9.5360    -1.0811 H       
@<TRIPOS>BOND
   1    1    2 ar
   2    1   24 1
   3    1    6 ar
   4    2    3 ar
   5    2   33 1
   6    3    4 ar
   7    3    7 1
   8    4    5 ar
   9    4   34 1
  10    5    6 ar
  11    5   35 1
  12    6   17 1
  13    7    8 2
  14    7    9 1
  15    8   29 1
  16    8   12 1
  17    9   10 2
  18    9   36 1
  19   10   11 1
  20   10   37 1
  21   11   12 1
  22   11   13 1
  23   12   15 2
  24   13   14 2
  25   13   16 1
  26   14   15 1
  27   16   25 1
  28   16   28 1
  29   16   38 1
  30   17   18 1
  31   18   19 ar
  32   18   23 ar
  33   19   20 ar
  34   19   39 1
  35   20   21 ar
  36   20   40 1
  37   21   22 ar
  38   21   26 1
  39   22   23 ar
  40   23   27 1
  41   25   28 1
  42   25   41 1
  43   25   42 1
  44   26   43 1
  45   26   44 1
  46   26   45 1
  47   27   46 1
  48   27   47 1
  49   27   48 1
  50   28   49 1
  51   28   50 1
  52   29   30 1
  53   29   31 1
  54   29   32 1

#	End of record

