#	Name: ASD01948098
#	Creating user name:	WinNT
#	Creation time:	15. 06. 2019 20:13

#	Modifying user name:	WinNT
#	Modification time:	15. 06. 2019 20:13

#	Program:	/corina/corina34_cracker 3.40 0067  02.08.2006

@<TRIPOS>MOLECULE
ASD01948098
  31   33    0    0    0
SMALL
NO_CHARGES


@<TRIPOS>ATOM
   1 C1            -0.0156     1.3771    -0.1638 C.2     
   2 C2            -0.0257     0.0056    -0.1674 C.2     
   3 C3             1.1686    -0.7116    -0.0357 C.2     
   4 C4             2.3534     0.0051     0.0971 C.2     
   5 C5             2.3152     1.3896     0.0949 C.2     
   6 N6             1.1411     2.0775    -0.0341 N.am    
   7 S7            -1.3844     2.4891    -0.3211 S.3     
   8 C8             1.0287     3.5356    -0.0439 C.3     
   9 C9            -0.4102     4.0184    -0.2049 C.3     
  10 O10            3.3594     2.0131     0.2120 O.2     
  11 N11           -1.3079    -0.7204    -0.3110 N.pl3   
  12 O12           -2.3587    -0.1045    -0.3203 O.2     
  13 O13           -1.3120    -1.9335    -0.4199 O.2     
  14 N14            1.1709    -2.0969    -0.0370 N.pl3   
  15 C15            0.5549    -2.7987     1.0052 C.ar    
  16 C16            0.4519    -4.1848     0.9471 C.ar    
  17 C17           -0.1570    -4.8744     1.9790 C.ar    
  18 C18           -0.6635    -4.1866     3.0677 C.ar    
  19 C19           -0.5624    -2.8087     3.1271 C.ar    
  20 C20            0.0505    -2.1138     2.1020 C.ar    
  21 I21           -1.5861    -5.2352     4.6292 I       
  22 F22            0.9457    -4.8560    -0.1164 F       
  23 H23            3.2949    -0.5136     0.2013 H       
  24 H24            1.4289     3.9253     0.8921 H       
  25 H25            1.6242     3.9286    -0.8678 H       
  26 H26           -0.5120     4.6056    -1.1175 H       
  27 H27           -0.7192     4.6024     0.6620 H       
  28 H28            1.5996    -2.5805    -0.7605 H       
  29 H29           -0.2377    -5.9505     1.9353 H       
  30 H30           -0.9592    -2.2753     3.9782 H       
  31 H31            0.1329    -1.0381     2.1520 H       
@<TRIPOS>BOND
   1    1    2 2
   2    1    6 1
   3    1    7 1
   4    2    3 1
   5    2   11 1
   6    3    4 2
   7    3   14 1
   8    4    5 1
   9    4   23 1
  10    5    6 am
  11    5   10 2
  12    6    8 1
  13    7    9 1
  14    8    9 1
  15    8   24 1
  16    8   25 1
  17    9   26 1
  18    9   27 1
  19   11   12 2
  20   11   13 2
  21   14   15 1
  22   14   28 1
  23   15   16 ar
  24   15   20 ar
  25   16   17 ar
  26   16   22 1
  27   17   18 ar
  28   17   29 1
  29   18   19 ar
  30   18   21 1
  31   19   20 ar
  32   19   30 1
  33   20   31 1

#	End of record

