#	Name: ASD01910425
#	Creating user name:	WinNT
#	Creation time:	15. 06. 2019 19:55

#	Modifying user name:	WinNT
#	Modification time:	15. 06. 2019 19:55

#	Program:	/corina/corina34_cracker 3.40 0067  02.08.2006

@<TRIPOS>MOLECULE
ASD01910425
  41   44    0    0    0
SMALL
NO_CHARGES


@<TRIPOS>ATOM
   1 C1            -0.1751     1.5050     0.3208 C.ar    
   2 C2            -0.2775     0.1511     0.5972 C.ar    
   3 C3             0.8644    -0.6064     0.8029 C.ar    
   4 C4             2.1088    -0.0147     0.7338 C.ar    
   5 C5             2.2163     1.3467     0.4562 C.ar    
   6 C6             1.0653     2.1046     0.2495 C.ar    
   7 F7            -1.4942    -0.4321     0.6666 F       
   8 C8             3.5525     1.9875     0.3814 C.2     
   9 N9             3.8046     3.2905     0.1222 N.2     
  10 C10            5.1085     3.4099     0.1549 C.2     
  11 O11            5.6077     2.2004     0.4279 O.3     
  12 N12            4.7068     1.3990     0.5595 N.2     
  13 C13            5.8976     4.6734    -0.0729 C.3     
  14 C14            6.7464     4.8976     2.2759 C.2     
  15 O15            5.6162     4.9971     2.7126 O.2     
  16 C16            7.8976     4.8869     3.2015 C.ar    
  17 C17            7.7620     5.3972     4.4944 C.ar    
  18 C18            8.8393     5.3843     5.3542 C.ar    
  19 C19           10.0561     4.8665     4.9373 C.ar    
  20 C20           10.1962     4.3586     3.6547 C.ar    
  21 C21            9.1238     4.3613     2.7887 C.ar    
  22 F22           11.1091     4.8572     5.7836 F       
  23 N23            6.9490     4.7970     0.9473 N.am    
  24 C24            8.2617     4.7919     0.2763 C.3     
  25 C25            7.9717     5.2772    -1.1660 C.3     
  26 C26            6.5972     4.6146    -1.4472 C.3     
  27 H27           -1.0674     2.0909     0.1567 H       
  28 H28            0.7802    -1.6614     1.0180 H       
  29 H29            2.9982    -0.6057     0.8950 H       
  30 H30            1.1442     3.1599     0.0337 H       
  31 H31            5.2346     5.5374    -0.0285 H       
  32 H32            6.8149     5.8014     4.8199 H       
  33 H33            8.7355     5.7787     6.3542 H       
  34 H34           11.1462     3.9565     3.3350 H       
  35 H35            9.2339     3.9652     1.7901 H       
  36 H36            8.9462     5.4768     0.7766 H       
  37 H37            8.6761     3.7838     0.2612 H       
  38 H38            7.8969     6.3639    -1.2048 H       
  39 H39            8.7297     4.9143    -1.8601 H       
  40 H40            6.7260     3.5817    -1.7705 H       
  41 H41            6.0386     5.1853    -2.1890 H       
@<TRIPOS>BOND
   1    1    2 ar
   2    1    6 ar
   3    1   27 1
   4    2    3 ar
   5    2    7 1
   6    3    4 ar
   7    3   28 1
   8    4    5 ar
   9    4   29 1
  10    5    6 ar
  11    5    8 1
  12    6   30 1
  13    8    9 1
  14    8   12 2
  15    9   10 2
  16   10   11 1
  17   10   13 1
  18   11   12 1
  19   13   23 1
  20   13   26 1
  21   13   31 1
  22   14   15 2
  23   14   16 1
  24   14   23 am
  25   16   17 ar
  26   16   21 ar
  27   17   18 ar
  28   17   32 1
  29   18   19 ar
  30   18   33 1
  31   19   20 ar
  32   19   22 1
  33   20   21 ar
  34   20   34 1
  35   21   35 1
  36   23   24 1
  37   24   25 1
  38   24   36 1
  39   24   37 1
  40   25   26 1
  41   25   38 1
  42   25   39 1
  43   26   40 1
  44   26   41 1

#	End of record

