#	Name: ASD05143031
#	Creating user name:	WinNT
#	Creation time:	15. 06. 2019 20:57

#	Modifying user name:	WinNT
#	Modification time:	15. 06. 2019 20:57

#	Program:	/corina/corina34_cracker 3.40 0067  02.08.2006

@<TRIPOS>MOLECULE
ASD05143031
 148  151    0    0    0
SMALL
NO_CHARGES


@<TRIPOS>ATOM
   1 C1            -2.1179     5.3797     7.5201 C.2     
   2 C2            -1.6340     4.6395     8.7404 C.3     
   3 N3            -1.2290     5.9173     6.6615 N.am    
   4 O4            -3.3072     5.4873     7.3081 O.2     
   5 C5            -1.6994     6.6368     5.4752 C.3     
   6 C6            -2.5317     5.6942     4.6036 C.3     
   7 C7            -2.5477     7.8073     5.9012 C.2     
   8 C8            -1.6390     4.5725     4.0691 C.3     
   9 C9            -2.4713     3.6299     3.1975 C.3     
  10 N10           -1.6165     2.5558     2.6856 N.pl3   
  11 C11           -2.1480     1.5824     1.8731 C.2     
  12 N12           -1.3458     0.5744     1.3928 N.pl3   
  13 N13           -3.4124     1.6152     1.5582 N.2     
  14 O14           -3.0419     7.8268     7.0086 O.2     
  15 N15           -2.7572     8.8323     5.0516 N.am    
  16 C16           -3.5819     9.9701     5.4657 C.3     
  17 C17           -2.6795    11.1607     5.7959 C.3     
  18 C18           -1.5245    10.6951     6.6846 C.3     
  19 C19           -0.3823    10.2268     5.8205 C.2     
  20 O20           -0.5837     9.4979     4.8723 O.2     
  21 N21            0.8844    10.6389     6.1245 N.am    
  22 C22            1.9489    10.1288     5.2305 C.3     
  23 C23            2.1007    11.0910     4.0507 C.3     
  24 C24            2.7657    10.3622     2.8812 C.3     
  25 C25            3.7250    11.3148     2.1650 C.3     
  26 N26            3.6754    11.0397     0.7149 N.am    
  27 C27            5.1269    11.0959     2.6728 C.2     
  28 N28            5.5129    11.6427     3.8426 N.am    
  29 O29            5.9078    10.4277     2.0289 O.2     
  30 C30            2.8502    11.8288    -0.0258 C.2     
  31 O31            2.2056    12.7098     0.5026 O.2     
  32 C32            2.7480    11.5943    -1.5109 C.3     
  33 N33            1.5339    12.2777    -2.0134 N.am    
  34 C34            3.9846    12.1654    -2.2076 C.3     
  35 C35            0.4813    11.4585    -2.3090 C.2     
  36 O36            0.5727    10.2579    -2.1634 O.2     
  37 C37           -0.7959    12.0750    -2.8190 C.3     
  38 N38           -1.9231    11.1814    -2.4859 N.am    
  39 C39           -1.0082    13.4372    -2.1555 C.3     
  40 C40           -3.0284    11.7688    -1.9504 C.2     
  41 O41           -3.0582    12.9664    -1.7615 O.2     
  42 C42           -4.2146    10.9093    -1.5963 C.3     
  43 C43            3.9385    11.8220    -3.6743 C.2     
  44 C44            3.2416    12.5706    -4.7230 C.ar    
  45 C45            3.4811    11.8747    -5.9218 C.ar    
  46 N46            4.2659    10.7871    -5.6103 N.pl3   
  47 C47            4.5330    10.7753    -4.2684 C.2     
  48 C48            2.4647    13.7308    -4.7341 C.ar    
  49 C49            1.9405    14.1847    -5.9113 C.ar    
  50 C50            2.1736    13.5013    -7.0971 C.ar    
  51 C51            2.9377    12.3552    -7.1090 C.ar    
  52 N52           -4.8020    11.4089    -0.3322 N.am    
  53 C53           -3.7616     9.4593    -1.4139 C.3     
  54 C54           -4.9604     8.5900    -1.1339 C.ar    
  55 C55           -5.9884     8.5131    -2.0545 C.ar    
  56 C56           -7.0882     7.7156    -1.7975 C.ar    
  57 C57           -7.1593     6.9950    -0.6203 C.ar    
  58 C58           -6.1306     7.0713     0.3002 C.ar    
  59 C59           -5.0291     7.8651     0.0414 C.ar    
  60 C60           -4.5187    10.3455     4.3464 C.2     
  61 N61           -4.0002    10.8345     3.1865 N.am    
  62 O62           -5.7172    10.2134     4.4769 O.2     
  63 C63           -4.9666    11.1852     2.1266 C.3     
  64 C64           -5.1884    12.6990     2.1154 C.3     
  65 C65           -4.4101    10.7465     0.7966 C.2     
  66 C66           -5.8533    13.1268     3.4252 C.3     
  67 N67           -6.0662    14.5802     3.4145 N.3     
  68 O68           -3.6286     9.8215     0.7294 O.2     
  69 C69           -1.0200    13.2675    -0.6350 C.3     
  70 C70           -1.3789    14.6008     0.0242 C.3     
  71 N71           -1.3902    14.4384     1.4801 N.pl3   
  72 C72           -1.6885    15.5093     2.2890 C.2     
  73 N73           -1.9761    16.7327     1.7315 N.pl3   
  74 N74           -1.6985    15.3648     3.5843 N.2     
  75 C75           -8.2095     7.6325    -2.8009 C.3     
  76 H76           -1.5293     5.3375     9.5710 H       
  77 H77           -2.3542     3.8653     9.0050 H       
  78 H78           -0.6686     4.1803     8.5277 H       
  79 H79           -0.2778     5.8277     6.8289 H       
  80 H80           -0.8429     6.9972     4.9054 H       
  81 H81           -3.3372     5.2648     5.1994 H       
  82 H82           -2.9551     6.2512     3.7678 H       
  83 H83           -0.8335     5.0018     3.4733 H       
  84 H84           -1.2156     4.0155     4.9049 H       
  85 H85           -3.2768     3.2005     3.7932 H       
  86 H86           -2.8947     4.1868     2.3616 H       
  87 H87           -0.6756     2.5314     2.9200 H       
  88 H88           -0.4049     0.5500     1.6271 H       
  89 H89           -1.7208    -0.1124     0.8195 H       
  90 H90           -3.7874     0.9284     0.9849 H       
  91 H91           -2.3620     8.8167     4.1659 H       
  92 H92           -4.1608     9.6973     6.3481 H       
  93 H93           -2.2807    11.5813     4.8727 H       
  94 H94           -3.2583    11.9206     6.3209 H       
  95 H95           -1.1910    11.5230     7.3103 H       
  96 H96           -1.8614     9.8742     7.3177 H       
  97 H97            1.0732    11.2252     6.8739 H       
  98 H98            2.8896    10.0705     5.7782 H       
  99 H99            1.6751     9.1399     4.8630 H       
 100 H100           1.1175    11.4483     3.7444 H       
 101 H101           2.7184    11.9379     4.3496 H       
 102 H102           3.3205     9.5026     3.2572 H       
 103 H103           2.0009    10.0234     2.1823 H       
 104 H104           3.4236    12.3455     2.3517 H       
 105 H105           4.2033    10.3330     0.3114 H       
 106 H106           4.8884    12.1772     4.3576 H       
 107 H107           6.4153    11.5019     4.1695 H       
 108 H108           2.6743    10.5249    -1.7085 H       
 109 H109           1.4893    13.2402    -2.1252 H       
 110 H110           4.0009    13.2488    -2.0885 H       
 111 H111           4.8827    11.7374    -1.7623 H       
 112 H112          -0.7353    12.1988    -3.9003 H       
 113 H113          -1.8782    10.2248    -2.6403 H       
 114 H114          -0.1990    14.1098    -2.4398 H       
 115 H115          -1.9602    13.8558    -2.4818 H       
 116 H116          -4.9574    10.9655    -2.3920 H       
 117 H117           4.5850    10.1294    -6.2478 H       
 118 H118           5.1276    10.0300    -3.7611 H       
 119 H119           2.2786    14.2672    -3.8154 H       
 120 H120           1.3397    15.0821    -5.9194 H       
 121 H121           1.7521    13.8723    -8.0196 H       
 122 H122           3.1135    11.8309    -8.0366 H       
 123 H123          -5.4217    12.1548    -0.3072 H       
 124 H124          -3.2681     9.1158    -2.3231 H       
 125 H125          -3.0654     9.3986    -0.5775 H       
 126 H126          -5.9328     9.0762    -2.9744 H       
 127 H127          -8.0188     6.3726    -0.4192 H       
 128 H128          -6.1863     6.5084     1.2203 H       
 129 H129          -4.2255     7.9247     0.7604 H       
 130 H130          -3.0448    10.9472     3.0628 H       
 131 H131          -5.9135    10.6787     2.3135 H       
 132 H132          -4.2289    13.2060     2.0125 H       
 133 H133          -5.8320    12.9657     1.2771 H       
 134 H134          -6.8127    12.6197     3.5281 H       
 135 H135          -5.2097    12.8600     4.2635 H       
 136 H136          -6.5046    14.8878     4.2696 H       
 137 H137          -5.1994    15.0715     3.2555 H       
 138 H138          -1.7590    12.5153    -0.3591 H       
 139 H139          -0.0338    12.9491    -0.2973 H       
 140 H140          -0.6399    15.3531    -0.2518 H       
 141 H141          -2.3651    14.9193    -0.3136 H       
 142 H142          -1.1872    13.5752     1.8734 H       
 143 H143          -1.9686    16.8403     0.7675 H       
 144 H144          -2.1865    17.4883     2.3022 H       
 145 H145          -1.9090    16.1204     4.1550 H       
 146 H146          -8.0120     6.8199    -3.5000 H       
 147 H147          -9.1489     7.4443    -2.2810 H       
 148 H148          -8.2787     8.5731    -3.3472 H       
@<TRIPOS>BOND
   1    1    2 1
   2    1    3 am
   3    1    4 2
   4    2   76 1
   5    2   77 1
   6    2   78 1
   7    3    5 1
   8    3   79 1
   9    5    6 1
  10    5    7 1
  11    5   80 1
  12    6    8 1
  13    6   81 1
  14    6   82 1
  15    7   14 2
  16    7   15 am
  17    8    9 1
  18    8   83 1
  19    8   84 1
  20    9   10 1
  21    9   85 1
  22    9   86 1
  23   10   11 1
  24   10   87 1
  25   11   12 1
  26   11   13 2
  27   12   88 1
  28   12   89 1
  29   13   90 1
  30   15   16 1
  31   15   91 1
  32   16   17 1
  33   16   60 1
  34   16   92 1
  35   17   18 1
  36   17   93 1
  37   17   94 1
  38   18   19 1
  39   18   95 1
  40   18   96 1
  41   19   20 2
  42   19   21 am
  43   21   22 1
  44   21   97 1
  45   22   23 1
  46   22   98 1
  47   22   99 1
  48   23   24 1
  49   23  100 1
  50   23  101 1
  51   24   25 1
  52   24  102 1
  53   24  103 1
  54   25   26 1
  55   25   27 1
  56   25  104 1
  57   26   30 am
  58   26  105 1
  59   27   28 am
  60   27   29 2
  61   28  106 1
  62   28  107 1
  63   30   31 2
  64   30   32 1
  65   32   33 1
  66   32   34 1
  67   32  108 1
  68   33   35 am
  69   33  109 1
  70   34   43 1
  71   34  110 1
  72   34  111 1
  73   35   36 2
  74   35   37 1
  75   37   38 1
  76   37   39 1
  77   37  112 1
  78   38   40 am
  79   38  113 1
  80   39   69 1
  81   39  114 1
  82   39  115 1
  83   40   41 2
  84   40   42 1
  85   42   52 1
  86   42   53 1
  87   42  116 1
  88   43   44 1
  89   43   47 2
  90   44   45 ar
  91   44   48 ar
  92   45   46 1
  93   45   51 ar
  94   46   47 1
  95   46  117 1
  96   47  118 1
  97   48   49 ar
  98   48  119 1
  99   49   50 ar
 100   49  120 1
 101   50   51 ar
 102   50  121 1
 103   51  122 1
 104   52   65 am
 105   52  123 1
 106   53   54 1
 107   53  124 1
 108   53  125 1
 109   54   55 ar
 110   54   59 ar
 111   55   56 ar
 112   55  126 1
 113   56   57 ar
 114   56   75 1
 115   57   58 ar
 116   57  127 1
 117   58   59 ar
 118   58  128 1
 119   59  129 1
 120   60   61 am
 121   60   62 2
 122   61   63 1
 123   61  130 1
 124   63   64 1
 125   63   65 1
 126   63  131 1
 127   64   66 1
 128   64  132 1
 129   64  133 1
 130   65   68 2
 131   66   67 1
 132   66  134 1
 133   66  135 1
 134   67  136 1
 135   67  137 1
 136   69   70 1
 137   69  138 1
 138   69  139 1
 139   70   71 1
 140   70  140 1
 141   70  141 1
 142   71   72 1
 143   71  142 1
 144   72   73 1
 145   72   74 2
 146   73  143 1
 147   73  144 1
 148   74  145 1
 149   75  146 1
 150   75  147 1
 151   75  148 1

#	End of record

