#	Name: ASD01870644
#	Creating user name:	WinNT
#	Creation time:	15. 06. 2019 19:39

#	Modifying user name:	WinNT
#	Modification time:	15. 06. 2019 19:39

#	Program:	/corina/corina34_cracker 3.40 0067  02.08.2006

@<TRIPOS>MOLECULE
ASD01870644
  43   46    0    0    0
SMALL
NO_CHARGES


@<TRIPOS>ATOM
   1 C1             4.2062     1.3784     1.4244 C.ar    
   2 C2             4.2042    -0.0034     1.3968 C.ar    
   3 C3             3.2622    -0.6818     0.6404 C.ar    
   4 C4             2.3191     0.0184    -0.0904 C.ar    
   5 C5             2.3106     1.3976    -0.0706 C.ar    
   6 C6             3.2566     2.0886     0.6887 C.ar    
   7 C7             3.2522     3.5666     0.7137 C.2     
   8 O8             4.0769     4.1658     1.3760 O.2     
   9 N9             2.3339     4.2498     0.0021 N.am    
  10 C10            2.2685     5.6444     0.1001 C.ar    
  11 C11            0.9738     7.6625     0.1516 C.ar    
  12 C12            1.0380     6.2870     0.0549 C.ar    
  13 C13            3.4338     6.3857     0.2482 C.ar    
  14 C14            3.3690     7.7612     0.3447 C.ar    
  15 C15            2.1392     8.4036     0.2943 C.ar    
  16 N16            2.0737     9.8018     0.3925 N.am    
  17 C17            1.7245    12.0291    -0.1834 C.3     
  18 C18            1.6797    10.5816    -0.6219 C.2     
  19 C19            2.3946    10.4654     1.5100 C.2     
  20 C20            2.2142    11.9495     1.2769 C.3     
  21 C21            0.8129    12.4764     0.9611 C.3     
  22 C22            0.5709    13.9783     1.1241 C.3     
  23 C23           -0.3741    11.5763     1.3101 C.3     
  24 O24            1.3411    10.1901    -1.7181 O.2     
  25 O25            2.7699     9.9577     2.5449 O.2     
  26 F26            5.1223    -0.6936     2.1081 F       
  27 H27            2.1129    12.7622    -0.8904 H       
  28 H28            2.9747    12.6221     1.6735 H       
  29 H29            4.9379     1.9071     2.0173 H       
  30 H30            3.2645    -1.7616     0.6210 H       
  31 H31            1.5877    -0.5163    -0.6783 H       
  32 H32            1.5736     1.9422    -0.6422 H       
  33 H33            1.7183     3.7750    -0.5779 H       
  34 H34            0.0171     8.1622     0.1161 H       
  35 H35            0.1314     5.7106    -0.0561 H       
  36 H36            4.3904     5.8860     0.2882 H       
  37 H37            4.2750     8.3376     0.4599 H       
  38 H38            0.1110    14.3727     0.2179 H       
  39 H39           -0.0921    14.1496     1.9722 H       
  40 H40            1.5214    14.4827     1.2983 H       
  41 H41           -0.0099    10.5906     1.5997 H       
  42 H42           -0.9319    12.0151     2.1374 H       
  43 H43           -1.0263    11.4821     0.4418 H       
@<TRIPOS>BOND
   1    1    2 ar
   2    1    6 ar
   3    1   29 1
   4    2    3 ar
   5    2   26 1
   6    3    4 ar
   7    3   30 1
   8    4    5 ar
   9    4   31 1
  10    5    6 ar
  11    5   32 1
  12    6    7 1
  13    7    8 2
  14    7    9 am
  15    9   10 1
  16    9   33 1
  17   10   13 ar
  18   10   12 ar
  19   11   12 ar
  20   11   15 ar
  21   11   34 1
  22   12   35 1
  23   13   14 ar
  24   13   36 1
  25   14   15 ar
  26   14   37 1
  27   15   16 1
  28   16   19 am
  29   16   18 am
  30   17   18 1
  31   17   20 1
  32   17   21 1
  33   17   27 1
  34   18   24 2
  35   19   20 1
  36   19   25 2
  37   20   28 1
  38   20   21 1
  39   21   22 1
  40   21   23 1
  41   22   38 1
  42   22   39 1
  43   22   40 1
  44   23   41 1
  45   23   42 1
  46   23   43 1

#	End of record

