#	Name: ASD01918172
#	Creating user name:	WinNT
#	Creation time:	15. 06. 2019 20:10

#	Modifying user name:	WinNT
#	Modification time:	15. 06. 2019 20:10

#	Program:	/corina/corina34_cracker 3.40 0067  02.08.2006

@<TRIPOS>MOLECULE
ASD01918172
  45   48    0    0    0
SMALL
NO_CHARGES


@<TRIPOS>ATOM
   1 C1            -0.0235     1.4090    -0.1612 C.ar    
   2 C2            -0.0112     0.0194    -0.3441 C.ar    
   3 C3             1.1755    -0.6264    -0.5204 C.ar    
   4 C4             2.3774     0.0773    -0.5212 C.ar    
   5 C5             2.4005     1.4270    -0.3458 C.ar    
   6 C6             1.1957     2.1273    -0.1615 C.ar    
   7 N7             1.1896     3.4541     0.0115 N.ar    
   8 C8             0.0726     4.1215     0.1842 C.ar    
   9 C9            -1.1638     3.4901     0.1977 C.ar    
  10 C10           -1.2356     2.1177     0.0193 C.ar    
  11 S11           -2.6351     4.4302     0.4344 S.o2    
  12 O12           -3.3836     3.7581     1.4380 O.2     
  13 O13           -2.2304     5.7879     0.5451 O.2     
  14 C14           -3.5751     4.3107    -1.0511 C.ar    
  15 C15           -3.3874     5.2326    -2.0638 C.ar    
  16 C16           -4.4961     3.2916    -1.2061 C.ar    
  17 C17           -5.2336     3.1978    -2.3716 C.ar    
  18 C18           -5.0503     4.1234    -3.3818 C.ar    
  19 C19           -4.1249     5.1389    -3.2293 C.ar    
  20 N20           -2.4557     1.4591     0.0216 N.3     
  21 C21           -3.9468    -0.0882     1.1975 C.3     
  22 C22           -4.2471    -0.8011    -0.1239 C.3     
  23 C23           -4.1052     0.1966    -1.2767 C.3     
  24 C24           -2.6937     0.7877    -1.2625 C.3     
  25 C25           -2.5399     0.5111     1.1400 C.3     
  26 H26           -0.9372    -0.5364    -0.3449 H       
  27 H27            1.1843    -1.6972    -0.6608 H       
  28 H28            3.3056    -0.4563    -0.6627 H       
  29 H29            3.3410     1.9579    -0.3483 H       
  30 H30            0.1166     5.1920     0.3201 H       
  31 H31           -2.6649     6.0265    -1.9444 H       
  32 H32           -4.6393     2.5684    -0.4168 H       
  33 H33           -5.9527     2.4012    -2.4930 H       
  34 H34           -5.6262     4.0499    -4.2925 H       
  35 H35           -3.9785     5.8594    -4.0204 H       
  36 H36           -4.6751     0.7072     1.3555 H       
  37 H37           -4.0045    -0.8034     2.0181 H       
  38 H38           -3.5430    -1.6215    -0.2634 H       
  39 H39           -5.2642    -1.1924    -0.1038 H       
  40 H40           -4.2760    -0.3151    -2.2239 H       
  41 H41           -4.8360     0.9965    -1.1577 H       
  42 H42           -2.5939     1.5091    -2.0735 H       
  43 H43           -1.9641    -0.0111    -1.3955 H       
  44 H44           -1.8110    -0.2864     0.9958 H       
  45 H45           -2.3285     1.0317     2.0740 H       
@<TRIPOS>BOND
   1    1    2 ar
   2    1    6 ar
   3    1   10 ar
   4    2    3 ar
   5    2   26 1
   6    3    4 ar
   7    3   27 1
   8    4    5 ar
   9    4   28 1
  10    5    6 ar
  11    5   29 1
  12    6    7 ar
  13    7    8 ar
  14    8    9 ar
  15    8   30 1
  16    9   10 ar
  17    9   11 1
  18   10   20 1
  19   11   12 2
  20   11   13 2
  21   11   14 1
  22   14   16 ar
  23   14   15 ar
  24   15   19 ar
  25   15   31 1
  26   16   17 ar
  27   16   32 1
  28   17   18 ar
  29   17   33 1
  30   18   19 ar
  31   18   34 1
  32   19   35 1
  33   20   25 1
  34   20   24 1
  35   21   22 1
  36   21   25 1
  37   21   36 1
  38   21   37 1
  39   22   23 1
  40   22   38 1
  41   22   39 1
  42   23   24 1
  43   23   40 1
  44   23   41 1
  45   24   42 1
  46   24   43 1
  47   25   44 1
  48   25   45 1

#	End of record

