#	Name: ASD01410453
#	Creating user name:	WinNT
#	Creation time:	15. 06. 2019 19:17

#	Modifying user name:	WinNT
#	Modification time:	15. 06. 2019 19:17

#	Program:	/corina/corina34_cracker 3.40 0067  02.08.2006

@<TRIPOS>MOLECULE
ASD01410453
  38   40    0    0    0
SMALL
NO_CHARGES


@<TRIPOS>ATOM
   1 S1            -0.0221     1.7701     0.0556 S.3     
   2 C2            -0.0025     0.0162     0.3121 C.2     
   3 N3             1.2551    -0.3416     0.4280 N.2     
   4 C4             2.2128     0.5556     0.3460 C.2     
   5 C5             1.7448     1.9351     0.1213 C.2     
   6 O6             3.3947     0.2691     0.4481 O.2     
   7 S7            -0.8882    -2.4339     0.6245 S.o2    
   8 O8            -2.1908    -2.9992     0.6767 O.2     
   9 O9             0.1066    -2.8576    -0.2975 O.2     
  10 N10           -1.0931    -0.8093     0.3776 N.am    
  11 C11           -0.1943    -2.6337     2.2318 C.ar    
  12 C12           -1.0225    -2.7800     3.3289 C.ar    
  13 C13           -0.4782    -2.9367     4.5898 C.ar    
  14 C14            0.8944    -2.9477     4.7536 C.ar    
  15 C15            1.7226    -2.8024     3.6564 C.ar    
  16 C16            1.1783    -2.6500     2.3949 C.ar    
  17 C17            1.4878    -3.1176     6.1284 C.3     
  18 C18            2.4873     3.0626    -0.0056 C.2     
  19 C19            1.8255     4.3711    -0.1032 C.ar    
  20 C20            2.5161     5.4726    -0.6247 C.ar    
  21 C21            1.8866     6.6975    -0.7124 C.ar    
  22 C22            0.5773     6.8385    -0.2869 C.ar    
  23 C23           -0.1116     5.7546     0.2296 C.ar    
  24 C24            0.5001     4.5224     0.3191 C.ar    
  25 Cl25           4.1587     5.2974    -1.1584 Cl      
  26 H26           -1.9856    -0.4424     0.2794 H       
  27 H27           -2.0949    -2.7714     3.2009 H       
  28 H28           -1.1252    -3.0503     5.4470 H       
  29 H29            2.7950    -2.8106     3.7845 H       
  30 H30            1.8254    -2.5401     1.5372 H       
  31 H31            1.6382    -4.1780     6.3307 H       
  32 H32            2.4453    -2.5990     6.1775 H       
  33 H33            0.8092    -2.6986     6.8714 H       
  34 H34            3.5650     2.9990    -0.0350 H       
  35 H35            2.4171     7.5483    -1.1138 H       
  36 H36            0.0904     7.7999    -0.3578 H       
  37 H37           -1.1330     5.8737     0.5597 H       
  38 H38           -0.0408     3.6771     0.7182 H       
@<TRIPOS>BOND
   1    1    2 1
   2    1    5 1
   3    2    3 2
   4    2   10 1
   5    3    4 1
   6    4    5 1
   7    4    6 2
   8    5   18 2
   9    7    8 2
  10    7    9 2
  11    7   10 am
  12    7   11 1
  13   10   26 1
  14   11   12 ar
  15   11   16 ar
  16   12   13 ar
  17   12   27 1
  18   13   14 ar
  19   13   28 1
  20   14   15 ar
  21   14   17 1
  22   15   16 ar
  23   15   29 1
  24   16   30 1
  25   17   31 1
  26   17   32 1
  27   17   33 1
  28   18   19 1
  29   18   34 1
  30   19   20 ar
  31   19   24 ar
  32   20   21 ar
  33   20   25 1
  34   21   22 ar
  35   21   35 1
  36   22   23 ar
  37   22   36 1
  38   23   24 ar
  39   23   37 1
  40   24   38 1

#	End of record

