#	Name: ASD01812895
#	Creating user name:	WinNT
#	Creation time:	15. 06. 2019 19:29

#	Modifying user name:	WinNT
#	Modification time:	15. 06. 2019 19:29

#	Program:	/corina/corina34_cracker 3.40 0067  02.08.2006

@<TRIPOS>MOLECULE
ASD01812895
  53   57    0    0    0
SMALL
NO_CHARGES


@<TRIPOS>ATOM
   1 N1             0.0027     1.3184    -0.2224 N.ar    
   2 C2             0.0319     0.0058    -0.3460 C.ar    
   3 C3             1.2340    -0.6843    -0.3682 C.ar    
   4 C4             2.4113     0.0205    -0.2593 C.ar    
   5 C5             2.3614     1.4132    -0.1292 C.ar    
   6 C6             1.1073     2.0395    -0.1145 C.ar    
   7 C7             3.8682    -0.3581    -0.2428 C.3     
   8 N8             4.6151     0.8975    -0.0972 N.am    
   9 C9             3.7395     1.9163    -0.0322 C.2     
  10 C10            6.0736     1.0204    -0.0337 C.3     
  11 C11            6.6239     1.1966    -1.4255 C.ar    
  12 O12            1.0259     3.3855     0.0100 O.3     
  13 O13            4.0442     3.0870     0.0899 O.2     
  14 C14            6.7706     2.4670    -1.9528 C.ar    
  15 C15            7.2740     2.6343    -3.2269 C.ar    
  16 C16            7.6354     1.5203    -3.9822 C.ar    
  17 C17            7.4860     0.2429    -3.4458 C.ar    
  18 C18            6.9859     0.0876    -2.1688 C.ar    
  19 C19           -0.2021     3.9617    -0.0802 C.ar    
  20 C20           -1.0087     4.0614     1.0465 C.ar    
  21 C21           -2.2577     4.6483     0.9509 C.ar    
  22 C22           -2.7025     5.1344    -0.2646 C.ar    
  23 C23           -1.9011     5.0354    -1.3870 C.ar    
  24 C24           -0.6499     4.4562    -1.2961 C.ar    
  25 F25           -0.5740     3.5855     2.2339 F       
  26 C26           -4.0638     5.7728    -0.3664 C.3     
  27 C27            8.1768     1.6938    -5.3527 C.2     
  28 C28            8.5608     0.6990    -6.1946 C.2     
  29 N29            8.3707     2.8670    -5.9889 N.2     
  30 C30            8.8586     2.6354    -7.1753 C.2     
  31 N31            8.9874     1.3012    -7.3451 N.pl3   
  32 C32            9.4964     0.6245    -8.5406 C.3     
  33 F33           -3.9543     7.1460    -0.1221 F       
  34 F34           -4.5804     5.5674    -1.6502 F       
  35 F35           -4.9204     5.1979     0.5785 F       
  36 H36           -0.8959    -0.5406    -0.4310 H       
  37 H37            1.2466    -1.7595    -0.4692 H       
  38 H38            4.0747    -1.0171     0.6004 H       
  39 H39            4.1385    -0.8488    -1.1778 H       
  40 H40            6.3392     1.8853     0.5742 H       
  41 H41            6.4951     0.1196     0.4123 H       
  42 H42            6.4902     3.3296    -1.3665 H       
  43 H43            7.3874     3.6266    -3.6378 H       
  44 H44            7.7641    -0.6239    -4.0270 H       
  45 H45            6.8735    -0.9017    -1.7506 H       
  46 H46           -2.8858     4.7265     1.8260 H       
  47 H47           -2.2518     5.4154    -2.3351 H       
  48 H48           -0.0231     4.3839    -2.1726 H       
  49 H49            8.5344    -0.3618    -5.9936 H       
  50 H50            9.1124     3.3881    -7.9069 H       
  51 H51            8.6686     0.4086    -9.2160 H       
  52 H52           10.2173     1.2689    -9.0437 H       
  53 H53            9.9820    -0.3076    -8.2515 H       
@<TRIPOS>BOND
   1    1    2 ar
   2    1    6 ar
   3    2    3 ar
   4    2   36 1
   5    3    4 ar
   6    3   37 1
   7    4    7 1
   8    4    5 ar
   9    5    6 ar
  10    5    9 1
  11    6   12 1
  12    7    8 1
  13    7   38 1
  14    7   39 1
  15    8    9 am
  16    8   10 1
  17    9   13 2
  18   10   11 1
  19   10   40 1
  20   10   41 1
  21   11   14 ar
  22   11   18 ar
  23   12   19 1
  24   14   15 ar
  25   14   42 1
  26   15   16 ar
  27   15   43 1
  28   16   17 ar
  29   16   27 1
  30   17   18 ar
  31   17   44 1
  32   18   45 1
  33   19   20 ar
  34   19   24 ar
  35   20   21 ar
  36   20   25 1
  37   21   22 ar
  38   21   46 1
  39   22   23 ar
  40   22   26 1
  41   23   24 ar
  42   23   47 1
  43   24   48 1
  44   26   33 1
  45   26   34 1
  46   26   35 1
  47   27   29 1
  48   27   28 2
  49   28   31 1
  50   28   49 1
  51   29   30 2
  52   30   31 1
  53   30   50 1
  54   31   32 1
  55   32   51 1
  56   32   52 1
  57   32   53 1

#	End of record

