#	Name: ASD01814963
#	Creating user name:	WinNT
#	Creation time:	15. 06. 2019 19:33

#	Modifying user name:	WinNT
#	Modification time:	15. 06. 2019 19:33

#	Program:	/corina/corina34_cracker 3.40 0067  02.08.2006

@<TRIPOS>MOLECULE
ASD01814963
  53   57    0    0    0
SMALL
NO_CHARGES


@<TRIPOS>ATOM
   1 C1             1.8262     2.5848    -1.6078 C.2     
   2 C2             1.4558     1.3003    -1.1873 C.2     
   3 C3             2.4147     0.3429    -1.0293 C.2     
   4 C4             3.7578     0.6611    -1.2909 C.2     
   5 N5             4.0912     1.9237    -1.7000 N.am    
   6 C6             3.1242     2.8723    -1.8547 C.2     
   7 C7             4.7452    -0.3210    -1.1293 C.2     
   8 C8             6.0529    -0.0223    -1.3803 C.2     
   9 C9             6.3920     1.2770    -1.8013 C.2     
  10 C10            5.3763     2.2427    -1.9542 C.2     
  11 O11            5.6612     3.3709    -2.3190 O.2     
  12 C12            7.7881     1.6233    -2.0768 C.2     
  13 O13            8.1067     2.8705    -2.4801 O.3     
  14 O14            8.6604     0.7863    -1.9421 O.2     
  15 C15            4.3624    -1.7068    -0.6776 C.3     
  16 N16            4.1883    -2.5736    -1.8508 N.3     
  17 C17            4.1702    -3.9857    -1.4621 C.3     
  18 C18            4.4326    -4.8666    -2.6884 C.3     
  19 S19            3.0959    -4.5941    -3.8916 S.3     
  20 C20            3.0779    -2.7804    -4.0287 C.3     
  21 C21            3.0021    -2.1867    -2.6179 C.3     
  22 C22            5.2388    -4.2344    -0.4291 C.ar    
  23 H23            5.3889    -4.5959    -3.1359 H       
  24 C24            4.9834    -5.0834     0.6609 C.ar    
  25 C25            6.0010    -5.3051     1.6224 C.ar    
  26 C26            7.2457    -4.6723     1.4665 C.ar    
  27 C27            7.4575    -3.8569     0.3972 C.ar    
  28 C28            6.4585    -3.6420    -0.5500 C.ar    
  29 C29            3.7385    -5.7168     0.8167 C.ar    
  30 C30            3.5271    -6.5323     1.8855 C.ar    
  31 C31            4.5276    -6.7500     2.8312 C.ar    
  32 C32            5.7453    -6.1541     2.7129 C.ar    
  33 H33            1.0718     3.3465    -1.7392 H       
  34 H34            0.4192     1.0702    -0.9895 H       
  35 H35            2.1436    -0.6511    -0.7055 H       
  36 H36            3.3983     3.8656    -2.1781 H       
  37 H37            6.8185    -0.7740    -1.2571 H       
  38 H38            9.0413     3.0518    -2.6498 H       
  39 H39            5.1487    -2.1115    -0.0404 H       
  40 H40            3.4283    -1.6614    -0.1177 H       
  41 H41            3.1959    -4.2328    -1.0404 H       
  42 H42            4.4484    -5.9147    -2.3897 H       
  43 H43            3.9898    -2.4413    -4.5202 H       
  44 H44            2.2086    -2.4654    -4.6058 H       
  45 H45            2.1089    -2.5588    -2.1159 H       
  46 H46            2.9525    -1.0999    -2.6845 H       
  47 H47            8.0303    -4.8316     2.1914 H       
  48 H48            8.4150    -3.3714     0.2799 H       
  49 H49            6.6525    -2.9906    -1.3893 H       
  50 H50            2.9536    -5.5570     0.0923 H       
  51 H51            2.5695    -7.0178     2.0029 H       
  52 H52            4.3335    -7.4014     3.6705 H       
  53 H53            6.5111    -6.3324     3.4533 H       
@<TRIPOS>BOND
   1    1    2 1
   2    1    6 2
   3    1   33 1
   4    2    3 2
   5    2   34 1
   6    3    4 1
   7    3   35 1
   8    4    5 1
   9    4    7 2
  10    5    6 1
  11    5   10 am
  12    6   36 1
  13    7   15 1
  14    7    8 1
  15    8    9 2
  16    8   37 1
  17    9   10 1
  18    9   12 1
  19   10   11 2
  20   12   13 1
  21   12   14 2
  22   13   38 1
  23   15   16 1
  24   15   39 1
  25   15   40 1
  26   16   17 1
  27   16   21 1
  28   17   18 1
  29   17   22 1
  30   17   41 1
  31   18   19 1
  32   18   23 1
  33   18   42 1
  34   19   20 1
  35   20   21 1
  36   20   43 1
  37   20   44 1
  38   21   45 1
  39   21   46 1
  40   22   24 ar
  41   22   28 ar
  42   24   25 ar
  43   24   29 ar
  44   25   26 ar
  45   25   32 ar
  46   26   27 ar
  47   26   47 1
  48   27   28 ar
  49   27   48 1
  50   28   49 1
  51   29   30 ar
  52   29   50 1
  53   30   31 ar
  54   30   51 1
  55   31   32 ar
  56   31   52 1
  57   32   53 1

#	End of record

