#	Name: ASD00122088
#	Creating user name:	WinNT
#	Creation time:	15. 06. 2019 18:31

#	Modifying user name:	WinNT
#	Modification time:	15. 06. 2019 18:31

#	Program:	/corina/corina34_cracker 3.40 0067  02.08.2006

@<TRIPOS>MOLECULE
ASD00122088
  24   25    0    0    0
SMALL
NO_CHARGES


@<TRIPOS>ATOM
   1 C1            -0.1685     1.3992     0.0949 C.ar    
   2 C2            -0.1292     0.0027     0.0715 C.ar    
   3 N3            -1.2787    -0.6823     0.1249 N.ar    
   4 C4            -2.4334    -0.0623     0.1984 C.ar    
   5 N5            -2.5241     1.2555     0.2230 N.ar    
   6 C6            -1.4422     2.0184     0.1796 C.ar    
   7 C7             1.1588     1.9814     0.0308 C.2     
   8 C8             2.1440     1.1072    -0.0365 C.2     
   9 S9             1.5398    -0.5390    -0.0283 S.3     
  10 N10           -1.5530     3.3969     0.2062 N.pl3   
  11 C11            1.3936     3.4700     0.0400 C.3     
  12 C12            3.6032     1.4760    -0.1111 C.3     
  13 C13           -2.8754     4.0264     0.1680 C.3     
  14 H14           -3.3392    -0.6489     0.2398 H       
  15 H15           -0.7552     3.9468     0.2500 H       
  16 H16            1.3837     3.8331     1.0677 H       
  17 H17            2.3606     3.6881    -0.4131 H       
  18 H18            0.6062     3.9656    -0.5279 H       
  19 H19            4.0114     1.5494     0.8969 H       
  20 H20            4.1437     0.7099    -0.6670 H       
  21 H21            3.7101     2.4355    -0.6171 H       
  22 H22           -3.3884     3.7386    -0.7496 H       
  23 H23           -3.4587     3.6987     1.0285 H       
  24 H24           -2.7628     5.1101     0.1967 H       
@<TRIPOS>BOND
   1    1    2 ar
   2    1    7 1
   3    1    6 ar
   4    2    3 ar
   5    2    9 1
   6    3    4 ar
   7    4    5 ar
   8    4   14 1
   9    5    6 ar
  10    6   10 1
  11    7    8 2
  12    7   11 1
  13    8    9 1
  14    8   12 1
  15   10   13 1
  16   10   15 1
  17   11   16 1
  18   11   17 1
  19   11   18 1
  20   12   19 1
  21   12   20 1
  22   12   21 1
  23   13   22 1
  24   13   23 1
  25   13   24 1

#	End of record

