#	Name: ASD03090297
#	Creating user name:	WinNT
#	Creation time:	15. 06. 2019 20:28

#	Modifying user name:	WinNT
#	Modification time:	15. 06. 2019 20:28

#	Program:	/corina/corina34_cracker 3.40 0067  02.08.2006

@<TRIPOS>MOLECULE
ASD03090297
  46   49    0    0    0
SMALL
NO_CHARGES


@<TRIPOS>ATOM
   1 N1             0.4410     1.5069     1.4726 N.ar    
   2 C2             0.4045     0.1886     1.4376 C.ar    
   3 C3             1.5318    -0.5433     1.1263 C.ar    
   4 C4             2.7240     0.1334     0.8459 C.ar    
   5 C5             2.7167     1.5313     0.8948 C.ar    
   6 C6             1.5435     2.1835     1.2150 C.ar    
   7 C7             3.9586    -0.6094     0.5075 C.2     
   8 N8             5.7405    -3.4560    -0.5300 N.pl3   
   9 C9             4.8158    -4.4454    -0.8743 C.ar    
  10 C10            3.5989    -4.0922    -1.4442 C.ar    
  11 C11            2.6850    -5.0707    -1.7849 C.ar    
  12 C12            2.9781    -6.4021    -1.5596 C.ar    
  13 C13            4.1921    -6.7610    -0.9900 C.ar    
  14 C14            5.1141    -5.7832    -0.6525 C.ar    
  15 N15            4.0243    -1.8652     0.1131 N.2     
  16 C16            5.2960    -2.2029    -0.1037 C.2     
  17 N17            6.0633    -1.1671     0.1491 N.2     
  18 N18            5.2172    -0.1178     0.5428 N.pl3   
  19 C19            5.6195     1.2381     0.9247 C.3     
  20 C20            5.7223     2.1114    -0.3274 C.3     
  21 F21            6.1065     3.4062     0.0373 F       
  22 O22            4.4784    -8.0709    -0.7687 O.3     
  23 C23           -0.8860    -0.5276     1.7422 C.3     
  24 C24           -1.7708    -0.9233     0.5583 C.3     
  25 C25           -0.9946    -1.9957     1.3253 C.3     
  26 C26            3.4842    -9.0252    -1.1466 C.3     
  27 F27            3.2361    -8.9213    -2.5196 F       
  28 F28            3.9392   -10.3147    -0.8512 F       
  29 F29            2.3037    -8.7737    -0.4392 F       
  30 H30            1.4947    -1.6224     1.0998 H       
  31 H31            3.6159     2.0918     0.6853 H       
  32 H32            1.5278     3.2627     1.2553 H       
  33 H33            6.6913    -3.6397    -0.5872 H       
  34 H34            3.3672    -3.0523    -1.6207 H       
  35 H35            1.7396    -4.7944    -2.2278 H       
  36 H36            2.2614    -7.1647    -1.8267 H       
  37 H37            6.0591    -6.0605    -0.2093 H       
  38 H38            4.8772     1.6602     1.6021 H       
  39 H39            6.5881     1.2028     1.4236 H       
  40 H40            6.4647     1.6893    -1.0048 H       
  41 H41            4.7538     2.1467    -0.8262 H       
  42 H42           -1.3837    -0.2278     2.6644 H       
  43 H43           -2.8506    -0.8842     0.7018 H       
  44 H44           -1.4195    -0.6656    -0.4408 H       
  45 H45           -0.1326    -2.4436     0.8308 H       
  46 H46           -1.5637    -2.6622     1.9735 H       
@<TRIPOS>BOND
   1    1    2 ar
   2    1    6 ar
   3    2    3 ar
   4    2   23 1
   5    3    4 ar
   6    3   30 1
   7    4    5 ar
   8    4    7 1
   9    5    6 ar
  10    5   31 1
  11    6   32 1
  12    7   15 2
  13    7   18 1
  14    8    9 1
  15    8   16 1
  16    8   33 1
  17    9   10 ar
  18    9   14 ar
  19   10   11 ar
  20   10   34 1
  21   11   12 ar
  22   11   35 1
  23   12   13 ar
  24   12   36 1
  25   13   14 ar
  26   13   22 1
  27   14   37 1
  28   15   16 1
  29   16   17 2
  30   17   18 1
  31   18   19 1
  32   19   20 1
  33   19   38 1
  34   19   39 1
  35   20   21 1
  36   20   40 1
  37   20   41 1
  38   22   26 1
  39   23   24 1
  40   23   25 1
  41   23   42 1
  42   24   25 1
  43   24   43 1
  44   24   44 1
  45   25   45 1
  46   25   46 1
  47   26   27 1
  48   26   28 1
  49   26   29 1

#	End of record

