#	Name: ASD03082092
#	Creating user name:	WinNT
#	Creation time:	15. 06. 2019 20:27

#	Modifying user name:	WinNT
#	Modification time:	15. 06. 2019 20:27

#	Program:	/corina/corina34_cracker 3.40 0067  02.08.2006

@<TRIPOS>MOLECULE
ASD03082092
  62   65    0    0    0
SMALL
NO_CHARGES


@<TRIPOS>ATOM
   1 C1            -0.0176     1.4478     0.0100 C.3     
   2 O2             0.0021    -0.0041     0.0020 O.3     
   3 C3            -1.1901    -0.6321     0.0100 C.2     
   4 C4            -1.2473    -2.1054     0.0027 C.ar    
   5 O5            -2.2179     0.0157     0.0233 O.2     
   6 C6            -0.0682    -2.8542    -0.0126 C.ar    
   7 C7            -0.1286    -4.2314    -0.0190 C.ar    
   8 C8            -1.3536    -4.8776    -0.0103 C.ar    
   9 C9            -2.5275    -4.1501     0.0044 C.ar    
  10 C10           -2.4861    -2.7636     0.0168 C.ar    
  11 C11            1.4178     1.9774    -0.0009 C.3     
  12 C12            2.0960     1.5891    -1.3176 C.3     
  13 C13            3.5108     2.1738    -1.3457 C.3     
  14 C14            3.4332     3.6929    -1.1776 C.3     
  15 N15            2.7773     4.0127     0.0968 N.3     
  16 C16            1.4008     3.5022     0.1283 C.3     
  17 N17           -3.6720    -2.0264     0.0316 N.am    
  18 C18            2.8087     5.4582     0.3568 C.3     
  19 C19           -4.2797    -1.6543     1.1650 C.2     
  20 C20           -5.5313    -0.8745     0.8260 C.3     
  21 C21           -5.5418    -0.8604    -0.7162 C.3     
  22 C22           -4.2919    -1.6288    -1.0864 C.2     
  23 C23           -6.7727    -1.5872     1.3664 C.3     
  24 O24           -3.8892    -1.9029     2.2854 O.2     
  25 O25           -3.9154    -1.8548    -2.2163 O.2     
  26 C26            1.9534     6.1825    -0.6846 C.3     
  27 C27           -6.7437    -1.5735     2.8730 C.ar    
  28 C28           -7.3259    -0.5287     3.5661 C.ar    
  29 C29           -7.2993    -0.5161     4.9481 C.ar    
  30 C30           -6.6910    -1.5487     5.6371 C.ar    
  31 C31           -6.1097    -2.5940     4.9441 C.ar    
  32 C32           -6.1400    -2.6087     3.5621 C.ar    
  33 H33           -0.5448     1.8089    -0.8731 H       
  34 H34           -0.5278     1.7993     0.9068 H       
  35 H35            0.8894    -2.3549    -0.0198 H       
  36 H36            0.7837    -4.8092    -0.0311 H       
  37 H37           -1.3911    -5.9569    -0.0153 H       
  38 H38           -3.4788    -4.6614     0.0104 H       
  39 H39            1.9708     1.5470     0.8341 H       
  40 H40            2.1491     0.5030    -1.3936 H       
  41 H41            1.5211     1.9860    -2.1543 H       
  42 H42            4.0972     1.7471    -0.5319 H       
  43 H43            3.9837     1.9368    -2.2988 H       
  44 H44            4.4399     4.1108    -1.1828 H       
  45 H45            2.8584     4.1203    -1.9992 H       
  46 H46            0.8355     3.9305    -0.6994 H       
  47 H47            0.9313     3.7816     1.0715 H       
  48 H48            2.4137     5.6568     1.3531 H       
  49 H49            3.8365     5.8161     0.2955 H       
  50 H50           -5.4691     0.1405     1.2185 H       
  51 H51           -6.4313    -1.3611    -1.0984 H       
  52 H52           -5.4847     0.1616    -1.0909 H       
  53 H53           -7.6679    -1.0739     1.0155 H       
  54 H54           -6.7827    -2.6181     1.0125 H       
  55 H55            2.3484     5.9839    -1.6809 H       
  56 H56            0.9257     5.8246    -0.6233 H       
  57 H57            1.9767     7.2550    -0.4916 H       
  58 H58           -7.8011     0.2780     3.0277 H       
  59 H59           -7.7535     0.3006     5.4895 H       
  60 H60           -6.6696    -1.5385     6.7168 H       
  61 H61           -5.6341    -3.4005     5.4824 H       
  62 H62           -5.6859    -3.4254     3.0207 H       
@<TRIPOS>BOND
   1    1    2 1
   2    1   11 1
   3    1   33 1
   4    1   34 1
   5    2    3 1
   6    3    4 1
   7    3    5 2
   8    4    6 ar
   9    4   10 ar
  10    6    7 ar
  11    6   35 1
  12    7    8 ar
  13    7   36 1
  14    8    9 ar
  15    8   37 1
  16    9   10 ar
  17    9   38 1
  18   10   17 1
  19   11   12 1
  20   11   16 1
  21   11   39 1
  22   12   13 1
  23   12   40 1
  24   12   41 1
  25   13   14 1
  26   13   42 1
  27   13   43 1
  28   14   15 1
  29   14   44 1
  30   14   45 1
  31   15   16 1
  32   15   18 1
  33   16   46 1
  34   16   47 1
  35   17   19 am
  36   17   22 am
  37   18   26 1
  38   18   48 1
  39   18   49 1
  40   19   20 1
  41   19   24 2
  42   20   21 1
  43   20   23 1
  44   20   50 1
  45   21   22 1
  46   21   51 1
  47   21   52 1
  48   22   25 2
  49   23   27 1
  50   23   53 1
  51   23   54 1
  52   26   55 1
  53   26   56 1
  54   26   57 1
  55   27   28 ar
  56   27   32 ar
  57   28   29 ar
  58   28   58 1
  59   29   30 ar
  60   29   59 1
  61   30   31 ar
  62   30   60 1
  63   31   32 ar
  64   31   61 1
  65   32   62 1

#	End of record

