#	Name: ASD03240195
#	Creating user name:	WinNT
#	Creation time:	15. 06. 2019 20:34

#	Modifying user name:	WinNT
#	Modification time:	15. 06. 2019 20:34

#	Program:	/corina/corina34_cracker 3.40 0067  02.08.2006

@<TRIPOS>MOLECULE
ASD03240195
  49   53    0    0    0
SMALL
NO_CHARGES


@<TRIPOS>ATOM
   1 C1            -0.0167     1.3782     0.0096 C.ar    
   2 C2             0.0021    -0.0041     0.0020 C.ar    
   3 C3            -1.1837    -0.7127     0.0095 C.ar    
   4 C4            -2.3959    -0.0357     0.0247 C.ar    
   5 C5            -2.4126     1.3527     0.0324 C.ar    
   6 C6            -1.2231     2.0565     0.0305 C.ar    
   7 N7            -3.5996    -0.7521     0.0319 N.pl3   
   8 C8            -3.9114    -1.7686    -0.8313 C.2     
   9 C9            -5.1503    -2.2419    -0.5491 C.2     
  10 C10           -5.6513    -1.4538     0.5846 C.ar    
  11 C11           -4.6330    -0.5403     0.9080 C.ar    
  12 C12           -6.8327    -1.4403     1.3376 C.ar    
  13 N13           -6.9417    -0.5564     2.3259 N.ar    
  14 C14           -5.9628     0.2886     2.5933 C.ar    
  15 N15           -4.8346     0.3061     1.9166 N.ar    
  16 N16           -7.8605    -2.3238     1.0600 N.pl3   
  17 C17           -9.0881    -2.2938     1.8590 C.3     
  18 C18          -10.0405    -3.3480     1.3564 C.2     
  19 C19          -10.0933    -4.6075     1.7926 C.2     
  20 C20           -5.8603    -3.3393    -1.2482 C.ar    
  21 C21           -5.9557    -3.3368    -2.6392 C.ar    
  22 C22           -6.4303    -4.3812    -0.5177 C.ar    
  23 C23           -7.0896    -5.4004    -1.1740 C.ar    
  24 C24           -7.1852    -5.3900    -2.5541 C.ar    
  25 C25           -6.6175    -4.3614    -3.2845 C.ar    
  26 C26            1.2789     2.1480     0.0014 C.3     
  27 Cl27          -1.2422     3.7924     0.0401 Cl      
  28 C28          -11.0526    -5.3966     1.1817 C.2     
  29 C29          -11.7788    -4.7779     0.2494 C.2     
  30 S30          -11.2575    -3.1039     0.1104 S.3     
  31 H31            0.9449    -0.5306    -0.0102 H       
  32 H32           -1.1680    -1.7925     0.0032 H       
  33 H33           -3.3540     1.8820     0.0442 H       
  34 H34           -3.2686    -2.1369    -1.6172 H       
  35 H35           -6.0913     0.9904     3.4041 H       
  36 H36           -7.7684    -2.9631     0.3364 H       
  37 H37           -8.8466    -2.4905     2.9036 H       
  38 H38           -9.5540    -1.3122     1.7725 H       
  39 H39           -9.4370    -4.9832     2.5637 H       
  40 H40           -5.5128    -2.5343    -3.2104 H       
  41 H41           -6.3556    -4.3907     0.5597 H       
  42 H42           -7.5315    -6.2079    -0.6092 H       
  43 H43           -7.7015    -6.1902    -3.0635 H       
  44 H44           -6.6956    -4.3584    -4.3617 H       
  45 H45            1.5814     2.3391    -1.0282 H       
  46 H46            1.1416     3.0959     0.5216 H       
  47 H47            2.0507     1.5657     0.5047 H       
  48 H48          -11.2015    -6.4346     1.4401 H       
  49 H49          -12.5685    -5.2342    -0.3289 H       
@<TRIPOS>BOND
   1    1    2 ar
   2    1   26 1
   3    1    6 ar
   4    2    3 ar
   5    2   31 1
   6    3    4 ar
   7    3   32 1
   8    4    5 ar
   9    4    7 1
  10    5    6 ar
  11    5   33 1
  12    6   27 1
  13    7    8 1
  14    7   11 1
  15    8    9 2
  16    8   34 1
  17    9   10 1
  18    9   20 1
  19   10   11 ar
  20   10   12 ar
  21   11   15 ar
  22   12   13 ar
  23   12   16 1
  24   13   14 ar
  25   14   15 ar
  26   14   35 1
  27   16   17 1
  28   16   36 1
  29   17   18 1
  30   17   37 1
  31   17   38 1
  32   18   19 2
  33   18   30 1
  34   19   28 1
  35   19   39 1
  36   20   21 ar
  37   20   22 ar
  38   21   25 ar
  39   21   40 1
  40   22   23 ar
  41   22   41 1
  42   23   24 ar
  43   23   42 1
  44   24   25 ar
  45   24   43 1
  46   25   44 1
  47   26   45 1
  48   26   46 1
  49   26   47 1
  50   28   29 2
  51   28   48 1
  52   29   30 1
  53   29   49 1

#	End of record

