#	Name: ASD03091205
#	Creating user name:	WinNT
#	Creation time:	15. 06. 2019 20:30

#	Modifying user name:	WinNT
#	Modification time:	15. 06. 2019 20:30

#	Program:	/corina/corina34_cracker 3.40 0067  02.08.2006

@<TRIPOS>MOLECULE
ASD03091205
  47   50    0    0    0
SMALL
NO_CHARGES


@<TRIPOS>ATOM
   1 C1            -0.7015     1.3960     0.0540 C.3     
   2 N2            -0.4476    -0.0466     0.0309 N.am    
   3 C3            -0.1888    -0.7039     1.1924 C.2     
   4 N4             0.0457    -1.9790     1.2544 N.2     
   5 C5             0.0485    -2.7570     0.1424 C.ar    
   6 C6            -0.2108    -2.1599    -1.1112 C.ar    
   7 C7            -0.4781    -0.7143    -1.1461 C.2     
   8 C8            -0.1730     0.0889     2.4740 C.3     
   9 O9            -0.7086    -0.1389    -2.1937 O.2     
  10 C10            0.3015    -4.1290     0.2101 C.ar    
  11 C11            0.2963    -4.8795    -0.9308 C.ar    
  12 C12            0.0409    -4.2951    -2.1712 C.ar    
  13 C13           -0.2131    -2.9374    -2.2670 C.ar    
  14 N14            0.0416    -5.0848    -3.3245 N.3     
  15 C15            0.6005    -4.3482    -4.4668 C.3     
  16 C16            1.4393    -5.2732    -5.3358 C.3     
  17 C17            0.6117    -6.2385    -6.1603 C.3     
  18 N18           -0.8279    -5.9827    -6.0093 N.3     
  19 C19           -1.3178    -6.5869    -4.7610 C.3     
  20 C20           -1.3098    -5.5683    -3.6318 C.3     
  21 C21           -1.1801    -4.5966    -6.2312 C.3     
  22 C22           -0.5277    -3.6678    -5.2204 C.3     
  23 C23            0.1360    -0.8438     3.6468 C.3     
  24 H24            0.2400     1.9326    -0.0629 H       
  25 H25           -1.3738     1.6597    -0.7625 H       
  26 H26           -1.1598     1.6691     1.0045 H       
  27 H27            0.5926     0.8623     2.4134 H       
  28 H28           -1.1474     0.5532     2.6260 H       
  29 H29            0.5013    -4.5956     1.1634 H       
  30 H30            0.4930    -5.9398    -0.8718 H       
  31 H31           -0.4107    -2.4858    -3.2279 H       
  32 H32            1.2524    -3.5662    -4.0773 H       
  33 H33            2.0434    -4.6665    -6.0103 H       
  34 H34            2.1072    -5.8464    -4.6928 H       
  35 H35            0.8836    -6.1333    -7.2105 H       
  36 H36            0.8277    -7.2573    -5.8384 H       
  37 H37           -2.3352    -6.9477    -4.9118 H       
  38 H38           -0.6761    -7.4260    -4.4922 H       
  39 H39           -1.7318    -6.0283    -2.7383 H       
  40 H40           -1.9318    -4.7199    -3.9172 H       
  41 H41           -0.8629    -4.3074    -7.2331 H       
  42 H42           -2.2627    -4.4913    -6.1608 H       
  43 H43           -1.2813    -3.3360    -4.5062 H       
  44 H44           -0.1304    -2.7979    -5.7434 H       
  45 H45            0.1475    -0.2705     4.5738 H       
  46 H46           -0.6296    -1.6173     3.7075 H       
  47 H47            1.1104    -1.3082     3.4948 H       
@<TRIPOS>BOND
   1    1    2 1
   2    1   24 1
   3    1   25 1
   4    1   26 1
   5    2    3 1
   6    2    7 am
   7    3    4 2
   8    3    8 1
   9    4    5 1
  10    5    6 ar
  11    5   10 ar
  12    6    7 1
  13    6   13 ar
  14    7    9 2
  15    8   23 1
  16    8   27 1
  17    8   28 1
  18   10   11 ar
  19   10   29 1
  20   11   12 ar
  21   11   30 1
  22   12   13 ar
  23   12   14 1
  24   13   31 1
  25   14   15 1
  26   14   20 1
  27   15   16 1
  28   15   22 1
  29   15   32 1
  30   16   17 1
  31   16   33 1
  32   16   34 1
  33   17   18 1
  34   17   35 1
  35   17   36 1
  36   18   19 1
  37   18   21 1
  38   19   20 1
  39   19   37 1
  40   19   38 1
  41   20   39 1
  42   20   40 1
  43   21   22 1
  44   21   41 1
  45   21   42 1
  46   22   43 1
  47   22   44 1
  48   23   45 1
  49   23   46 1
  50   23   47 1

#	End of record

