#	Name: ASD01811502
#	Creating user name:	WinNT
#	Creation time:	15. 06. 2019 19:26

#	Modifying user name:	WinNT
#	Modification time:	15. 06. 2019 19:26

#	Program:	/corina/corina34_cracker 3.40 0067  02.08.2006

@<TRIPOS>MOLECULE
ASD01811502
  73   76    0    0    0
SMALL
NO_CHARGES


@<TRIPOS>ATOM
   1 C1            -7.6539     2.4753    -4.1278 C.1     
   2 C2            -6.6440     3.2273    -3.4458 C.ar    
   3 C3            -5.4800     2.5967    -3.0015 C.ar    
   4 C4            -4.5112     3.3272    -2.3452 C.ar    
   5 C5            -4.6910     4.6816    -2.1265 C.ar    
   6 C6            -5.8421     5.3126    -2.5636 C.ar    
   7 C7            -6.8160     4.5956    -3.2272 C.ar    
   8 N8            -8.4551     1.8787    -4.6687 N.1     
   9 N9            -2.5315     7.8383    -0.3121 N.am    
  10 C10           -2.0124     7.3676    -1.6035 C.3     
  11 C11           -3.1164     6.5872    -2.3238 C.3     
  12 C12           -3.6284     5.4728    -1.4083 C.3     
  13 C13           -4.2209     6.0862    -0.1375 C.3     
  14 C14           -3.1294     6.8609     0.6076 C.3     
  15 C15           -2.4558     9.1411     0.0248 C.2     
  16 C16           -3.0587     9.6141     1.2894 C.ar    
  17 C17           -3.9985    10.6474     1.2733 C.ar    
  18 C18           -4.5622    11.0899     2.4532 C.ar    
  19 C19           -4.2018    10.5151     3.6561 C.ar    
  20 C20           -3.2638     9.4816     3.6863 C.ar    
  21 C21           -2.6952     9.0262     2.4989 C.ar    
  22 O22           -1.8917     9.9273    -0.7109 O.2     
  23 C23           -4.8222    11.0051     4.9392 C.3     
  24 C24           -4.3974    11.2808    -0.0346 C.3     
  25 N25           -0.8467     7.8307     9.3632 N.3     
  26 C26           -0.1047     7.4755     8.1723 C.3     
  27 C27           -0.9800     6.6539     7.2105 C.3     
  28 C28           -1.8786     7.6382     6.4835 C.2     
  29 C29           -2.8186     8.3927     7.0794 C.2     
  30 C30           -3.1098     8.3702     8.5709 C.3     
  31 C31           -1.8437     8.8762     9.2809 C.3     
  32 C32           -2.8787     8.8675     4.9759 C.2     
  33 N33           -1.9013     7.9274     5.1544 N.pl3   
  34 N34           -3.4188     9.1332     6.1483 N.2     
  35 H35           -5.3388     1.5395    -3.1710 H       
  36 H36           -3.6105     2.8408    -2.0010 H       
  37 H37           -5.9762     6.3700    -2.3893 H       
  38 H38           -7.7119     5.0904    -3.5722 H       
  39 H39           -1.7133     8.2222    -2.2105 H       
  40 H40           -1.1540     6.7168    -1.4369 H       
  41 H41           -3.9368     7.2612    -2.5703 H       
  42 H42           -2.7158     6.1511    -3.2389 H       
  43 H43           -2.8023     4.8134    -1.1420 H       
  44 H44           -5.0309     6.7649    -0.4046 H       
  45 H45           -4.6064     5.2933     0.5035 H       
  46 H46           -2.3621     6.1687     0.9545 H       
  47 H47           -3.5673     7.3810     1.4595 H       
  48 H48           -5.2881    11.8894     2.4354 H       
  49 H49           -1.9723     8.2239     2.5165 H       
  50 H50           -5.6672    10.3682     5.2006 H       
  51 H51           -4.0808    10.9708     5.7375 H       
  52 H52           -5.1672    12.0306     4.8075 H       
  53 H53           -5.1881    10.6906    -0.4979 H       
  54 H54           -4.7585    12.2930     0.1471 H       
  55 H55           -3.5341    11.3168    -0.6991 H       
  56 H56           -1.2204     7.0094     9.8148 H       
  57 H57            0.2245     8.3850     7.6698 H       
  58 H58            0.7678     6.8866     8.4552 H       
  59 H59           -0.3511     6.1249     6.4945 H       
  60 H60           -1.5849     5.9427     7.7729 H       
  61 H61           -3.9505     9.0264     8.7960 H       
  62 H62           -3.3343     7.3527     8.8910 H       
  63 H63           -2.1037     9.2037    10.2875 H       
  64 H64           -1.4338     9.7195     8.7250 H       
  65 H65           -1.3346     7.5426     4.4676 H       
  66 C66            6.9393    19.2813    16.4343 C.2     
  67 C67            6.9597    17.7744    16.4260 C.3     
  68 O68            7.9773    19.8996    16.4277 O.2     
  69 O69            5.7678    19.9365    16.4434 O.3     
  70 F70            8.2848    17.3261    16.4109 F       
  71 F71            6.3175    17.2930    17.5719 F       
  72 F72            6.2957    17.3053    15.2875 F       
  73 H73            5.8053    20.9028    16.4485 H       
@<TRIPOS>BOND
   1    1    2 1
   2    1    8 3
   3    2    3 ar
   4    2    7 ar
   5    3    4 ar
   6    3   35 1
   7    4    5 ar
   8    4   36 1
   9    5    6 ar
  10    5   12 1
  11    6    7 ar
  12    6   37 1
  13    7   38 1
  14    9   10 1
  15    9   14 1
  16    9   15 am
  17   10   11 1
  18   10   39 1
  19   10   40 1
  20   11   12 1
  21   11   41 1
  22   11   42 1
  23   12   13 1
  24   12   43 1
  25   13   14 1
  26   13   44 1
  27   13   45 1
  28   14   46 1
  29   14   47 1
  30   15   16 1
  31   15   22 2
  32   16   17 ar
  33   16   21 ar
  34   17   18 ar
  35   17   24 1
  36   18   19 ar
  37   18   48 1
  38   19   20 ar
  39   19   23 1
  40   20   21 ar
  41   20   32 1
  42   21   49 1
  43   23   50 1
  44   23   51 1
  45   23   52 1
  46   24   53 1
  47   24   54 1
  48   24   55 1
  49   25   26 1
  50   25   31 1
  51   25   56 1
  52   26   27 1
  53   26   57 1
  54   26   58 1
  55   27   28 1
  56   27   59 1
  57   27   60 1
  58   28   29 2
  59   28   33 1
  60   29   30 1
  61   29   34 1
  62   30   31 1
  63   30   61 1
  64   30   62 1
  65   31   63 1
  66   31   64 1
  67   32   33 1
  68   32   34 2
  69   33   65 1
  70   66   67 1
  71   66   68 2
  72   66   69 1
  73   67   70 1
  74   67   71 1
  75   67   72 1
  76   69   73 1

#	End of record

