#	Name: ASD03240022
#	Creating user name:	WinNT
#	Creation time:	15. 06. 2019 20:34

#	Modifying user name:	WinNT
#	Modification time:	15. 06. 2019 20:34

#	Program:	/corina/corina34_cracker 3.40 0067  02.08.2006

@<TRIPOS>MOLECULE
ASD03240022
  71   78    0    0    0
SMALL
NO_CHARGES


@<TRIPOS>ATOM
   1 C1             0.0581     1.5428     0.1615 C.ar    
   2 C2            -0.0651     0.0994    -0.0582 C.ar    
   3 N3             1.2697     2.1094     0.1987 N.ar    
   4 C4             2.3473     1.3645     0.0371 C.ar    
   5 C5             2.2250    -0.0741    -0.1819 C.ar    
   6 N6             1.0359    -0.6451    -0.2207 N.ar    
   7 C7             3.4433    -0.8974    -0.3622 C.ar    
   8 C8             3.6886     1.9916     0.0777 C.ar    
   9 C9             3.9261     3.1819    -0.6093 C.ar    
  10 C10            5.1776     3.7615    -0.5673 C.ar    
  11 C11            6.1957     3.1643     0.1543 C.ar    
  12 C12            5.9664     1.9833     0.8374 C.ar    
  13 C13            4.7176     1.3971     0.8077 C.ar    
  14 C14            3.5700    -2.1156     0.3049 C.ar    
  15 C15            4.7072    -2.8781     0.1330 C.ar    
  16 C16            5.7205    -2.4361    -0.6987 C.ar    
  17 C17            5.6006    -1.2286    -1.3631 C.ar    
  18 C18            4.4655    -0.4602    -1.2041 C.ar    
  19 C19            6.9603    -3.2731    -0.8813 C.3     
  20 N20            6.7680    -4.1933    -2.0101 N.3     
  21 C21            8.0283    -4.8557    -2.3697 C.3     
  22 C22            7.8237    -5.6919    -3.6350 C.3     
  23 C23            6.7318    -6.7347    -3.3806 C.3     
  24 C24            5.4435    -6.0214    -2.9610 C.3     
  25 C25            5.7171    -5.1756    -1.7153 C.3     
  26 N26            6.4907    -7.5000    -4.6064 N.am    
  27 C27            6.6436    -8.8769    -4.7511 C.ar    
  28 C28            6.3107    -9.1833    -6.0720 C.ar    
  29 N29            5.9658    -7.9831    -6.6890 N.am    
  30 C30            6.0779    -6.9931    -5.7834 C.2     
  31 C31            7.0322    -9.8874    -3.8848 C.ar    
  32 C32            7.0884   -11.1927    -4.3323 C.ar    
  33 C33            6.7583   -11.4965    -5.6420 C.ar    
  34 C34            6.3701   -10.4968    -6.5122 C.ar    
  35 O35            5.8492    -5.8174    -5.9985 O.2     
  36 C36           -1.3376    -0.4821    -0.0946 C.ar    
  37 C37           -2.4618     0.3126     0.0772 C.ar    
  38 C38           -2.3368     1.7053     0.2890 C.ar    
  39 C39           -1.1015     2.3114     0.3362 C.ar    
  40 N40           -3.7936     0.0315     0.0902 N.2     
  41 C41           -4.4710     1.1229     0.2892 C.2     
  42 N42           -3.6300     2.1849     0.4188 N.pl3   
  43 H43            3.1322     3.6488    -1.1733 H       
  44 H44            5.3628     4.6830    -1.0991 H       
  45 H45            7.1736     3.6217     0.1842 H       
  46 H46            6.7653     1.5214     1.3985 H       
  47 H47            4.5397     0.4754     1.3417 H       
  48 H48            2.7799    -2.4614     0.9549 H       
  49 H49            4.8065    -3.8216     0.6490 H       
  50 H50            6.3952    -0.8886    -2.0107 H       
  51 H51            4.3729     0.4821    -1.7235 H       
  52 H52            7.8113    -2.6228    -1.0835 H       
  53 H53            7.1487    -3.8463     0.0266 H       
  54 H54            8.7952    -4.1028    -2.5520 H       
  55 H55            8.3435    -5.5045    -1.5525 H       
  56 H56            7.5218    -5.0417    -4.4560 H       
  57 H57            8.7553    -6.1958    -3.8927 H       
  58 H58            7.0502    -7.4092    -2.5857 H       
  59 H59            5.1042    -5.3764    -3.7715 H       
  60 H60            4.6745    -6.7607    -2.7372 H       
  61 H61            6.0432    -5.8230    -0.9012 H       
  62 H62            4.8053    -4.6551    -1.4223 H       
  63 H63            5.6884    -7.8788    -7.6126 H       
  64 H64            7.2908    -9.6542    -2.8624 H       
  65 H65            7.3915   -11.9798    -3.6577 H       
  66 H66            6.8047   -12.5197    -5.9847 H       
  67 H67            6.1130   -10.7377    -7.5331 H       
  68 H68           -1.4440    -1.5446    -0.2560 H       
  69 H69           -1.0263     3.3764     0.4993 H       
  70 H70           -5.5482     1.1791     0.3433 H       
  71 H71           -3.8881     3.1070     0.5736 H       
@<TRIPOS>BOND
   1    1    2 ar
   2    1    3 ar
   3    1   39 ar
   4    2   36 ar
   5    2    6 ar
   6    3    4 ar
   7    4    5 ar
   8    4    8 1
   9    5    6 ar
  10    5    7 1
  11    7   14 ar
  12    7   18 ar
  13    8    9 ar
  14    8   13 ar
  15    9   10 ar
  16    9   43 1
  17   10   11 ar
  18   10   44 1
  19   11   12 ar
  20   11   45 1
  21   12   13 ar
  22   12   46 1
  23   13   47 1
  24   14   15 ar
  25   14   48 1
  26   15   16 ar
  27   15   49 1
  28   16   17 ar
  29   16   19 1
  30   17   18 ar
  31   17   50 1
  32   18   51 1
  33   19   20 1
  34   19   52 1
  35   19   53 1
  36   20   21 1
  37   20   25 1
  38   21   22 1
  39   21   54 1
  40   21   55 1
  41   22   23 1
  42   22   56 1
  43   22   57 1
  44   23   24 1
  45   23   26 1
  46   23   58 1
  47   24   25 1
  48   24   59 1
  49   24   60 1
  50   25   61 1
  51   25   62 1
  52   26   27 1
  53   26   30 am
  54   27   28 ar
  55   27   31 ar
  56   28   29 1
  57   28   34 ar
  58   29   30 am
  59   29   63 1
  60   30   35 2
  61   31   32 ar
  62   31   64 1
  63   32   33 ar
  64   32   65 1
  65   33   34 ar
  66   33   66 1
  67   34   67 1
  68   36   37 ar
  69   36   68 1
  70   37   38 ar
  71   37   40 1
  72   38   39 ar
  73   38   42 1
  74   39   69 1
  75   40   41 2
  76   41   42 1
  77   41   70 1
  78   42   71 1

#	End of record

