#	Name: ASD02508278
#	Creating user name:	WinNT
#	Creation time:	15. 06. 2019 20:24

#	Modifying user name:	WinNT
#	Modification time:	15. 06. 2019 20:24

#	Program:	/corina/corina34_cracker 3.40 0067  02.08.2006

@<TRIPOS>MOLECULE
ASD02508278
  39   41    0    0    0
SMALL
NO_CHARGES


@<TRIPOS>ATOM
   1 C1             0.2330     0.7378     0.0100 C.ar    
   2 C2             0.0475    -0.6396    -0.1038 C.ar    
   3 C3            -1.2326    -1.1707    -0.0989 C.ar    
   4 C4            -2.3244    -0.3328     0.0189 C.ar    
   5 C5            -2.1421     1.0366     0.1322 C.ar    
   6 C6            -0.8670     1.5723     0.1326 C.ar    
   7 S7            -3.9526    -1.0062     0.0248 S.o2    
   8 N8            -4.5895    -0.7359     1.5293 N.am    
   9 C9            -4.0081    -1.3315     2.6510 C.ar    
  10 O10            1.5685     0.9684    -0.0231 O.3     
  11 C11            2.2153    -0.2007    -0.1519 C.2     
  12 N12            1.3191    -1.2060    -0.2046 N.am    
  13 O13           -4.7151    -0.2203    -0.8808 O.2     
  14 O14           -3.8051    -2.4139    -0.1016 O.2     
  15 O15            3.4226    -0.3323    -0.2122 O.2     
  16 C16            1.6240    -2.6322    -0.3428 C.3     
  17 C17           -3.7574    -0.5756     3.7892 C.ar    
  18 F18           -3.2141     1.8508     0.2472 F       
  19 C19           -3.6846    -2.6823     2.6330 C.ar    
  20 C20           -3.1098    -3.2679     3.7438 C.ar    
  21 C21           -2.8568    -2.5114     4.8733 C.ar    
  22 C22           -3.1824    -1.1676     4.8965 C.ar    
  23 C23           -2.9048    -0.3470     6.1297 C.3     
  24 C24           -2.7585    -4.7333     3.7252 C.3     
  25 H25           -1.3763    -2.2375    -0.1874 H       
  26 H26           -0.7289     2.6397     0.2211 H       
  27 H27           -5.3663    -0.1641     1.6316 H       
  28 H28            2.7039    -2.7692    -0.3988 H       
  29 H29            1.2336    -3.1725     0.5197 H       
  30 H30            1.1614    -3.0162    -1.2520 H       
  31 H31           -4.0115     0.4739     3.8080 H       
  32 H32           -3.8826    -3.2739     1.7514 H       
  33 H33           -2.4079    -2.9720     5.7409 H       
  34 H34           -1.9055     0.0830     6.0626 H       
  35 H35           -3.6405     0.4535     6.2067 H       
  36 H36           -2.9676    -0.9842     7.0118 H       
  37 H37           -1.7398    -4.8580     3.3579 H       
  38 H38           -2.8329    -5.1376     4.7347 H       
  39 H39           -3.4487    -5.2641     3.0694 H       
@<TRIPOS>BOND
   1    1    2 ar
   2    1   10 1
   3    1    6 ar
   4    2    3 ar
   5    2   12 1
   6    3    4 ar
   7    3   25 1
   8    4    5 ar
   9    4    7 1
  10    5    6 ar
  11    5   18 1
  12    6   26 1
  13    7    8 am
  14    7   13 2
  15    7   14 2
  16    8    9 1
  17    8   27 1
  18    9   17 ar
  19    9   19 ar
  20   10   11 1
  21   11   12 am
  22   11   15 2
  23   12   16 1
  24   16   28 1
  25   16   29 1
  26   16   30 1
  27   17   22 ar
  28   17   31 1
  29   19   20 ar
  30   19   32 1
  31   20   21 ar
  32   20   24 1
  33   21   22 ar
  34   21   33 1
  35   22   23 1
  36   23   34 1
  37   23   35 1
  38   23   36 1
  39   24   37 1
  40   24   38 1
  41   24   39 1

#	End of record

