#	Name: ASD01881636
#	Creating user name:	WinNT
#	Creation time:	15. 06. 2019 19:43

#	Modifying user name:	WinNT
#	Modification time:	15. 06. 2019 19:43

#	Program:	/corina/corina34_cracker 3.40 0067  02.08.2006

@<TRIPOS>MOLECULE
ASD01881636
  50   52    0    0    0
SMALL
NO_CHARGES


@<TRIPOS>ATOM
   1 N1            -0.0154     1.2839     0.0091 N.pl3   
   2 N2             0.0021    -0.0041     0.0020 N.2     
   3 N3             1.2033    -0.4649    -0.0119 N.2     
   4 C4             2.0741     0.5645    -0.0147 C.ar    
   5 C5             1.2843     1.7298    -0.0009 C.ar    
   6 C6             3.4670     0.6759    -0.0271 C.ar    
   7 C7             4.0484     1.9285    -0.0255 C.ar    
   8 C8             3.2560     3.0739    -0.0118 C.ar    
   9 C9             1.8924     2.9784    -0.0004 C.ar    
  10 C10           -1.2133     2.1272     0.0196 C.3     
  11 C11           -1.6228     2.4135     1.4657 C.3     
  12 C12           -0.4829     3.1377     2.1848 C.3     
  13 C13           -2.8739     3.2942     1.4767 C.3     
  14 C14           -1.9212     1.0947     2.1819 C.3     
  15 O15            5.4033     2.0444    -0.0370 O.3     
  16 C16            5.9411     3.3683    -0.0346 C.3     
  17 C17            7.4465     3.2990    -0.0485 C.ar    
  18 C18            8.1181     3.2741    -1.2563 C.ar    
  19 C19            9.5029     3.2107    -1.2580 C.ar    
  20 C20           10.1634     3.1746    -0.0392 C.ar    
  21 C21            9.4246     3.2028     1.1281 C.ar    
  22 N22            8.1079     3.2683     1.0918 N.ar    
  23 N23           10.2586     3.1817    -2.5305 N.pl3   
  24 O24           10.6177     4.2235    -3.0493 O.2     
  25 O25           10.5212     2.1161    -3.0586 O.2     
  26 C26           11.6680     3.1050     0.0115 C.3     
  27 C27            7.3546     3.3147    -2.5550 C.3     
  28 Br28           4.5472    -0.8761    -0.0451 Br      
  29 H29            3.7236     4.0474    -0.0103 H       
  30 H30            1.2882     3.8735     0.0099 H       
  31 H31           -1.0007     3.0667    -0.4906 H       
  32 H32           -2.0254     1.6113    -0.4926 H       
  33 H33           -0.2704     4.0772     1.6746 H       
  34 H34           -0.7746     3.3417     3.2150 H       
  35 H35            0.4084     2.5103     2.1769 H       
  36 H36           -3.6859     2.7782     0.9645 H       
  37 H37           -3.1656     3.4981     2.5070 H       
  38 H38           -2.6613     4.2337     0.9666 H       
  39 H39           -1.0299     0.4673     2.1740 H       
  40 H40           -2.2129     1.2987     3.2121 H       
  41 H41           -2.7332     0.5788     1.6696 H       
  42 H42            5.5939     3.9031    -0.9187 H       
  43 H43            5.6098     3.8935     0.8612 H       
  44 H44            9.9315     3.1750     2.0814 H       
  45 H45           12.0781     4.1148     0.0285 H       
  46 H46           11.9769     2.5722     0.9108 H       
  47 H47           12.0372     2.5777    -0.8681 H       
  48 H48            7.2171     4.3511    -2.8633 H       
  49 H49            7.9134     2.7785    -3.3220 H       
  50 H50            6.3809     2.8440    -2.4189 H       
@<TRIPOS>BOND
   1    1    2 1
   2    1    5 1
   3    1   10 1
   4    2    3 2
   5    3    4 1
   6    4    5 ar
   7    4    6 ar
   8    5    9 ar
   9    6    7 ar
  10    6   28 1
  11    7    8 ar
  12    7   15 1
  13    8    9 ar
  14    8   29 1
  15    9   30 1
  16   10   11 1
  17   10   31 1
  18   10   32 1
  19   11   12 1
  20   11   13 1
  21   11   14 1
  22   12   33 1
  23   12   34 1
  24   12   35 1
  25   13   36 1
  26   13   37 1
  27   13   38 1
  28   14   39 1
  29   14   40 1
  30   14   41 1
  31   15   16 1
  32   16   17 1
  33   16   42 1
  34   16   43 1
  35   17   18 ar
  36   17   22 ar
  37   18   19 ar
  38   18   27 1
  39   19   20 ar
  40   19   23 1
  41   20   21 ar
  42   20   26 1
  43   21   22 ar
  44   21   44 1
  45   23   24 2
  46   23   25 2
  47   26   45 1
  48   26   46 1
  49   26   47 1
  50   27   48 1
  51   27   49 1
  52   27   50 1

#	End of record

