#	Name: ASD01230740
#	Creating user name:	WinNT
#	Creation time:	15. 06. 2019 19:15

#	Modifying user name:	WinNT
#	Modification time:	15. 06. 2019 19:15

#	Program:	/corina/corina34_cracker 3.40 0067  02.08.2006

@<TRIPOS>MOLECULE
ASD01230740
  42   45    0    0    0
SMALL
NO_CHARGES


@<TRIPOS>ATOM
   1 C1            -0.0140     1.3070     0.0101 C.2     
   2 N2            -0.0552     0.0873    -0.4772 N.2     
   3 C3            -1.1892    -0.6110    -0.4745 C.2     
   4 C4            -2.3370    -0.1007     0.0092 C.2     
   5 N5            -2.3948     1.1728     0.5262 N.pl3   
   6 C6            -1.2457     1.9101     0.5738 C.2     
   7 C7            -3.6988     1.6475     0.9871 C.3     
   8 C8            -3.5377     2.5527     2.2126 C.3     
   9 S9            -2.4243     3.9118     1.7355 S.o2    
  10 N10           -1.1345     3.1110     1.0763 N.am    
  11 C11            1.2528     2.0700     0.0019 C.ar    
  12 C12            2.4735     1.4013     0.1168 C.ar    
  13 O13           -2.9747     4.6606     0.6605 O.2     
  14 O14           -1.8912     4.5541     2.8855 O.2     
  15 C15            1.2314     3.4598    -0.1266 C.ar    
  16 C16            2.4140     4.1687    -0.1344 C.ar    
  17 C17            3.6261     3.5027    -0.0152 C.ar    
  18 C18            3.6529     2.1170     0.1083 C.ar    
  19 O19            4.7892     4.2050    -0.0238 O.3     
  20 C20            5.4855     4.2698    -1.1863 C.ar    
  21 C21            6.6237     5.0622    -1.2632 C.ar    
  22 F22            4.8345     1.4724     0.2241 F       
  23 C23            7.3253     5.1192    -2.4550 C.ar    
  24 C24            8.5653     5.9665    -2.5795 C.3     
  25 C25            6.8611     4.3779    -3.5326 C.ar    
  26 C26            5.7218     3.6114    -3.3847 C.ar    
  27 N27            5.0771     3.5733    -2.2344 N.ar    
  28 F28            9.6869     5.2056    -2.2326 F       
  29 F29            8.6946     6.4128    -3.8991 F       
  30 F30            8.4656     7.0677    -1.7225 F       
  31 H31           -1.1879    -1.6152    -0.8720 H       
  32 H32           -3.2324    -0.7043    -0.0092 H       
  33 H33           -4.1810     2.2083     0.1865 H       
  34 H34           -4.3204     0.7919     1.2511 H       
  35 H35           -4.5073     2.9536     2.5080 H       
  36 H36           -3.1018     1.9878     3.0366 H       
  37 H37            2.4941     0.3258     0.2126 H       
  38 H38            0.2893     3.9795    -0.2201 H       
  39 H39            2.3973     5.2440    -0.2338 H       
  40 H40            6.9565     5.6266    -0.4047 H       
  41 H41            7.3850     4.4004    -4.4767 H       
  42 H42            5.3564     3.0327    -4.2202 H       
@<TRIPOS>BOND
   1    1    2 2
   2    1   11 1
   3    1    6 1
   4    2    3 1
   5    3    4 2
   6    3   31 1
   7    4    5 1
   8    4   32 1
   9    5    6 1
  10    5    7 1
  11    6   10 2
  12    7    8 1
  13    7   33 1
  14    7   34 1
  15    8    9 1
  16    8   35 1
  17    8   36 1
  18    9   10 am
  19    9   13 2
  20    9   14 2
  21   11   12 ar
  22   11   15 ar
  23   12   18 ar
  24   12   37 1
  25   15   16 ar
  26   15   38 1
  27   16   17 ar
  28   16   39 1
  29   17   18 ar
  30   17   19 1
  31   18   22 1
  32   19   20 1
  33   20   21 ar
  34   20   27 ar
  35   21   23 ar
  36   21   40 1
  37   23   24 1
  38   23   25 ar
  39   24   28 1
  40   24   29 1
  41   24   30 1
  42   25   26 ar
  43   25   41 1
  44   26   27 ar
  45   26   42 1

#	End of record

