#	Name: ASD04170004
#	Creating user name:	WinNT
#	Creation time:	15. 06. 2019 20:48

#	Modifying user name:	WinNT
#	Modification time:	15. 06. 2019 20:48

#	Program:	/corina/corina34_cracker 3.40 0067  02.08.2006

@<TRIPOS>MOLECULE
ASD04170004
  36   38    0    0    0
SMALL
NO_CHARGES


@<TRIPOS>ATOM
   1 Cl1            0.0021    -0.0041     0.0020 Cl      
   2 C2            -0.0215     1.7317     0.0116 C.ar    
   3 C3             1.1668     2.4399     0.0040 C.ar    
   4 C4             1.1474     3.8221     0.0117 C.ar    
   5 C5            -0.0590     4.4966     0.0269 C.ar    
   6 C6            -1.2470     3.7893     0.0349 C.ar    
   7 C7            -1.2289     2.4075     0.0210 C.ar    
   8 C8            -2.5239     1.6368     0.0297 C.3     
   9 N9            -2.7783     1.0916    -1.3104 N.3     
  10 C10           -4.0354     0.3322    -1.3399 C.3     
  11 C11           -3.7779    -1.1047    -0.8771 C.3     
  12 N12           -4.1392    -2.0358    -1.9545 N.3     
  13 C13           -3.3106    -1.8105    -3.1469 C.3     
  14 C14           -3.5544    -0.3936    -3.6740 C.3     
  15 C15           -4.5832     0.3002    -2.7722 C.3     
  16 C16           -5.8773    -0.5232    -2.7829 C.3     
  17 C17           -5.5685    -1.9365    -2.2809 C.3     
  18 H18            2.1095     1.9130    -0.0075 H       
  19 H19            2.0751     4.3751     0.0061 H       
  20 H20           -0.0736     5.5764     0.0328 H       
  21 H21           -2.1893     4.3168     0.0475 H       
  22 H22           -2.4553     0.8194     0.7475 H       
  23 H23           -3.3403     2.3013     0.3127 H       
  24 H24           -2.7821     1.8243    -2.0041 H       
  25 H25           -4.7627     0.8039    -0.6791 H       
  26 H26           -2.7226    -1.2242    -0.6319 H       
  27 H27           -4.3827    -1.3167     0.0047 H       
  28 H28           -2.2586    -1.9254    -2.8857 H       
  29 H29           -3.5759    -2.5355    -3.9164 H       
  30 H30           -2.6197     0.1670    -3.6603 H       
  31 H31           -3.9373    -0.4440    -4.6933 H       
  32 H32           -4.7677     1.3147    -3.1257 H       
  33 H33           -6.6129    -0.0557    -2.1283 H       
  34 H34           -6.2695    -0.5740    -3.7986 H       
  35 H35           -5.8153    -2.6603    -3.0576 H       
  36 H36           -6.1604    -2.1432    -1.3893 H       
@<TRIPOS>BOND
   1    1    2 1
   2    2    3 ar
   3    2    7 ar
   4    3    4 ar
   5    3   18 1
   6    4    5 ar
   7    4   19 1
   8    5    6 ar
   9    5   20 1
  10    6    7 ar
  11    6   21 1
  12    7    8 1
  13    8    9 1
  14    8   22 1
  15    8   23 1
  16    9   10 1
  17    9   24 1
  18   10   11 1
  19   10   15 1
  20   10   25 1
  21   11   12 1
  22   11   26 1
  23   11   27 1
  24   12   13 1
  25   12   17 1
  26   13   14 1
  27   13   28 1
  28   13   29 1
  29   14   15 1
  30   14   30 1
  31   14   31 1
  32   15   16 1
  33   15   32 1
  34   16   17 1
  35   16   33 1
  36   16   34 1
  37   17   35 1
  38   17   36 1

#	End of record

