#	Name: ASD02508182
#	Creating user name:	WinNT
#	Creation time:	15. 06. 2019 20:23

#	Modifying user name:	WinNT
#	Modification time:	15. 06. 2019 20:23

#	Program:	/corina/corina34_cracker 3.40 0067  02.08.2006

@<TRIPOS>MOLECULE
ASD02508182
  39   42    0    0    0
SMALL
NO_CHARGES


@<TRIPOS>ATOM
   1 C1             0.2576     1.1286     0.3879 C.ar    
   2 C2             0.1871    -0.2645     0.3534 C.ar    
   3 C3            -1.0245    -0.9255     0.2587 C.ar    
   4 C4            -2.2003    -0.2032     0.1959 C.ar    
   5 C5            -2.1518     1.1800     0.2287 C.ar    
   6 C6            -0.9501     1.8409     0.3278 C.ar    
   7 S7            -3.7487    -1.0353     0.0745 S.o2    
   8 N8            -4.2848    -1.3010     1.6186 N.am    
   9 C9            -4.5155    -0.2235     2.4710 C.ar    
  10 N10            1.5411     1.6352     0.4846 N.am    
  11 C11            2.5659     0.7786     0.5348 C.2     
  12 S12            1.8560    -0.8423     0.4527 S.3     
  13 O13           -4.6556    -0.1117    -0.5118 O.2     
  14 O14           -3.4745    -2.3143    -0.4808 O.2     
  15 C15            1.7726     3.0811     0.5304 C.3     
  16 O16            3.7480     1.0562     0.6192 O.2     
  17 C17           -4.2314    -0.3322     3.8496 C.ar    
  18 C18           -5.0180     0.9605     1.9750 C.ar    
  19 C19           -5.2512     2.0432     2.8180 C.ar    
  20 C20           -4.9911     1.9642     4.1520 C.ar    
  21 C21           -4.4736     0.7766     4.6971 C.ar    
  22 C22           -4.1961     0.6665     6.0708 C.ar    
  23 C23           -3.6958    -0.4986     6.5656 C.ar    
  24 C24           -3.4531    -1.5869     5.7300 C.ar    
  25 C25           -3.7144    -1.5173     4.3955 C.ar    
  26 H26           -1.0510    -2.0049     0.2335 H       
  27 H27           -3.0697     1.7470     0.1797 H       
  28 H28           -0.9349     2.9205     0.3522 H       
  29 H29           -4.4381    -2.2069     1.9296 H       
  30 H30            1.7612     3.4182     1.5670 H       
  31 H31            2.7411     3.3084     0.0850 H       
  32 H32            0.9875     3.5926    -0.0265 H       
  33 H33           -5.2328     1.0490     0.9203 H       
  34 H34           -5.6446     2.9612     2.4070 H       
  35 H35           -5.1785     2.8150     4.7903 H       
  36 H36           -4.3786     1.5022     6.7301 H       
  37 H37           -3.4835    -0.5806     7.6214 H       
  38 H38           -3.0551    -2.5000     6.1475 H       
  39 H39           -3.5213    -2.3686     3.7596 H       
@<TRIPOS>BOND
   1    1    2 ar
   2    1   10 1
   3    1    6 ar
   4    2    3 ar
   5    2   12 1
   6    3    4 ar
   7    3   26 1
   8    4    5 ar
   9    4    7 1
  10    5    6 ar
  11    5   27 1
  12    6   28 1
  13    7    8 am
  14    7   13 2
  15    7   14 2
  16    8    9 1
  17    8   29 1
  18    9   17 ar
  19    9   18 ar
  20   10   11 am
  21   10   15 1
  22   11   12 1
  23   11   16 2
  24   15   30 1
  25   15   31 1
  26   15   32 1
  27   17   21 ar
  28   17   25 ar
  29   18   19 ar
  30   18   33 1
  31   19   20 ar
  32   19   34 1
  33   20   21 ar
  34   20   35 1
  35   21   22 ar
  36   22   23 ar
  37   22   36 1
  38   23   24 ar
  39   23   37 1
  40   24   25 ar
  41   24   38 1
  42   25   39 1

#	End of record

