#	Name: ASD01840233
#	Creating user name:	WinNT
#	Creation time:	15. 06. 2019 19:37

#	Modifying user name:	WinNT
#	Modification time:	15. 06. 2019 19:37

#	Program:	/corina/corina34_cracker 3.40 0067  02.08.2006

@<TRIPOS>MOLECULE
ASD01840233
  44   45    0    0    0
SMALL
NO_CHARGES


@<TRIPOS>ATOM
   1 Cl1            0.0000     0.0000     0.0000 Cl      
   2 H2             0.0000     1.3700     0.0000 H       
   3 C3             5.9370    15.7420     8.4013 C.3     
   4 C4             6.6903    14.4464     8.2437 C.ar    
   5 C5             6.5433    13.7097     7.0779 C.ar    
   6 C6             7.2315    12.5260     6.9339 C.ar    
   7 C7             7.0918    11.7045     5.6782 C.3     
   8 C8             8.0718    12.0961     7.9858 C.ar    
   9 C9             8.8934    10.9009     8.0772 C.2     
  10 N10            8.9648     9.9544     7.0647 N.pl3   
  11 C11            9.5845    10.7924     9.2387 C.2     
  12 S12            9.2654    12.1566    10.2913 S.3     
  13 C13            8.1678    12.8947     9.1308 C.ar    
  14 N14            7.4788    14.0367     9.2097 N.ar    
  15 C15           10.4508     9.7174     9.5592 C.2     
  16 O16           10.6134     8.8088     8.7648 O.2     
  17 N17           11.0947     9.7007    10.7431 N.am    
  18 C18           11.9901     8.5895    11.0744 C.3     
  19 C19           13.3777     8.8611    10.4899 C.3     
  20 C20           14.3129     7.7007    10.8359 C.3     
  21 C21           14.4174     7.5657    12.3564 C.3     
  22 C22           13.0297     7.2941    12.9408 C.3     
  23 C23           12.0946     8.4546    12.5948 C.3     
  24 H24            6.5408    16.5628     8.0140 H       
  25 H25            5.0000    15.6873     7.8472 H       
  26 H26            5.7255    15.9132     9.4568 H       
  27 H27            5.8940    14.0614     6.2898 H       
  28 H28            7.9134    11.9349     5.0000 H       
  29 H29            7.1168    10.6449     5.9325 H       
  30 H30            6.1440    11.9396     5.1938 H       
  31 H31            8.7469    10.2024     6.1527 H       
  32 H32            9.2328     9.0448     7.2692 H       
  33 H33           10.9651    10.4244    11.3759 H       
  34 H34           11.5933     7.6654    10.6540 H       
  35 H35           13.3033     8.9573     9.4067 H       
  36 H36           13.7745     9.7852    10.9103 H       
  37 H37           13.9161     6.7766    10.4155 H       
  38 H38           15.3015     7.8942    10.4195 H       
  39 H39           15.0836     6.7390    12.6028 H       
  40 H40           14.8141     8.4898    12.7767 H       
  41 H41           12.6329     6.3700    12.5204 H       
  42 H42           13.1041     7.1980    14.0240 H       
  43 H43           12.4913     9.3787    13.0152 H       
  44 H44           11.1060     8.2611    13.0112 H       
@<TRIPOS>BOND
   1    1    2 1
   2    3    4 1
   3    3   24 1
   4    3   25 1
   5    3   26 1
   6    4   14 ar
   7    4    5 ar
   8    5    6 ar
   9    5   27 1
  10    6    7 1
  11    6    8 ar
  12    7   28 1
  13    7   29 1
  14    7   30 1
  15    8   13 ar
  16    8    9 1
  17    9   10 1
  18    9   11 2
  19   10   31 1
  20   10   32 1
  21   11   12 1
  22   11   15 1
  23   12   13 1
  24   13   14 ar
  25   15   16 2
  26   15   17 am
  27   17   18 1
  28   17   33 1
  29   18   23 1
  30   18   19 1
  31   18   34 1
  32   19   20 1
  33   19   35 1
  34   19   36 1
  35   20   21 1
  36   20   37 1
  37   20   38 1
  38   21   22 1
  39   21   39 1
  40   21   40 1
  41   22   23 1
  42   22   41 1
  43   22   42 1
  44   23   43 1
  45   23   44 1

#	End of record

