#	Name: ASD01122044
#	Creating user name:	WinNT
#	Creation time:	15. 06. 2019 18:59

#	Modifying user name:	WinNT
#	Modification time:	15. 06. 2019 18:59

#	Program:	/corina/corina34_cracker 3.40 0067  02.08.2006

@<TRIPOS>MOLECULE
ASD01122044
  51   52    0    0    0
SMALL
NO_CHARGES


@<TRIPOS>ATOM
   1 N1            -0.0158     1.3158     0.0093 N.ar    
   2 C2             0.0021    -0.0041     0.0020 C.ar    
   3 N3             1.1233    -0.6950    -0.0120 N.ar    
   4 C4             2.2984    -0.0779    -0.0199 C.ar    
   5 C5             2.3338     1.3257    -0.0131 C.ar    
   6 C6             1.1120     2.0193     0.0023 C.ar    
   7 N7             3.6141    -0.4903    -0.0343 N.am    
   8 C8             4.3930     0.6379    -0.0359 C.2     
   9 N9             3.6385     1.6959    -0.0235 N.2     
  10 N10            1.0834     3.4029     0.0091 N.pl3   
  11 P11            8.5168     0.6865    -3.2369 P.3     
  12 O12            8.0854     2.0256    -3.9262 O.co2   
  13 O13            7.8939    -0.5241    -4.0120 O.co2   
  14 O14           10.0790     0.5698    -3.2545 O.co2   
  15 C15            5.8999     0.6495    -0.0504 C.3     
  16 C16            6.3959     0.6610    -1.4977 C.3     
  17 O17            5.2386    -1.9954    -0.0566 O.2     
  18 C18            4.0526    -1.7647    -0.0448 C.2     
  19 C19            3.0637    -2.9019    -0.0418 C.3     
  20 O20            3.7300    -4.1134    -0.4028 O.3     
  21 C21            2.4599    -3.0489     1.3562 C.3     
  22 O22            3.5088    -3.2035     2.3143 O.3     
  23 C23            1.5509    -4.2791     1.3923 C.3     
  24 O24            2.2864    -5.4276     0.9656 O.3     
  25 C25            1.0458    -4.4983     2.8198 C.3     
  26 O26            0.1064    -5.5751     2.8326 O.3     
  27 C27            7.9258     0.6728    -1.5124 C.3     
  28 C28           -0.4293    -5.8637     4.1256 C.3     
  29 C29           -1.4178    -7.0268     4.0200 C.3     
  30 H30           -0.9373    -0.5370     0.0081 H       
  31 H31            1.9133     3.9052     0.0032 H       
  32 H32            0.2336     3.8704     0.0197 H       
  33 H33            6.2613     1.5396     0.4647 H       
  34 H34            6.2750    -0.2403     0.4552 H       
  35 H35            6.0344    -0.2290    -2.0127 H       
  36 H36            6.0208     1.5509    -2.0032 H       
  37 H37            2.2705    -2.6954    -0.7604 H       
  38 H38            4.4496    -4.3595     0.1944 H       
  39 H39            1.8772    -2.1595     1.5957 H       
  40 H40            4.0691    -3.9769     2.1627 H       
  41 H41            0.7020    -4.1233     0.7265 H       
  42 H42            3.0578    -5.6266     1.5138 H       
  43 H43            1.8866    -4.7419     3.4693 H       
  44 H44            0.5617    -3.5896     3.1775 H       
  45 H45            8.3009    -0.2170    -1.0068 H       
  46 H46            8.2873     1.5628    -0.9974 H       
  47 H47            0.3808    -6.1356     4.8021 H       
  48 H48           -0.9440    -4.9833     4.5104 H       
  49 H49           -1.8264    -7.2470     5.0063 H       
  50 H50           -2.2279    -6.7549     3.3435 H       
  51 H51           -0.9031    -7.9072     3.6352 H       
@<TRIPOS>BOND
   1    1    2 ar
   2    1    6 ar
   3    2    3 ar
   4    2   30 1
   5    3    4 ar
   6    4    5 ar
   7    4    7 1
   8    5    6 ar
   9    5    9 1
  10    6   10 1
  11    7    8 1
  12    7   18 am
  13    8    9 2
  14    8   15 1
  15   10   31 1
  16   10   32 1
  17   11   12 ar
  18   11   13 ar
  19   11   14 ar
  20   11   27 1
  21   15   16 1
  22   15   33 1
  23   15   34 1
  24   16   27 1
  25   16   35 1
  26   16   36 1
  27   17   18 2
  28   18   19 1
  29   19   21 1
  30   19   20 1
  31   19   37 1
  32   20   38 1
  33   21   22 1
  34   21   23 1
  35   21   39 1
  36   22   40 1
  37   23   25 1
  38   23   24 1
  39   23   41 1
  40   24   42 1
  41   25   26 1
  42   25   43 1
  43   25   44 1
  44   26   28 1
  45   27   45 1
  46   27   46 1
  47   28   29 1
  48   28   47 1
  49   28   48 1
  50   29   49 1
  51   29   50 1
  52   29   51 1

#	End of record

