#	Name: ASD03092048
#	Creating user name:	WinNT
#	Creation time:	15. 06. 2019 20:31

#	Modifying user name:	WinNT
#	Modification time:	15. 06. 2019 20:31

#	Program:	/corina/corina34_cracker 3.40 0067  02.08.2006

@<TRIPOS>MOLECULE
ASD03092048
  50   52    0    0    0
SMALL
NO_CHARGES


@<TRIPOS>ATOM
   1 N1             0.1380     1.5144     0.0359 N.am    
   2 C2             0.1241     0.1457    -0.0398 C.2     
   3 C3            -1.1809    -0.2458    -0.0879 C.2     
   4 C4            -1.9781     0.9092    -0.0406 C.2     
   5 N5            -1.1912     1.9561     0.0393 N.2     
   6 N6            -3.3750     0.9383    -0.0681 N.pl3   
   7 C7            -4.0515     2.1512     0.0840 C.ar    
   8 C8            -3.5035     3.3221    -0.4251 C.ar    
   9 C9            -4.1729     4.5212    -0.2748 C.ar    
  10 C10           -5.3881     4.5597     0.3819 C.ar    
  11 C11           -5.9403     3.3932     0.8930 C.ar    
  12 C12           -5.2752     2.1873     0.7392 C.ar    
  13 C13            1.3064    -0.7421    -0.0654 C.ar    
  14 C14            1.2347     2.2951     0.1012 C.2     
  15 C15            1.2964    -1.9725     0.6015 C.ar    
  16 C16            2.4212    -2.7696     0.5510 C.ar    
  17 N17            3.4945    -2.3855    -0.1131 N.ar    
  18 C18            3.5460    -1.2338    -0.7552 C.ar    
  19 C19            2.4647    -0.3779    -0.7621 C.ar    
  20 C20            4.8015    -0.8511    -1.4956 C.3     
  21 N21            1.1104     3.6365     0.0584 N.am    
  22 O22            2.3354     1.7897     0.1987 O.2     
  23 C23            2.3024     4.4852     0.1294 C.3     
  24 C24            1.8862     5.9559     0.0608 C.3     
  25 C25           -3.5765     5.7899    -0.8279 C.3     
  26 F26           -4.0161     5.9773    -2.1427 F       
  27 F27           -3.9789     6.8754    -0.0425 F       
  28 F28           -2.1808     5.6947    -0.8119 F       
  29 O29           -7.1351     3.4330     1.5394 O.3     
  30 C30           -7.6437     2.1947     2.0395 C.3     
  31 H31           -1.5379    -1.2630    -0.1518 H       
  32 H32           -3.8749     0.1165    -0.1929 H       
  33 H33           -2.5535     3.2949    -0.9382 H       
  34 H34           -5.9088     5.4987     0.4980 H       
  35 H35           -5.7034     1.2787     1.1362 H       
  36 H36            0.4216    -2.2930     1.1476 H       
  37 H37            2.4233    -3.7209     1.0623 H       
  38 H38            2.5138     0.5631    -1.2898 H       
  39 H39            4.7437    -1.2151    -2.5214 H       
  40 H40            4.9040     0.2340    -1.5004 H       
  41 H41            5.6650    -1.2955    -1.0006 H       
  42 H42            0.2317     4.0399    -0.0195 H       
  43 H43            2.8256     4.2990     1.0673 H       
  44 H44            2.9626     4.2550    -0.7069 H       
  45 H45            1.3630     6.1420    -0.8771 H       
  46 H46            1.2260     6.1860     0.8970 H       
  47 H47            2.7731     6.5873     0.1136 H       
  48 H48           -7.7811     1.4979     1.2127 H       
  49 H49           -6.9373     1.7744     2.7554 H       
  50 H50           -8.6006     2.3674     2.5320 H       
@<TRIPOS>BOND
   1    1    2 1
   2    1   14 am
   3    1    5 1
   4    2    3 2
   5    2   13 1
   6    3    4 1
   7    3   31 1
   8    4    5 2
   9    4    6 1
  10    6    7 1
  11    6   32 1
  12    7    8 ar
  13    7   12 ar
  14    8    9 ar
  15    8   33 1
  16    9   10 ar
  17    9   25 1
  18   10   11 ar
  19   10   34 1
  20   11   12 ar
  21   11   29 1
  22   12   35 1
  23   13   15 ar
  24   13   19 ar
  25   14   21 am
  26   14   22 2
  27   15   16 ar
  28   15   36 1
  29   16   17 ar
  30   16   37 1
  31   17   18 ar
  32   18   19 ar
  33   18   20 1
  34   19   38 1
  35   20   39 1
  36   20   40 1
  37   20   41 1
  38   21   23 1
  39   21   42 1
  40   23   24 1
  41   23   43 1
  42   23   44 1
  43   24   45 1
  44   24   46 1
  45   24   47 1
  46   25   26 1
  47   25   27 1
  48   25   28 1
  49   29   30 1
  50   30   48 1
  51   30   49 1
  52   30   50 1

#	End of record

