#	Name: ASD03091432
#	Creating user name:	WinNT
#	Creation time:	15. 06. 2019 20:30

#	Modifying user name:	WinNT
#	Modification time:	15. 06. 2019 20:30

#	Program:	/corina/corina34_cracker 3.40 0067  02.08.2006

@<TRIPOS>MOLECULE
ASD03091432
  31   33    0    0    0
SMALL
NO_CHARGES


@<TRIPOS>ATOM
   1 C1             0.0298     1.6788    -0.0407 C.3     
   2 C2            -0.0008     0.1502    -0.1016 C.3     
   3 N3             0.6600    -0.4018     1.0880 N.3     
   4 C4            -0.0402    -0.0039     2.3160 C.3     
   5 C5            -0.0114     1.5199     2.4509 C.3     
   6 C6             1.4438     1.9952     2.5216 C.3     
   7 N7             2.1036     1.6868     1.2455 N.am    
   8 C8             1.4856     2.1556    -0.0022 C.3     
   9 C9            -0.6863     2.1498     1.2287 C.3     
  10 C10            3.2546     0.9861     1.2201 C.2     
  11 O11            3.8167     0.7013     2.2611 O.2     
  12 O12            3.2578     0.6890    -1.2832 O.3     
  13 C13            4.1088     0.1860    -2.1829 C.2     
  14 N14            5.1796    -0.2403    -1.5684 N.2     
  15 C15            5.0443    -0.0221    -0.2564 C.2     
  16 C16            3.8299     0.5667    -0.0628 C.2     
  17 H17           -0.4659     2.0893    -0.9204 H       
  18 H18           -1.0354    -0.1914    -0.1337 H       
  19 H19            0.5212    -0.1881    -0.9967 H       
  20 H20            0.7378    -1.4058     1.0253 H       
  21 H21           -1.0744    -0.3450     2.2710 H       
  22 H22            0.4532    -0.4541     3.1774 H       
  23 H23           -0.5369     1.8162     3.3587 H       
  24 H24            1.4689     3.0710     2.6954 H       
  25 H25            1.9577     1.4796     3.3328 H       
  26 H26            2.0271     1.7456    -0.8548 H       
  27 H27            1.5145     3.2447    -0.0377 H       
  28 H28           -0.6263     3.2359     1.2989 H       
  29 H29           -1.7318     1.8437     1.1919 H       
  30 H30            3.9379     0.1391    -3.2483 H       
  31 H31            5.7647    -0.2677     0.5099 H       
@<TRIPOS>BOND
   1    1    2 1
   2    1    8 1
   3    1    9 1
   4    1   17 1
   5    2    3 1
   6    2   18 1
   7    2   19 1
   8    3    4 1
   9    3   20 1
  10    4    5 1
  11    4   21 1
  12    4   22 1
  13    5    6 1
  14    5    9 1
  15    5   23 1
  16    6    7 1
  17    6   24 1
  18    6   25 1
  19    7    8 1
  20    7   10 am
  21    8   26 1
  22    8   27 1
  23    9   28 1
  24    9   29 1
  25   10   11 2
  26   10   16 1
  27   12   13 1
  28   12   16 1
  29   13   14 2
  30   13   30 1
  31   14   15 1
  32   15   16 2
  33   15   31 1

#	End of record

