#	Name: ASD03740172
#	Creating user name:	WinNT
#	Creation time:	15. 06. 2019 20:46

#	Modifying user name:	WinNT
#	Modification time:	15. 06. 2019 20:46

#	Program:	/corina/corina34_cracker 3.40 0067  02.08.2006

@<TRIPOS>MOLECULE
ASD03740172
  57   60    0    0    0
SMALL
NO_CHARGES


@<TRIPOS>ATOM
   1 C1             0.4387     2.2998     0.3166 C.ar    
   2 C2             0.5949     0.9212     0.2308 C.ar    
   3 C3            -0.4899     0.1012     0.0993 C.ar    
   4 C4            -1.7700     0.6473     0.0501 C.ar    
   5 C5            -1.9304     2.0436     0.1369 C.ar    
   6 C6            -0.8057     2.8624     0.2767 C.ar    
   7 N7            -3.0259     0.1114    -0.0727 N.pl3   
   8 N8            -3.9687     1.1445    -0.0645 N.2     
   9 C9            -3.3687     2.2973     0.0569 C.2     
  10 O10           -3.9720     3.5146     0.1015 O.3     
  11 C11           -3.3318    -1.3162    -0.1938 C.3     
  12 C12           -3.5325    -1.9051     1.1787 C.ar    
  13 C13           -4.7928    -1.9196     1.7468 C.ar    
  14 C14           -4.9775    -2.4596     3.0056 C.ar    
  15 C15           -3.9009    -2.9857     3.6972 C.ar    
  16 C16           -2.6399    -2.9709     3.1281 C.ar    
  17 C17           -2.4574    -2.4357     1.8669 C.ar    
  18 C18           -5.3976     3.5359     0.0061 C.3     
  19 C19           -5.8917     4.9824     0.0742 C.3     
  20 C20           -7.4181     5.0053    -0.0280 C.3     
  21 Cl21          -4.1321    -3.6636     5.2785 Cl      
  22 N22           -7.8925     6.3940     0.0374 N.3     
  23 C23           -9.3352     6.4703    -0.2255 C.3     
  24 Cl24           1.8369     3.3152     0.4832 Cl      
  25 C25           -7.5552     7.0051     1.3294 C.3     
  26 C26           -7.9327     8.4880     1.3079 C.3     
  27 C27           -9.4331     8.6237     1.0342 C.3     
  28 C28           -9.7659     7.9372    -0.2934 C.3     
  29 C29           -9.6476     5.7851    -1.5574 C.3     
  30 O30           -9.0000     6.4893    -2.6188 O.3     
  31 H31            1.5858     0.4932     0.2681 H       
  32 H32           -0.3550    -0.9683     0.0333 H       
  33 H33           -0.9194     3.9342     0.3444 H       
  34 H34           -4.2413    -1.4444    -0.7808 H       
  35 H35           -2.5047    -1.8242    -0.6897 H       
  36 H36           -5.6331    -1.5086     1.2070 H       
  37 H37           -5.9621    -2.4706     3.4494 H       
  38 H38           -1.7991    -3.3814     3.6675 H       
  39 H39           -1.4731    -2.4240     1.4226 H       
  40 H40           -5.7051     3.0912    -0.9404 H       
  41 H41           -5.8256     2.9666     0.8311 H       
  42 H42           -5.5842     5.4272     1.0206 H       
  43 H43           -5.4637     5.5517    -0.7509 H       
  44 H44           -7.7256     4.5605    -0.9744 H       
  45 H45           -7.8461     4.4359     0.7971 H       
  46 H46           -9.8775     5.9695     0.5765 H       
  47 H47           -8.1058     6.5016     2.1240 H       
  48 H48           -6.4848     6.9054     1.5098 H       
  49 H49           -7.6966     8.9376     2.2724 H       
  50 H50           -7.3722     8.9949     0.5224 H       
  51 H51           -9.9946     8.1506     1.8397 H       
  52 H52           -9.6985     9.6793     0.9750 H       
  53 H53           -9.2342     8.4354    -1.1041 H       
  54 H54          -10.8395     7.9933    -0.4730 H       
  55 H55           -9.2869     4.7568    -1.5304 H       
  56 H56          -10.7249     5.7880    -1.7236 H       
  57 H57           -9.1546     6.1097    -3.4946 H       
@<TRIPOS>BOND
   1    1    2 ar
   2    1   24 1
   3    1    6 ar
   4    2    3 ar
   5    2   31 1
   6    3    4 ar
   7    3   32 1
   8    4    5 ar
   9    4    7 1
  10    5    6 ar
  11    5    9 1
  12    6   33 1
  13    7    8 1
  14    7   11 1
  15    8    9 2
  16    9   10 1
  17   10   18 1
  18   11   12 1
  19   11   34 1
  20   11   35 1
  21   12   13 ar
  22   12   17 ar
  23   13   14 ar
  24   13   36 1
  25   14   15 ar
  26   14   37 1
  27   15   16 ar
  28   15   21 1
  29   16   17 ar
  30   16   38 1
  31   17   39 1
  32   18   19 1
  33   18   40 1
  34   18   41 1
  35   19   20 1
  36   19   42 1
  37   19   43 1
  38   20   22 1
  39   20   44 1
  40   20   45 1
  41   22   23 1
  42   22   25 1
  43   23   29 1
  44   23   28 1
  45   23   46 1
  46   25   26 1
  47   25   47 1
  48   25   48 1
  49   26   27 1
  50   26   49 1
  51   26   50 1
  52   27   28 1
  53   27   51 1
  54   27   52 1
  55   28   53 1
  56   28   54 1
  57   29   30 1
  58   29   55 1
  59   29   56 1
  60   30   57 1

#	End of record

