#	Name: ASD08390070
#	Creating user name:	WinNT
#	Creation time:	15. 06. 2019 21:19

#	Modifying user name:	WinNT
#	Modification time:	15. 06. 2019 21:19

#	Program:	/corina/corina34_cracker 3.40 0067  02.08.2006

@<TRIPOS>MOLECULE
ASD08390070
  53   56    0    0    0
SMALL
NO_CHARGES


@<TRIPOS>ATOM
   1 C1            -0.0188     1.5380     0.0105 C.3     
   2 C2             0.0021    -0.0041     0.0020 C.3     
   3 N3             1.4113     1.8901    -0.0013 N.pl3   
   4 C4             2.1368     0.7365    -0.0144 C.2     
   5 N5             1.4337    -0.3361    -0.0134 N.2     
   6 C6             3.6437     0.7224    -0.0289 C.3     
   7 C7            -0.7081     2.0681    -1.2203 C.ar    
   8 C8            -0.6881    -0.5437    -1.2523 C.3     
   9 C9            -2.0230     2.4887    -1.1491 C.ar    
  10 C10           -2.6553     2.9750    -2.2781 C.ar    
  11 C11           -1.9725     3.0410    -3.4782 C.ar    
  12 C12           -0.6574     2.6213    -3.5493 C.ar    
  13 C13           -0.0238     2.1391    -2.4193 C.ar    
  14 C14            1.9601     3.2485     0.0008 C.3     
  15 C15            2.1619     3.7066     1.4222 C.ar    
  16 C16            3.3643     3.4683     2.0611 C.ar    
  17 C17            3.5493     3.8885     3.3650 C.ar    
  18 C18            2.5321     4.5474     4.0298 C.ar    
  19 C19            1.3300     4.7865     3.3906 C.ar    
  20 C20            1.1465     4.3701     2.0853 C.ar    
  21 C21            4.1326    -0.7030    -0.0412 C.ar    
  22 C22            4.3454    -1.3504    -1.2439 C.ar    
  23 C23            4.7938    -2.6579    -1.2552 C.ar    
  24 C24            5.0298    -3.3180    -0.0638 C.ar    
  25 C25            4.8179    -2.6704     1.1389 C.ar    
  26 C26            4.3736    -1.3614     1.1502 C.ar    
  27 C27           -0.6572    -0.5490     1.2428 C.2     
  28 O28           -1.4805     0.1126     1.8296 O.2     
  29 O29           -0.3297    -1.7693     1.6960 O.3     
  30 H30           -0.5003     1.9118     0.9142 H       
  31 H31            4.0033     1.2376    -0.9196 H       
  32 H32            4.0203     1.2280     0.8603 H       
  33 H33           -0.1690    -0.1782    -2.1384 H       
  34 H34           -0.6633    -1.6334    -1.2403 H       
  35 H35           -1.7236    -0.2041    -1.2719 H       
  36 H36           -2.5564     2.4371    -0.2114 H       
  37 H37           -3.6828     3.3029    -2.2225 H       
  38 H38           -2.4668     3.4203    -4.3605 H       
  39 H39           -0.1241     2.6726    -4.4870 H       
  40 H40            1.0038     1.8112    -2.4748 H       
  41 H41            2.9164     3.2547    -0.5222 H       
  42 H42            1.2662     3.9215    -0.5028 H       
  43 H43            4.1591     2.9535     1.5418 H       
  44 H44            4.4885     3.7016     3.8644 H       
  45 H45            2.6764     4.8750     5.0487 H       
  46 H46            0.5351     5.3010     3.9101 H       
  47 H47            0.2073     4.5569     1.5858 H       
  48 H48            4.1609    -0.8347    -2.1747 H       
  49 H49            4.9593    -3.1639    -2.1949 H       
  50 H50            5.3795    -4.3398    -0.0726 H       
  51 H51            5.0020    -3.1862     2.0698 H       
  52 H52            4.2080    -0.8554     2.0899 H       
  53 H53           -0.7792    -2.0759     2.4954 H       
@<TRIPOS>BOND
   1    1    2 1
   2    1    3 1
   3    1    7 1
   4    1   30 1
   5    2    8 1
   6    2   27 1
   7    2    5 1
   8    3    4 1
   9    3   14 1
  10    4    5 2
  11    4    6 1
  12    6   21 1
  13    6   31 1
  14    6   32 1
  15    7    9 ar
  16    7   13 ar
  17    8   33 1
  18    8   34 1
  19    8   35 1
  20    9   10 ar
  21    9   36 1
  22   10   11 ar
  23   10   37 1
  24   11   12 ar
  25   11   38 1
  26   12   13 ar
  27   12   39 1
  28   13   40 1
  29   14   15 1
  30   14   41 1
  31   14   42 1
  32   15   16 ar
  33   15   20 ar
  34   16   17 ar
  35   16   43 1
  36   17   18 ar
  37   17   44 1
  38   18   19 ar
  39   18   45 1
  40   19   20 ar
  41   19   46 1
  42   20   47 1
  43   21   22 ar
  44   21   26 ar
  45   22   23 ar
  46   22   48 1
  47   23   24 ar
  48   23   49 1
  49   24   25 ar
  50   24   50 1
  51   25   26 ar
  52   25   51 1
  53   26   52 1
  54   27   28 2
  55   27   29 1
  56   29   53 1

#	End of record

