#	Name: ASD00192122
#	Creating user name:	WinNT
#	Creation time:	15. 06. 2019 18:33

#	Modifying user name:	WinNT
#	Modification time:	15. 06. 2019 18:33

#	Program:	/corina/corina34_cracker 3.40 0067  02.08.2006

@<TRIPOS>MOLECULE
ASD00192122
  51   55    0    0    0
SMALL
NO_CHARGES


@<TRIPOS>ATOM
   1 C1            -0.0168     1.3861     0.0097 C.ar    
   2 C2             0.0021    -0.0041     0.0020 C.ar    
   3 C3             1.1801    -0.6901    -0.0129 C.ar    
   4 C4             2.3959     0.0105    -0.0207 C.ar    
   5 C5             2.3705     1.4251    -0.0129 C.ar    
   6 C6             1.1479     2.0988     0.0024 C.ar    
   7 N7             3.5674    -0.6429    -0.0349 N.ar    
   8 C8             4.7267    -0.0221    -0.0422 C.ar    
   9 C9             4.8175     1.3790    -0.0351 C.ar    
  10 C10            3.6460     2.1430    -0.0212 C.ar    
  11 N11            5.8568     2.2835    -0.0393 N.pl3   
  12 C12            5.3129     3.5207    -0.0275 C.2     
  13 N13            4.0108     3.4334    -0.0170 N.2     
  14 C14            6.0939     4.8095    -0.0269 C.3     
  15 C15            6.4783     5.1722     1.4090 C.3     
  16 C16            7.2713     6.4807     1.4096 C.3     
  17 C17            8.5389     6.3092     0.5701 C.3     
  18 C18            8.1545     5.9465    -0.8657 C.3     
  19 C19            7.3615     4.6380    -0.8663 C.3     
  20 N20            5.8924    -0.7725    -0.0568 N.3     
  21 C21            5.5928    -2.2101    -0.0618 C.3     
  22 C22            6.8918    -3.0026    -0.2246 C.3     
  23 C23            7.8389    -2.6636     0.9297 C.3     
  24 C24            8.0963    -1.1542     0.9419 C.3     
  25 C25            6.7624    -0.4153     1.0709 C.3     
  26 Cl26           6.5263    -4.7681    -0.2047 Cl      
  27 Cl27           7.0869    -3.1592     2.4916 Cl      
  28 H28           -0.9624     1.9076     0.0169 H       
  29 H29           -0.9305    -0.5487     0.0083 H       
  30 H30            1.1776    -1.7701    -0.0183 H       
  31 H31            1.1234     3.1785     0.0080 H       
  32 H32            6.8034     2.0716    -0.0487 H       
  33 H33            5.4820     5.6054    -0.4513 H       
  34 H34            5.5752     5.2944     2.0070 H       
  35 H35            7.0902     4.3763     1.8334 H       
  36 H36            6.6593     7.2766     0.9852 H       
  37 H37            7.5451     6.7391     2.4325 H       
  38 H38            9.1038     7.2414     0.5706 H       
  39 H39            9.1508     5.5133     0.9946 H       
  40 H40            7.5426     6.7424    -1.2901 H       
  41 H41            9.0576     5.8243    -1.4637 H       
  42 H42            7.9735     3.8421    -0.4419 H       
  43 H43            7.0877     4.3796    -1.8892 H       
  44 H44            5.1152    -2.4848     0.8788 H       
  45 H45            4.9218    -2.4384    -0.8899 H       
  46 H46            7.3629    -2.7386    -1.1715 H       
  47 H47            8.7822    -3.1929     0.7944 H       
  48 H48            8.7359    -0.9010     1.7873 H       
  49 H49            8.5864    -0.8611     0.0134 H       
  50 H50            6.9409     0.6600     1.0655 H       
  51 H51            6.2794    -0.6984     2.0061 H       
@<TRIPOS>BOND
   1    1    2 ar
   2    1    6 ar
   3    1   28 1
   4    2    3 ar
   5    2   29 1
   6    3    4 ar
   7    3   30 1
   8    4    5 ar
   9    4    7 ar
  10    5    6 ar
  11    5   10 ar
  12    6   31 1
  13    7    8 ar
  14    8    9 ar
  15    8   20 1
  16    9   10 ar
  17    9   11 1
  18   10   13 1
  19   11   12 1
  20   11   32 1
  21   12   13 2
  22   12   14 1
  23   14   15 1
  24   14   19 1
  25   14   33 1
  26   15   16 1
  27   15   34 1
  28   15   35 1
  29   16   17 1
  30   16   36 1
  31   16   37 1
  32   17   18 1
  33   17   38 1
  34   17   39 1
  35   18   19 1
  36   18   40 1
  37   18   41 1
  38   19   42 1
  39   19   43 1
  40   20   21 1
  41   20   25 1
  42   21   22 1
  43   21   44 1
  44   21   45 1
  45   22   23 1
  46   22   26 1
  47   22   46 1
  48   23   24 1
  49   23   27 1
  50   23   47 1
  51   24   25 1
  52   24   48 1
  53   24   49 1
  54   25   50 1
  55   25   51 1

#	End of record

