#	Name: ASD03240736
#	Creating user name:	WinNT
#	Creation time:	15. 06. 2019 20:35

#	Modifying user name:	WinNT
#	Modification time:	15. 06. 2019 20:35

#	Program:	/corina/corina34_cracker 3.40 0067  02.08.2006

@<TRIPOS>MOLECULE
ASD03240736
  75   81    0    0    0
SMALL
NO_CHARGES


@<TRIPOS>ATOM
   1 C1            -0.8922     2.9061    -0.9939 C.2     
   2 N2            -1.0891     1.5764    -1.0365 N.2     
   3 C3            -0.0979     0.7256    -0.9681 C.2     
   4 C4             1.2665     1.2337    -0.8414 C.ar    
   5 C5             1.4665     2.6302    -0.7973 C.ar    
   6 N6             0.3578     3.4509    -0.8763 N.pl3   
   7 C7             2.3672     0.3743    -0.7633 C.ar    
   8 C8             3.6310     0.9436    -0.6437 C.ar    
   9 C9             3.7512     2.3462    -0.6063 C.ar    
  10 N10            2.6850     3.1287    -0.6838 N.ar    
  11 N11            0.2190     4.8440    -0.8613 N.2     
  12 C12           -1.0537     5.1431    -0.9644 C.2     
  13 C13           -1.7873     3.9661    -1.0442 C.2     
  14 C14            4.8361     0.0844    -0.5562 C.ar    
  15 C15            4.8790    -0.9699     0.3548 C.ar    
  16 C16            6.0031    -1.7666     0.4315 C.ar    
  17 C17            7.0862    -1.5204    -0.3930 C.ar    
  18 C18            7.0495    -0.4754    -1.2986 C.ar    
  19 C19            5.9283     0.3242    -1.3885 C.ar    
  20 C20           -1.6274     6.5364    -0.9858 C.3     
  21 C21            5.0939     2.9576    -0.4791 C.ar    
  22 C22            5.3801     4.1599    -1.1260 C.ar    
  23 C23            6.6331     4.7246    -1.0036 C.ar    
  24 C24            7.6046     4.1008    -0.2413 C.ar    
  25 C25            7.3269     2.9083     0.4027 C.ar    
  26 C26            6.0759     2.3366     0.2927 C.ar    
  27 C27            8.9712     4.7227    -0.1123 C.3     
  28 N28            8.9905     5.6268     1.0454 N.3     
  29 C29           10.3585     6.0677     1.3461 C.3     
  30 C30           10.3594     6.8868     2.6389 C.3     
  31 C31            9.4381     8.0982     2.4704 C.3     
  32 C32            8.0311     7.6134     2.1102 C.3     
  33 C33            8.0978     6.7732     0.8328 C.3     
  34 C34            9.3880     8.8760     3.7602 C.2     
  35 N35            8.6343     9.9900     3.8464 N.am    
  36 O36           10.0259     8.4995     4.7206 O.2     
  37 C37            8.5098    10.6574     5.0699 C.ar    
  38 C38            9.5876    10.7158     5.9424 C.ar    
  39 C39            9.4606    11.3781     7.1531 C.ar    
  40 C40            8.2568    11.9814     7.4903 C.ar    
  41 C41            7.1849    11.9223     6.6204 C.ar    
  42 C42            7.3093    11.2673     5.4102 C.ar    
  43 O43           10.5139    11.4367     8.0098 O.3     
  44 H44           -0.2852    -0.3374    -1.0043 H       
  45 H45            2.2400    -0.6977    -0.7946 H       
  46 H46           -2.8610     3.8895    -1.1321 H       
  47 H47            4.0342    -1.1626     0.9995 H       
  48 H48            6.0375    -2.5838     1.1368 H       
  49 H49            7.9641    -2.1463    -0.3293 H       
  50 H50            7.8982    -0.2876    -1.9396 H       
  51 H51            5.8990     1.1371    -2.0989 H       
  52 H52           -1.6784     6.8926    -2.0147 H       
  53 H53           -2.6289     6.5236    -0.5557 H       
  54 H54           -0.9900     7.2009    -0.4025 H       
  55 H55            4.6226     4.6476    -1.7216 H       
  56 H56            6.8560     5.6552    -1.5042 H       
  57 H57            8.0894     2.4261     0.9963 H       
  58 H58            5.8589     1.4079     0.7995 H       
  59 H59            9.7156     3.9387     0.0266 H       
  60 H60            9.2010     5.2858    -1.0168 H       
  61 H61           11.0024     5.1966     1.4677 H       
  62 H62           10.7304     6.6824     0.5264 H       
  63 H63           10.0006     6.2684     3.4617 H       
  64 H64           11.3724     7.2270     2.8534 H       
  65 H65            9.8185     8.7370     1.6732 H       
  66 H66            7.6357     7.0065     2.9247 H       
  67 H67            7.3807     8.4727     1.9470 H       
  68 H68            8.4802     7.3847     0.0155 H       
  69 H69            7.0996     6.4146     0.5815 H       
  70 H70            8.1782    10.3290     3.0604 H       
  71 H71           10.5234    10.2455     5.6785 H       
  72 H72            8.1578    12.4973     8.4339 H       
  73 H73            6.2493    12.3921     6.8853 H       
  74 H74            6.4712    11.2261     4.7302 H       
  75 H75           11.0878    12.2034     7.8758 H       
@<TRIPOS>BOND
   1    1    2 1
   2    1    6 1
   3    1   13 2
   4    2    3 2
   5    3    4 1
   6    3   44 1
   7    4    5 ar
   8    4    7 ar
   9    5    6 1
  10    5   10 ar
  11    6   11 1
  12    7    8 ar
  13    7   45 1
  14    8    9 ar
  15    8   14 1
  16    9   10 ar
  17    9   21 1
  18   11   12 2
  19   12   13 1
  20   12   20 1
  21   13   46 1
  22   14   15 ar
  23   14   19 ar
  24   15   16 ar
  25   15   47 1
  26   16   17 ar
  27   16   48 1
  28   17   18 ar
  29   17   49 1
  30   18   19 ar
  31   18   50 1
  32   19   51 1
  33   20   52 1
  34   20   53 1
  35   20   54 1
  36   21   22 ar
  37   21   26 ar
  38   22   23 ar
  39   22   55 1
  40   23   24 ar
  41   23   56 1
  42   24   25 ar
  43   24   27 1
  44   25   26 ar
  45   25   57 1
  46   26   58 1
  47   27   28 1
  48   27   59 1
  49   27   60 1
  50   28   29 1
  51   28   33 1
  52   29   30 1
  53   29   61 1
  54   29   62 1
  55   30   31 1
  56   30   63 1
  57   30   64 1
  58   31   32 1
  59   31   34 1
  60   31   65 1
  61   32   33 1
  62   32   66 1
  63   32   67 1
  64   33   68 1
  65   33   69 1
  66   34   35 am
  67   34   36 2
  68   35   37 1
  69   35   70 1
  70   37   38 ar
  71   37   42 ar
  72   38   39 ar
  73   38   71 1
  74   39   40 ar
  75   39   43 1
  76   40   41 ar
  77   40   72 1
  78   41   42 ar
  79   41   73 1
  80   42   74 1
  81   43   75 1

#	End of record

