#	Name: ASD01230876
#	Creating user name:	WinNT
#	Creation time:	15. 06. 2019 19:15

#	Modifying user name:	WinNT
#	Modification time:	15. 06. 2019 19:15

#	Program:	/corina/corina34_cracker 3.40 0067  02.08.2006

@<TRIPOS>MOLECULE
ASD01230876
  37   40    0    0    0
SMALL
NO_CHARGES


@<TRIPOS>ATOM
   1 S1            -0.0204     1.6504     0.0111 S.o2    
   2 N2             0.0021    -0.0041     0.0020 N.am    
   3 C3             1.0224    -0.6871    -0.4553 C.2     
   4 N4             2.1684    -0.1523    -0.9706 N.pl3   
   5 C5             2.3934     1.2849    -1.1470 C.3     
   6 C6             1.7502     2.0748    -0.0035 C.3     
   7 C7             0.8942    -2.1606    -0.3945 C.2     
   8 C8             1.9476    -2.9446    -0.8230 C.2     
   9 C9             3.1054    -2.3206    -1.3052 C.2     
  10 C10            3.1912    -0.9802    -1.3643 C.2     
  11 C11           -0.3400    -2.7824     0.1167 C.2     
  12 C12           -0.4287    -3.5351     1.2489 C.2     
  13 C13           -1.6881    -4.0099     1.5248 C.2     
  14 C14           -2.6417    -3.6517     0.6236 C.2     
  15 S15           -1.9235    -2.6593    -0.6377 S.3     
  16 C16           -4.0662    -4.0344     0.6962 C.ar    
  17 C17           -4.9585    -3.6070    -0.2896 C.ar    
  18 C18           -6.2875    -3.9686    -0.2158 C.ar    
  19 C19           -6.7374    -4.7528     0.8317 C.ar    
  20 C20           -5.8589    -5.1798     1.8118 C.ar    
  21 C21           -4.5261    -4.8301     1.7477 C.ar    
  22 O22           -0.6346     2.0065    -1.2198 O.2     
  23 O23           -0.6109     1.9932     1.2573 O.2     
  24 H24            3.4654     1.4817    -1.1615 H       
  25 H25            1.9573     1.6034    -2.0938 H       
  26 H26            1.8745     3.1441    -0.1748 H       
  27 H27            2.2073     1.7940     0.9453 H       
  28 H28            1.8798    -4.0219    -0.7867 H       
  29 H29            3.9391    -2.9235    -1.6335 H       
  30 H30            4.1022    -0.5360    -1.7372 H       
  31 H31            0.4235    -3.7425     1.8791 H       
  32 H32           -1.9039    -4.6200     2.3894 H       
  33 H33           -4.6087    -2.9946    -1.1075 H       
  34 H34           -6.9787    -3.6385    -0.9772 H       
  35 H35           -7.7792    -5.0327     0.8848 H       
  36 H36           -6.2167    -5.7917     2.6266 H       
  37 H37           -3.8406    -5.1677     2.5109 H       
@<TRIPOS>BOND
   1    1    2 am
   2    1    6 1
   3    1   22 2
   4    1   23 2
   5    2    3 2
   6    3    4 1
   7    3    7 1
   8    4    5 1
   9    4   10 1
  10    5    6 1
  11    5   24 1
  12    5   25 1
  13    6   26 1
  14    6   27 1
  15    7    8 2
  16    7   11 1
  17    8    9 1
  18    8   28 1
  19    9   10 2
  20    9   29 1
  21   10   30 1
  22   11   12 2
  23   11   15 1
  24   12   13 1
  25   12   31 1
  26   13   14 2
  27   13   32 1
  28   14   15 1
  29   14   16 1
  30   16   17 ar
  31   16   21 ar
  32   17   18 ar
  33   17   33 1
  34   18   19 ar
  35   18   34 1
  36   19   20 ar
  37   19   35 1
  38   20   21 ar
  39   20   36 1
  40   21   37 1

#	End of record

