#	Name: ASD02038672
#	Creating user name:	WinNT
#	Creation time:	15. 06. 2019 20:17

#	Modifying user name:	WinNT
#	Modification time:	15. 06. 2019 20:17

#	Program:	/corina/corina34_cracker 3.40 0067  02.08.2006

@<TRIPOS>MOLECULE
ASD02038672
  42   43    0    0    0
SMALL
NO_CHARGES


@<TRIPOS>ATOM
   1 C1             0.2596     1.4659    -0.0825 C.ar    
   2 C2             0.1432     0.0895    -0.1008 C.ar    
   3 C3             1.2707    -0.7024     0.0149 C.ar    
   4 C4             1.1409    -2.2036    -0.0059 C.3     
   5 C5             1.2472    -2.6974    -1.4257 C.2     
   6 N6             1.1590    -4.0163    -1.6889 N.am    
   7 C7             1.2624    -4.4963    -3.0692 C.3     
   8 C8             1.1306    -6.0205    -3.0903 C.3     
   9 N9             1.2339    -6.5005    -4.4705 N.am    
  10 C10            2.1641   -10.1744    -7.1526 C.ar    
  11 C11            1.2389    -9.6352    -6.2684 C.ar    
  12 N12            1.2408    -8.2610    -6.0035 N.am    
  13 C13            1.5091     2.0535     0.0521 C.ar    
  14 C14            2.6389     1.2567     0.1680 C.ar    
  15 C15            2.5172    -0.1192     0.1491 C.ar    
  16 O16            1.6263     3.4073     0.0700 O.3     
  17 C17            1.1457    -7.8194    -4.7337 C.2     
  18 O18            1.4122    -1.9080    -2.3316 O.2     
  19 S19            0.9129    -8.9337    -3.4550 S.2     
  20 C20            2.1597   -11.5308    -7.4127 C.ar    
  21 C21            1.2342   -12.3523    -6.7934 C.ar    
  22 C22            0.3115   -11.8176    -5.9115 C.ar    
  23 C23            0.3115   -10.4619    -5.6479 C.ar    
  24 Cl24           1.2308   -14.0566    -7.1233 Cl      
  25 H25           -0.6209     2.0841    -0.1773 H       
  26 H26           -0.8293    -0.3684    -0.2052 H       
  27 H27            1.9372    -2.6455     0.5930 H       
  28 H28            0.1738    -2.4905     0.4071 H       
  29 H29            1.0271    -4.6477    -0.9644 H       
  30 H30            0.4661    -4.0545    -3.6681 H       
  31 H31            2.2295    -4.2095    -3.4821 H       
  32 H32            1.9269    -6.4624    -2.4913 H       
  33 H33            0.1635    -6.3073    -2.6773 H       
  34 H34            1.3659    -5.8692    -5.1950 H       
  35 H35            2.8835    -9.5330    -7.6399 H       
  36 H36            1.3106    -7.6264    -6.7338 H       
  37 H37            3.6128     1.7117     0.2725 H       
  38 H38            3.3964    -0.7400     0.2393 H       
  39 H39            1.5673     3.7956     0.9536 H       
  40 H40            2.8790   -11.9506    -8.1002 H       
  41 H41           -0.4100   -12.4609    -5.4297 H       
  42 H42           -0.4093   -10.0450    -4.9602 H       
@<TRIPOS>BOND
   1    1    2 ar
   2    1   13 ar
   3    1   25 1
   4    2    3 ar
   5    2   26 1
   6    3    4 1
   7    3   15 ar
   8    4    5 1
   9    4   27 1
  10    4   28 1
  11    5    6 am
  12    5   18 2
  13    6    7 1
  14    6   29 1
  15    7    8 1
  16    7   30 1
  17    7   31 1
  18    8    9 1
  19    8   32 1
  20    8   33 1
  21    9   17 am
  22    9   34 1
  23   10   11 ar
  24   10   20 ar
  25   10   35 1
  26   11   12 1
  27   11   23 ar
  28   12   17 am
  29   12   36 1
  30   13   14 ar
  31   13   16 1
  32   14   15 ar
  33   14   37 1
  34   15   38 1
  35   16   39 1
  36   17   19 2
  37   20   21 ar
  38   20   40 1
  39   21   22 ar
  40   21   24 1
  41   22   23 ar
  42   22   41 1
  43   23   42 1

#	End of record

