#	Name: ASD05513038
#	Creating user name:	WinNT
#	Creation time:	15. 06. 2019 21:01

#	Modifying user name:	WinNT
#	Modification time:	15. 06. 2019 21:01

#	Program:	/corina/corina34_cracker 3.40 0067  02.08.2006

@<TRIPOS>MOLECULE
ASD05513038
  48   51    0    0    0
SMALL
NO_CHARGES


@<TRIPOS>ATOM
   1 C1            -0.1880     1.1317    -0.9096 C.2     
   2 C2             0.0021    -0.0041     0.0020 C.2     
   3 C3             1.1412    -0.7444    -0.0622 C.2     
   4 C4             2.5215    -0.2570    -0.2597 C.ar    
   5 C5             3.3488    -1.3900    -0.2549 C.ar    
   6 N6             2.5723    -2.5295    -0.0691 N.am    
   7 C7             1.2702    -2.2211     0.0574 C.2     
   8 C8             3.0688     1.0138    -0.4306 C.ar    
   9 C9             4.4335     1.1545    -0.5960 C.ar    
  10 C10            5.2513     0.0375    -0.5920 C.ar    
  11 C11            4.7184    -1.2258    -0.4228 C.ar    
  12 O12            0.3608    -3.0082     0.2300 O.2     
  13 O13            0.5993     1.3215    -1.8171 O.2     
  14 C14           -1.3392     2.0404    -0.7279 C.ar    
  15 Cl15           2.0407     2.4127    -0.4363 Cl      
  16 C16           -2.2537     1.8302     0.3066 C.ar    
  17 N17           -3.2792     2.6401     0.4681 N.ar    
  18 C18           -3.4851     3.6715    -0.3287 C.ar    
  19 C19           -2.6249     3.9480    -1.3771 C.ar    
  20 C20           -1.5288     3.1311    -1.5872 C.ar    
  21 C21            3.1070    -3.8922    -0.0115 C.3     
  22 C22            3.4487    -4.2380     1.4149 C.ar    
  23 C23            2.4998    -4.8226     2.2274 C.ar    
  24 C24            2.8182    -5.1423     3.5490 C.ar    
  25 C25            4.0963    -4.8673     4.0385 C.ar    
  26 C26            5.0359    -4.2823     3.2149 C.ar    
  27 C27            4.7156    -3.9733     1.9050 C.ar    
  28 C28            1.8068    -5.7682     4.4252 C.2     
  29 O29            0.6954    -6.0058     3.9965 O.2     
  30 O30            2.1171    -6.0753     5.6996 O.3     
  31 C31            1.0742    -6.6882     6.5026 C.3     
  32 H32           -0.7627    -0.2514     0.7234 H       
  33 H33            4.8624     2.1368    -0.7288 H       
  34 H34            6.3170     0.1549    -0.7225 H       
  35 H35            5.3681    -2.0885    -0.4214 H       
  36 H36           -2.1188     0.9963     0.9795 H       
  37 H37           -4.3394     4.3105    -0.1602 H       
  38 H38           -2.8054     4.7954    -2.0219 H       
  39 H39           -0.8413     3.3240    -2.3974 H       
  40 H40            2.3598    -4.5919    -0.3860 H       
  41 H41            4.0050    -3.9564    -0.6260 H       
  42 H42            1.5128    -5.0323     1.8425 H       
  43 H43            4.3490    -5.1117     5.0597 H       
  44 H44            6.0250    -4.0687     3.5924 H       
  45 H45            5.4548    -3.5154     1.2645 H       
  46 H46            0.2194    -6.0146     6.5635 H       
  47 H47            0.7652    -7.6266     6.0421 H       
  48 H48            1.4550    -6.8835     7.5051 H       
@<TRIPOS>BOND
   1    1    2 1
   2    1   13 2
   3    1   14 1
   4    2    3 2
   5    2   32 1
   6    3    4 1
   7    3    7 1
   8    4    5 ar
   9    4    8 ar
  10    5    6 1
  11    5   11 ar
  12    6    7 am
  13    6   21 1
  14    7   12 2
  15    8    9 ar
  16    8   15 1
  17    9   10 ar
  18    9   33 1
  19   10   11 ar
  20   10   34 1
  21   11   35 1
  22   14   16 ar
  23   14   20 ar
  24   16   17 ar
  25   16   36 1
  26   17   18 ar
  27   18   19 ar
  28   18   37 1
  29   19   20 ar
  30   19   38 1
  31   20   39 1
  32   21   22 1
  33   21   40 1
  34   21   41 1
  35   22   23 ar
  36   22   27 ar
  37   23   24 ar
  38   23   42 1
  39   24   25 ar
  40   24   28 1
  41   25   26 ar
  42   25   43 1
  43   26   27 ar
  44   26   44 1
  45   27   45 1
  46   28   29 2
  47   28   30 1
  48   30   31 1
  49   31   46 1
  50   31   47 1
  51   31   48 1

#	End of record

