#	Name: ASD03731032
#	Creating user name:	WinNT
#	Creation time:	15. 06. 2019 20:45

#	Modifying user name:	WinNT
#	Modification time:	15. 06. 2019 20:45

#	Program:	/corina/corina34_cracker 3.40 0067  02.08.2006

@<TRIPOS>MOLECULE
ASD03731032
  48   53    0    0    0
SMALL
NO_CHARGES


@<TRIPOS>ATOM
   1 O1             0.3506     1.4902    -0.9989 O.3     
   2 C2             0.4105     0.0568    -1.1205 C.3     
   3 O3             1.7649    -0.1953    -1.5383 O.3     
   4 C4             2.4979     0.8496    -1.0524 C.ar    
   5 C5             1.6279     1.8860    -0.7220 C.ar    
   6 C6             3.8595     1.0020    -0.8616 C.ar    
   7 C7             4.3701     2.1876    -0.3418 C.ar    
   8 C8             3.4919     3.2190    -0.0232 C.ar    
   9 C9             2.1332     3.0676    -0.2064 C.ar    
  10 O10            5.6597     2.5330    -0.0628 O.3     
  11 C11            4.3350     4.3597     0.4807 C.3     
  12 C12            5.7541     3.9662     0.0485 C.3     
  13 N13            3.6125     6.4801     0.9347 N.am    
  14 C14            3.9166     5.6776    -0.1049 C.2     
  15 C15            4.2304     4.5335     1.9668 C.ar    
  16 C16            4.4729     3.7063     3.0407 C.ar    
  17 C17            4.2786     4.1694     4.3298 C.ar    
  18 C18            3.8403     5.4647     4.5369 C.ar    
  19 C19            3.5952     6.2969     3.4646 C.ar    
  20 C20            3.7883     5.8393     2.1635 C.ar    
  21 O21            3.8631     5.9639    -1.2822 O.2     
  22 C22            3.1520     7.8635     0.7924 C.3     
  23 C23            1.6455     7.8956     0.8074 C.ar    
  24 C24            0.9793     9.1038     0.7165 C.ar    
  25 C25           -0.4021     9.1344     0.7297 C.ar    
  26 C26           -1.1193     7.9543     0.8340 C.ar    
  27 C27           -0.4512     6.7453     0.9250 C.ar    
  28 C28            0.9306     6.7167     0.9063 C.ar    
  29 C29            1.7600    10.3878     0.6034 C.3     
  30 F30            0.8739    11.4625     0.4733 F       
  31 F31            2.5393    10.5623     1.7521 F       
  32 F32            2.5917    10.3305    -0.5201 F       
  33 F33           -2.4699     7.9831     0.8475 F       
  34 H34            0.2116    -0.4176    -0.1595 H       
  35 H35           -0.2943    -0.2933    -1.8747 H       
  36 H36            4.5306     0.1955    -1.1175 H       
  37 H37            1.4618     3.8730     0.0524 H       
  38 H38            6.4825     4.2483     0.8087 H       
  39 H39            6.0039     4.4137    -0.9135 H       
  40 H40            4.8147     2.6951     2.8765 H       
  41 H41            4.4684     3.5209     5.1723 H       
  42 H42            3.6889     5.8262     5.5433 H       
  43 H43            3.2523     7.3068     3.6346 H       
  44 H44            3.5364     8.4612     1.6189 H       
  45 H45            3.5148     8.2720    -0.1509 H       
  46 H46           -0.9222    10.0782     0.6590 H       
  47 H47           -1.0095     5.8244     1.0068 H       
  48 H48            1.4520     5.7732     0.9727 H       
@<TRIPOS>BOND
   1    1    2 1
   2    1    5 1
   3    2    3 1
   4    2   34 1
   5    2   35 1
   6    3    4 1
   7    4    5 ar
   8    4    6 ar
   9    5    9 ar
  10    6    7 ar
  11    6   36 1
  12    7    8 ar
  13    7   10 1
  14    8    9 ar
  15    8   11 1
  16    9   37 1
  17   10   12 1
  18   11   12 1
  19   11   14 1
  20   11   15 1
  21   12   38 1
  22   12   39 1
  23   13   14 am
  24   13   20 1
  25   13   22 1
  26   14   21 2
  27   15   16 ar
  28   15   20 ar
  29   16   17 ar
  30   16   40 1
  31   17   18 ar
  32   17   41 1
  33   18   19 ar
  34   18   42 1
  35   19   20 ar
  36   19   43 1
  37   22   23 1
  38   22   44 1
  39   22   45 1
  40   23   24 ar
  41   23   28 ar
  42   24   25 ar
  43   24   29 1
  44   25   26 ar
  45   25   46 1
  46   26   27 ar
  47   26   33 1
  48   27   28 ar
  49   27   47 1
  50   28   48 1
  51   29   30 1
  52   29   31 1
  53   29   32 1

#	End of record

