#	Name: ASD01170009
#	Creating user name:	WinNT
#	Creation time:	15. 06. 2019 19:06

#	Modifying user name:	WinNT
#	Modification time:	15. 06. 2019 19:06

#	Program:	/corina/corina34_cracker 3.40 0067  02.08.2006

@<TRIPOS>MOLECULE
ASD01170009
  39   42    0    0    0
SMALL
NO_CHARGES


@<TRIPOS>ATOM
   1 O1             0.0021    -0.0041     0.0020 O.2     
   2 C2            -0.0144     1.2087     0.0087 C.2     
   3 N3             1.0556     2.0215     0.0028 N.am    
   4 C4             0.6950     3.3694     0.0127 C.ar    
   5 C5            -0.6879     3.4966     0.0260 C.ar    
   6 C6            -1.2443     2.0914     0.0185 C.3     
   7 O7            -2.0148     1.8517     1.1979 O.3     
   8 C8            -2.0914     1.8569    -1.2338 C.3     
   9 C9            -2.6338     0.4509    -1.2174 C.2     
  10 O10           -2.3688    -0.2906    -0.2948 O.2     
  11 C11           -3.4831    -0.0214    -2.3185 C.ar    
  12 C12           -3.7904     0.8324    -3.3843 C.ar    
  13 C13           -4.5870     0.3868    -4.4151 C.ar    
  14 C14           -5.0883    -0.9086    -4.4025 C.ar    
  15 C15           -4.7860    -1.7664    -3.3424 C.ar    
  16 C16           -3.9837    -1.3294    -2.3084 C.ar    
  17 O17           -5.3937    -2.9681    -3.5684 O.3     
  18 C18           -5.7298    -2.9705    -4.9684 C.3     
  19 O19           -5.8834    -1.5749    -5.2869 O.3     
  20 C20           -1.2820     4.7395     0.0382 C.ar    
  21 Br21          -3.1670     4.8880     0.0568 Br      
  22 C22           -0.4964     5.8800     0.0372 C.ar    
  23 C23            0.8817     5.7657     0.0240 C.ar    
  24 C24            1.4785     4.5221     0.0115 C.ar    
  25 C25           -1.1415     7.2419     0.0500 C.3     
  26 H26            1.9732     1.7073    -0.0071 H       
  27 H27           -2.3960     0.9642     1.2451 H       
  28 H28           -2.9195     2.5655    -1.2503 H       
  29 H29           -1.4747     1.9981    -2.1213 H       
  30 H30           -3.4030     1.8404    -3.3979 H       
  31 H31           -4.8232     1.0470    -5.2365 H       
  32 H32           -3.7492    -1.9921    -1.4885 H       
  33 H33           -4.9232    -3.4104    -5.5550 H       
  34 H34           -6.6636    -3.5067    -5.1370 H       
  35 H35            1.4942     6.6552     0.0229 H       
  36 H36            2.5555     4.4415     0.0015 H       
  37 H37           -1.2880     7.5648     1.0807 H       
  38 H38           -0.4973     7.9539    -0.4658 H       
  39 H39           -2.1059     7.1919    -0.4556 H       
@<TRIPOS>BOND
   1    1    2 2
   2    2    3 am
   3    2    6 1
   4    3    4 1
   5    3   26 1
   6    4    5 ar
   7    4   24 ar
   8    5    6 1
   9    5   20 ar
  10    6    7 1
  11    6    8 1
  12    7   27 1
  13    8    9 1
  14    8   28 1
  15    8   29 1
  16    9   10 2
  17    9   11 1
  18   11   12 ar
  19   11   16 ar
  20   12   13 ar
  21   12   30 1
  22   13   14 ar
  23   13   31 1
  24   14   15 ar
  25   14   19 1
  26   15   16 ar
  27   15   17 1
  28   16   32 1
  29   17   18 1
  30   18   19 1
  31   18   33 1
  32   18   34 1
  33   20   21 1
  34   20   22 ar
  35   22   23 ar
  36   22   25 1
  37   23   24 ar
  38   23   35 1
  39   24   36 1
  40   25   37 1
  41   25   38 1
  42   25   39 1

#	End of record

