#	Name: ASD01915289
#	Creating user name:	WinNT
#	Creation time:	15. 06. 2019 20:05

#	Modifying user name:	WinNT
#	Modification time:	15. 06. 2019 20:05

#	Program:	/corina/corina34_cracker 3.40 0067  02.08.2006

@<TRIPOS>MOLECULE
ASD01915289
  38   41    0    0    0
SMALL
NO_CHARGES


@<TRIPOS>ATOM
   1 N1            -0.0197     1.3358     0.0266 N.2     
   2 C2            -0.0120     0.0284     0.0083 C.2     
   3 N3             1.2820    -0.3630    -0.0161 N.2     
   4 C4             1.9841     0.7426    -0.0110 C.2     
   5 O5             1.1168     1.7594     0.0159 O.3     
   6 C6             3.4872     0.8486    -0.0316 C.3     
   7 C7            -1.2012    -0.8598     0.0141 C.ar    
   8 C8             3.9698     1.6242    -1.2773 C.3     
   9 N9             5.1261     2.4079    -0.8270 N.am    
  10 C10            5.1616     2.4997     0.5136 C.2     
  11 C11            3.9942     1.7506     1.1175 C.3     
  12 O12            6.0065     3.0964     1.1469 O.2     
  13 C13            6.0706     2.9848    -1.6831 C.ar    
  14 C14            6.0165     2.7353    -3.0482 C.ar    
  15 C15            6.9502     3.3063    -3.8906 C.ar    
  16 C16            7.9385     4.1252    -3.3760 C.ar    
  17 C17            7.9954     4.3753    -2.0172 C.ar    
  18 C18            7.0606     3.8127    -1.1703 C.ar    
  19 C19           -2.4823    -0.3127     0.0408 C.ar    
  20 C20           -3.5846    -1.1433     0.0455 C.ar    
  21 C21           -3.4193    -2.5164     0.0239 C.ar    
  22 C22           -2.1497    -3.0648    -0.0026 C.ar    
  23 C23           -1.0405    -2.2435    -0.0130 C.ar    
  24 H24            3.9465    -0.1388     0.0153 H       
  25 H25            4.2677     0.9293    -2.0624 H       
  26 H26            3.1826     2.2865    -1.6376 H       
  27 H27            3.2147     2.4460     1.4288 H       
  28 H28            4.3250     1.1444     1.9608 H       
  29 H29            5.2453     2.0953    -3.4506 H       
  30 H30            6.9087     3.1127    -4.9523 H       
  31 H31            8.6678     4.5703    -4.0368 H       
  32 H32            8.7689     5.0147    -1.6183 H       
  33 H33            7.1054     4.0086    -0.1092 H       
  34 H34           -2.6125     0.7593     0.0580 H       
  35 H35           -4.5781    -0.7203     0.0666 H       
  36 H36           -4.2846    -3.1626     0.0281 H       
  37 H37           -2.0262    -4.1376    -0.0191 H       
  38 H38           -0.0497    -2.6727    -0.0337 H       
@<TRIPOS>BOND
   1    1    2 2
   2    1    5 1
   3    2    3 1
   4    2    7 1
   5    3    4 2
   6    4    5 1
   7    4    6 1
   8    6    8 1
   9    6   11 1
  10    6   24 1
  11    7   19 ar
  12    7   23 ar
  13    8    9 1
  14    8   25 1
  15    8   26 1
  16    9   10 am
  17    9   13 1
  18   10   11 1
  19   10   12 2
  20   11   27 1
  21   11   28 1
  22   13   14 ar
  23   13   18 ar
  24   14   15 ar
  25   14   29 1
  26   15   16 ar
  27   15   30 1
  28   16   17 ar
  29   16   31 1
  30   17   18 ar
  31   17   32 1
  32   18   33 1
  33   19   20 ar
  34   19   34 1
  35   20   21 ar
  36   20   35 1
  37   21   22 ar
  38   21   36 1
  39   22   23 ar
  40   22   37 1
  41   23   38 1

#	End of record

