#	Name: ASD01900710
#	Creating user name:	WinNT
#	Creation time:	15. 06. 2019 19:52

#	Modifying user name:	WinNT
#	Modification time:	15. 06. 2019 19:52

#	Program:	/corina/corina34_cracker 3.40 0067  02.08.2006

@<TRIPOS>MOLECULE
ASD01900710
  45   48    0    0    0
SMALL
NO_CHARGES


@<TRIPOS>ATOM
   1 N1             0.6520     1.6045     0.5513 N.am    
   2 C2             1.0414     0.2856     0.8124 C.ar    
   3 C3             2.7742    -1.3391     1.1467 C.ar    
   4 C4             2.3896    -0.0381     0.8891 C.ar    
   5 C5             0.0790    -0.6984     1.0005 C.ar    
   6 C6             0.4634    -1.9995     1.2586 C.ar    
   7 C7             1.8132    -2.3238     1.3300 C.ar    
   8 Cl8           -0.7388    -3.2295     1.4943 Cl      
   9 C9             1.3538     2.3540    -0.3219 C.2     
  10 C10            0.9099     3.7260    -0.6408 C.ar    
  11 O11            2.3523     1.9005    -0.8470 O.2     
  12 C12            1.5687     4.4571    -1.6387 C.ar    
  13 C13            1.1328     5.7514    -1.9244 C.ar    
  14 C14            0.0652     6.2595    -1.2078 C.ar    
  15 C15           -0.5380     5.4765    -0.2336 C.ar    
  16 N16           -0.1151     4.2580     0.0163 N.ar    
  17 N17            2.6373     3.9029    -2.3310 N.pl3   
  18 N18            2.2037    -3.6440     1.5910 N.am    
  19 C19            2.7996    -5.8952     0.7140 C.3     
  20 C20            2.3952    -4.4619     0.5541 C.2     
  21 C21            2.3837    -4.0461     2.9753 C.3     
  22 C22            2.2752    -5.5349     3.1479 C.ar    
  23 C23            2.4673    -6.4015     2.0930 C.ar    
  24 C24            2.3594    -7.7690     2.2927 C.ar    
  25 C25            1.9742    -6.0383     4.4048 C.ar    
  26 C26            1.8671    -7.4002     4.6041 C.ar    
  27 C27            2.0549    -8.2692     3.5432 C.ar    
  28 O28            2.2345    -4.0259    -0.5663 O.2     
  29 H29           -0.1252     1.9778     0.9957 H       
  30 H30            3.8229    -1.5904     1.2056 H       
  31 H31            3.1376     0.7279     0.7470 H       
  32 H32           -0.9696    -0.4458     0.9453 H       
  33 H33            1.6181     6.3425    -2.6870 H       
  34 H34           -0.2963     7.2581    -1.4043 H       
  35 H35           -1.3719     5.8741     0.3258 H       
  36 H36            2.7421     2.9394    -2.3708 H       
  37 H37            3.2789     4.4792    -2.7749 H       
  38 H38            2.2745    -6.4994    -0.0258 H       
  39 H39            3.8735    -5.9841     0.5498 H       
  40 H40            3.3674    -3.7208     3.3138 H       
  41 H41            1.6222    -3.5620     3.5868 H       
  42 H42            2.5140    -8.4465     1.4660 H       
  43 H43            1.8232    -5.3610     5.2324 H       
  44 H44            1.6329    -7.7866     5.5850 H       
  45 H45            1.9712    -9.3353     3.6942 H       
@<TRIPOS>BOND
   1    1    2 1
   2    1    9 am
   3    1   29 1
   4    2    5 ar
   5    2    4 ar
   6    3    4 ar
   7    3    7 ar
   8    3   30 1
   9    4   31 1
  10    5    6 ar
  11    5   32 1
  12    6    7 ar
  13    6    8 1
  14    7   18 1
  15    9   10 1
  16    9   11 2
  17   10   12 ar
  18   10   16 ar
  19   12   13 ar
  20   12   17 1
  21   13   14 ar
  22   13   33 1
  23   14   15 ar
  24   14   34 1
  25   15   16 ar
  26   15   35 1
  27   17   36 1
  28   17   37 1
  29   18   21 1
  30   18   20 am
  31   19   20 1
  32   19   23 1
  33   19   38 1
  34   19   39 1
  35   20   28 2
  36   21   22 1
  37   21   40 1
  38   21   41 1
  39   22   25 ar
  40   22   23 ar
  41   23   24 ar
  42   24   27 ar
  43   24   42 1
  44   25   26 ar
  45   25   43 1
  46   26   27 ar
  47   26   44 1
  48   27   45 1

#	End of record

