#	Name: ASD02500453
#	Creating user name:	WinNT
#	Creation time:	15. 06. 2019 20:22

#	Modifying user name:	WinNT
#	Modification time:	15. 06. 2019 20:22

#	Program:	/corina/corina34_cracker 3.40 0067  02.08.2006

@<TRIPOS>MOLECULE
ASD02500453
  67   71    0    0    0
SMALL
NO_CHARGES


@<TRIPOS>ATOM
   1 C1             0.6922    -0.0786    -1.1950 C.2     
   2 C2             0.9316    -1.5659    -1.1544 C.3     
   3 O3             0.3680     0.4531    -2.2304 O.2     
   4 O4             0.8337     0.6548    -0.0793 O.3     
   5 C5             0.6990     2.0015    -0.2049 C.ar    
   6 C6            -0.5316     2.5487    -0.5378 C.ar    
   7 C7            -0.6659     3.9178    -0.6644 C.ar    
   8 C8             0.4249     4.7425    -0.4601 C.ar    
   9 C9             1.6524     4.1996    -0.1282 C.ar    
  10 C10            1.7906     2.8315     0.0052 C.ar    
  11 C11            0.2757     6.2356    -0.5998 C.3     
  12 N12           -0.0951     6.8142     0.6985 N.3     
  13 C13           -0.0189     8.2808     0.6622 C.3     
  14 C14           -0.5834     8.8508     1.9679 C.3     
  15 N15            0.1186     8.2192     3.0955 N.am    
  16 C16            0.2030     6.7512     3.1284 C.3     
  17 C17            0.7366     6.2639     1.7770 C.3     
  18 C18            0.6696     8.9658     4.0729 C.2     
  19 C19            1.2639     8.3121     5.2543 C.ar    
  20 C20            2.3766     8.8789     5.8829 C.ar    
  21 C21            2.9287     8.2667     6.9847 C.ar    
  22 C22            2.3804     7.0841     7.4735 C.ar    
  23 C23            1.2727     6.5169     6.8495 C.ar    
  24 C24            0.7122     7.1276     5.7511 C.ar    
  25 O25            0.6768    10.1783     3.9810 O.2     
  26 S26            1.9652     5.9148     9.8056 S.o2    
  27 O27            0.9350     5.1594     9.1834 O.2     
  28 O28            2.8288     5.3803    10.7995 O.2     
  29 N29            2.9406     6.4679     8.5870 N.am    
  30 N30            3.2837     8.1755    11.2802 N.ar    
  31 C31            4.0067     9.0803    11.8940 C.ar    
  32 C32            3.4306    10.2059    12.4793 C.ar    
  33 C33            2.0782    10.3877    12.4212 C.ar    
  34 C34            1.3050     9.4141    11.7608 C.ar    
  35 C35           -0.0903     9.5326    11.6612 C.ar    
  36 C36           -0.8030     8.5693    11.0145 C.ar    
  37 C37           -0.1657     7.4670    10.4491 C.ar    
  38 C38            1.1851     7.3199    10.5277 C.ar    
  39 C39            1.9553     8.2931    11.1876 C.ar    
  40 H40            0.7652    -1.9879    -2.1455 H       
  41 H41            1.9584    -1.7603    -0.8444 H       
  42 H42            0.2444    -2.0253    -0.4439 H       
  43 H43           -1.3838     1.9049    -0.6981 H       
  44 H44           -1.6237     4.3443    -0.9235 H       
  45 H45            2.5031     4.8458     0.0305 H       
  46 H46            2.7487     2.4082     0.2684 H       
  47 H47            1.2204     6.6655    -0.9327 H       
  48 H48           -0.5017     6.4562    -1.3313 H       
  49 H49            1.0209     8.5883     0.5507 H       
  50 H50           -0.6015     8.6546    -0.1797 H       
  51 H51           -0.4250     9.9288     1.9955 H       
  52 H52           -1.6495     8.6327     2.0319 H       
  53 H53            0.8814     6.4411     3.9232 H       
  54 H54           -0.7874     6.3313     3.3039 H       
  55 H55            0.7019     5.1750     1.7435 H       
  56 H56            1.7659     6.5995     1.6500 H       
  57 H57            2.8026     9.7961     5.5039 H       
  58 H58            3.7885     8.7039     7.4705 H       
  59 H59            0.8500     5.5990     7.2306 H       
  60 H60           -0.1503     6.6898     5.2705 H       
  61 H61            3.9028     6.3620     8.6500 H       
  62 H62            5.0775     8.9498    11.9478 H       
  63 H63            4.0528    10.9338    12.9788 H       
  64 H64            1.6149    11.2540    12.8697 H       
  65 H65           -0.5956    10.3828    12.0953 H       
  66 H66           -1.8764     8.6612    10.9384 H       
  67 H67           -0.7533     6.7160     9.9419 H       
@<TRIPOS>BOND
   1    1    2 1
   2    1    3 2
   3    1    4 1
   4    2   40 1
   5    2   41 1
   6    2   42 1
   7    4    5 1
   8    5    6 ar
   9    5   10 ar
  10    6    7 ar
  11    6   43 1
  12    7    8 ar
  13    7   44 1
  14    8    9 ar
  15    8   11 1
  16    9   10 ar
  17    9   45 1
  18   10   46 1
  19   11   12 1
  20   11   47 1
  21   11   48 1
  22   12   13 1
  23   12   17 1
  24   13   14 1
  25   13   49 1
  26   13   50 1
  27   14   15 1
  28   14   51 1
  29   14   52 1
  30   15   16 1
  31   15   18 am
  32   16   17 1
  33   16   53 1
  34   16   54 1
  35   17   55 1
  36   17   56 1
  37   18   19 1
  38   18   25 2
  39   19   20 ar
  40   19   24 ar
  41   20   21 ar
  42   20   57 1
  43   21   22 ar
  44   21   58 1
  45   22   23 ar
  46   22   29 1
  47   23   24 ar
  48   23   59 1
  49   24   60 1
  50   26   27 2
  51   26   28 2
  52   26   29 am
  53   26   38 1
  54   29   61 1
  55   30   31 ar
  56   30   39 ar
  57   31   32 ar
  58   31   62 1
  59   32   33 ar
  60   32   63 1
  61   33   34 ar
  62   33   64 1
  63   34   35 ar
  64   34   39 ar
  65   35   36 ar
  66   35   65 1
  67   36   37 ar
  68   36   66 1
  69   37   38 ar
  70   37   67 1
  71   38   39 ar

#	End of record

