#	Name: ASD03331739
#	Creating user name:	WinNT
#	Creation time:	15. 06. 2019 20:39

#	Modifying user name:	WinNT
#	Modification time:	15. 06. 2019 20:39

#	Program:	/corina/corina34_cracker 3.40 0067  02.08.2006

@<TRIPOS>MOLECULE
ASD03331739
  43   46    0    0    0
SMALL
NO_CHARGES


@<TRIPOS>ATOM
   1 C1             0.2715     1.3274    -0.1007 C.ar    
   2 C2             0.4087    -0.0308    -0.1586 C.ar    
   3 C3             1.6685    -0.6102    -0.2204 C.ar    
   4 C4             2.8031     0.1720    -0.2241 C.ar    
   5 C5             1.4083     2.1404    -0.1037 C.ar    
   6 C6             1.6190     3.5862    -0.0542 C.2     
   7 C7             2.6884     1.5568    -0.1659 C.ar    
   8 N8             3.6093     2.5811    -0.1543 N.pl3   
   9 C9             2.9590     3.7917    -0.0880 C.2     
  10 C10            0.5506     4.6464     0.0196 C.3     
  11 C11            3.6200     5.1143    -0.0578 C.ar    
  12 C12           -0.2442     4.6485    -1.2607 C.ar    
  13 C13           -0.3804     4.3511     1.1973 C.3     
  14 C14            3.1402     6.1558    -0.8530 C.ar    
  15 C15            4.7226     5.3278     0.7705 C.ar    
  16 C16            5.3345     6.5642     0.7944 C.ar    
  17 C17            4.8568     7.5912    -0.0000 C.ar    
  18 C18            3.7610     7.3875    -0.8198 C.ar    
  19 C19           -2.0395     3.7957    -2.5834 C.ar    
  20 C20           -1.6578     4.6763    -3.5842 C.ar    
  21 C21           -0.5726     5.5055    -3.3737 C.ar    
  22 N22            0.0934     5.4692    -2.2360 N.ar    
  23 C23           -1.3152     3.7861    -1.4014 C.ar    
  24 N24            0.3674     4.4666     2.4518 N.pl3   
  25 O25           -0.1164     5.0641     3.3964 O.2     
  26 O26            1.4729     3.9649     2.5501 O.2     
  27 H27           -0.7121     1.7713    -0.0572 H       
  28 H28           -0.4701    -0.6586    -0.1558 H       
  29 H29            1.7605    -1.6854    -0.2657 H       
  30 H30            3.7786    -0.2890    -0.2718 H       
  31 H31            4.5719     2.4661    -0.1878 H       
  32 H32            1.0159     5.6220     0.1600 H       
  33 H33           -1.2034     5.0658     1.1979 H       
  34 H34           -0.7770     3.3403     1.1024 H       
  35 H35            2.2849     5.9980    -1.4933 H       
  36 H36            5.0960     4.5271     1.3916 H       
  37 H37            6.1879     6.7307     1.4350 H       
  38 H38            5.3388     8.5574     0.0229 H       
  39 H39            3.3906     8.1943    -1.4347 H       
  40 H40           -2.8836     3.1359    -2.7199 H       
  41 H41           -2.1993     4.7109    -4.5180 H       
  42 H42           -0.2689     6.1942    -4.1482 H       
  43 H43           -1.5842     3.1130    -0.6007 H       
@<TRIPOS>BOND
   1    1    2 ar
   2    1    5 ar
   3    1   27 1
   4    2    3 ar
   5    2   28 1
   6    3    4 ar
   7    3   29 1
   8    4    7 ar
   9    4   30 1
  10    5    7 ar
  11    5    6 1
  12    6    9 2
  13    6   10 1
  14    7    8 1
  15    8    9 1
  16    8   31 1
  17    9   11 1
  18   10   12 1
  19   10   13 1
  20   10   32 1
  21   11   15 ar
  22   11   14 ar
  23   12   23 ar
  24   12   22 ar
  25   13   24 1
  26   13   33 1
  27   13   34 1
  28   14   18 ar
  29   14   35 1
  30   15   16 ar
  31   15   36 1
  32   16   17 ar
  33   16   37 1
  34   17   18 ar
  35   17   38 1
  36   18   39 1
  37   19   20 ar
  38   19   23 ar
  39   19   40 1
  40   20   21 ar
  41   20   41 1
  42   21   22 ar
  43   21   42 1
  44   23   43 1
  45   24   25 2
  46   24   26 2

#	End of record

