#	Name: ASD03090263
#	Creating user name:	WinNT
#	Creation time:	15. 06. 2019 20:28

#	Modifying user name:	WinNT
#	Modification time:	15. 06. 2019 20:28

#	Program:	/corina/corina34_cracker 3.40 0067  02.08.2006

@<TRIPOS>MOLECULE
ASD03090263
  51   53    0    0    0
SMALL
NO_CHARGES


@<TRIPOS>ATOM
   1 N1             0.0489     1.2532     0.1242 N.ar    
   2 C2             0.3911     0.3933     1.0644 C.ar    
   3 C3             1.5773    -0.3067     0.9865 C.ar    
   4 C4             2.4205    -0.0930    -0.1094 C.ar    
   5 C5             2.0179     0.8278    -1.0824 C.ar    
   6 C6             0.8143     1.4844    -0.9249 C.ar    
   7 C7             3.7032    -0.8206    -0.2355 C.2     
   8 N8             5.7054    -3.7092    -0.1992 N.pl3   
   9 C9             7.0892    -3.8876    -0.2981 C.ar    
  10 C10            7.9524    -2.9165     0.1922 C.ar    
  11 C11            9.3186    -3.0948     0.0934 C.ar    
  12 C12            9.8275    -4.2404    -0.4943 C.ar    
  13 C13            8.9686    -5.2102    -0.9839 C.ar    
  14 C14            7.6021    -5.0391    -0.8817 C.ar    
  15 N15            3.8749    -2.1194    -0.0924 N.2     
  16 C16            5.1597    -2.4263    -0.2756 C.2     
  17 N17            5.8293    -1.3273    -0.5389 N.2     
  18 N18            4.9040    -0.2711    -0.5234 N.pl3   
  19 C19            5.1858     1.1463    -0.7638 C.3     
  20 F20           11.1641    -4.4123    -0.5906 F       
  21 C21            5.1886     1.4134    -2.2469 C.2     
  22 N22            5.4272     2.6575    -2.7072 N.am    
  23 O23            4.9762     0.5089    -3.0264 O.2     
  24 C24            5.4299     2.9172    -4.1490 C.3     
  25 C25            3.9983     3.1745    -4.6235 C.3     
  26 C26            6.2936     4.1451    -4.4444 C.3     
  27 C27            1.9595    -1.2865     2.0659 C.3     
  28 C28            9.5256    -6.4559    -1.6235 C.3     
  29 F29            8.4724    -7.2788    -2.0369 F       
  30 F30           10.3042    -6.1032    -2.7310 F       
  31 F31           10.3173    -7.1421    -0.6964 F       
  32 H32           -0.2663     0.2355     1.9067 H       
  33 H33            2.6397     1.0222    -1.9438 H       
  34 H34            0.4945     2.1968    -1.6709 H       
  35 H35            5.1249    -4.4767    -0.0775 H       
  36 H36            7.5558    -2.0224     0.6501 H       
  37 H37            9.9902    -2.3398     0.4746 H       
  38 H38            6.9327    -5.7958    -1.2634 H       
  39 H39            4.4182     1.7554    -0.2864 H       
  40 H40            6.1610     1.3987    -0.3473 H       
  41 H41            5.5971     3.3810    -2.0837 H       
  42 H42            5.8366     2.0523    -4.6731 H       
  43 H43            3.3831     2.2997    -4.4131 H       
  44 H44            3.5917     4.0393    -4.0994 H       
  45 H45            4.0004     3.3677    -5.6963 H       
  46 H46            7.3135     3.9618    -4.1063 H       
  47 H47            6.2956     4.3383    -5.5171 H       
  48 H48            5.8870     5.0099    -3.9202 H       
  49 H49            1.5744    -2.2743     1.8129 H       
  50 H50            3.0454    -1.3302     2.1490 H       
  51 H51            1.5350    -0.9636     3.0165 H       
@<TRIPOS>BOND
   1    1    2 ar
   2    1    6 ar
   3    2    3 ar
   4    2   32 1
   5    3    4 ar
   6    3   27 1
   7    4    5 ar
   8    4    7 1
   9    5    6 ar
  10    5   33 1
  11    6   34 1
  12    7   15 2
  13    7   18 1
  14    8    9 1
  15    8   16 1
  16    8   35 1
  17    9   10 ar
  18    9   14 ar
  19   10   11 ar
  20   10   36 1
  21   11   12 ar
  22   11   37 1
  23   12   13 ar
  24   12   20 1
  25   13   14 ar
  26   13   28 1
  27   14   38 1
  28   15   16 1
  29   16   17 2
  30   17   18 1
  31   18   19 1
  32   19   21 1
  33   19   39 1
  34   19   40 1
  35   21   22 am
  36   21   23 2
  37   22   24 1
  38   22   41 1
  39   24   25 1
  40   24   26 1
  41   24   42 1
  42   25   43 1
  43   25   44 1
  44   25   45 1
  45   26   46 1
  46   26   47 1
  47   26   48 1
  48   27   49 1
  49   27   50 1
  50   27   51 1
  51   28   29 1
  52   28   30 1
  53   28   31 1

#	End of record

