#	Name: ASD01880015
#	Creating user name:	WinNT
#	Creation time:	15. 06. 2019 19:39

#	Modifying user name:	WinNT
#	Modification time:	15. 06. 2019 19:39

#	Program:	/corina/corina34_cracker 3.40 0067  02.08.2006

@<TRIPOS>MOLECULE
ASD01880015
  48   50    0    0    0
SMALL
NO_CHARGES


@<TRIPOS>ATOM
   1 N1            -0.5393     2.1068    -1.1283 N.ar    
   2 C2            -0.8210     0.8739    -1.4993 C.ar    
   3 N3             0.0832    -0.0843    -1.4657 N.ar    
   4 C4             1.3168     0.1617    -1.0546 C.ar    
   5 C5             1.6512     1.4465    -0.6568 C.ar    
   6 C6             0.6731     2.4273    -0.7057 C.ar    
   7 O7             4.3413     3.8021    -3.0718 O.2     
   8 S8             4.0440     3.7848    -1.6824 S.o2    
   9 N9             3.8672     2.1780    -1.3225 N.am    
  10 C10            3.0444     1.7691    -0.1815 C.3     
  11 C11            5.4868     4.3090    -0.7160 C.3     
  12 C12            5.4597     0.3799    -1.5441 C.ar    
  13 C13            4.5026     1.2127    -2.1069 C.ar    
  14 C14            6.0877    -0.5772    -2.3258 C.ar    
  15 C15            5.7585    -0.7006    -3.6682 C.ar    
  16 C16            4.8052     0.1295    -4.2271 C.ar    
  17 C17            4.1770     1.0845    -3.4518 C.ar    
  18 C18            7.5464    -2.4329    -2.6092 C.3     
  19 C19            8.0951    -3.5893    -1.7481 C.3     
  20 O20            2.8604     4.3889    -1.1789 O.2     
  21 O21            7.0256    -1.3939    -1.7779 O.3     
  22 C22            8.7800    -1.9286    -3.3984 C.3     
  23 C23            9.5375    -3.2400    -3.7232 C.3     
  24 C24            9.3611    -4.1025    -2.4564 C.3     
  25 C25            5.6315     5.8299    -0.7997 C.3     
  26 F26            4.4805     6.4368    -0.2858 F       
  27 F27            6.7443     6.2342    -0.0545 F       
  28 F28            5.8020     6.2093    -2.1355 F       
  29 H29           -1.8196     0.6427    -1.8396 H       
  30 H30            2.0529    -0.6282    -1.0292 H       
  31 H31            0.8976     3.4396    -0.4035 H       
  32 H32            3.0017     2.5806     0.5450 H       
  33 H33            3.4827     0.8867     0.2848 H       
  34 H34            5.3540     4.0134     0.3247 H       
  35 H35            6.3836     3.8362    -1.1165 H       
  36 H36            5.7178     0.4804    -0.5002 H       
  37 H37            6.2479    -1.4464    -4.2771 H       
  38 H38            4.5514     0.0317    -5.2723 H       
  39 H39            3.4322     1.7316    -3.8909 H       
  40 H40            6.7791    -2.7969    -3.2924 H       
  41 H41            8.3461    -3.2262    -0.7515 H       
  42 H42            7.3559    -4.3875    -1.6800 H       
  43 H43            8.4727    -1.4232    -4.3140 H       
  44 H44            9.3921    -1.2719    -2.7802 H       
  45 H45            9.0917    -3.7343    -4.5864 H       
  46 H46           10.5933    -3.0365    -3.9021 H       
  47 H47           10.2264    -3.9884    -1.8035 H       
  48 H48            9.2362    -5.1497    -2.7320 H       
@<TRIPOS>BOND
   1    1    2 ar
   2    1    6 ar
   3    2    3 ar
   4    2   29 1
   5    3    4 ar
   6    4    5 ar
   7    4   30 1
   8    5    6 ar
   9    5   10 1
  10    6   31 1
  11    7    8 2
  12    8    9 am
  13    8   11 1
  14    8   20 2
  15    9   10 1
  16    9   13 1
  17   10   32 1
  18   10   33 1
  19   11   25 1
  20   11   34 1
  21   11   35 1
  22   12   13 ar
  23   12   14 ar
  24   12   36 1
  25   13   17 ar
  26   14   15 ar
  27   14   21 1
  28   15   16 ar
  29   15   37 1
  30   16   17 ar
  31   16   38 1
  32   17   39 1
  33   18   19 1
  34   18   22 1
  35   18   21 1
  36   18   40 1
  37   19   24 1
  38   19   41 1
  39   19   42 1
  40   22   23 1
  41   22   43 1
  42   22   44 1
  43   23   24 1
  44   23   45 1
  45   23   46 1
  46   24   47 1
  47   24   48 1
  48   25   26 1
  49   25   27 1
  50   25   28 1

#	End of record

