#	Name: ASD00990062
#	Creating user name:	WinNT
#	Creation time:	15. 06. 2019 18:54

#	Modifying user name:	WinNT
#	Modification time:	15. 06. 2019 18:54

#	Program:	/corina/corina34_cracker 3.40 0067  02.08.2006

@<TRIPOS>MOLECULE
ASD00990062
  45   46    0    0    0
SMALL
NO_CHARGES


@<TRIPOS>ATOM
   1 C1            -0.0170     1.4006     0.0097 C.ar    
   2 C2             0.0021    -0.0041     0.0020 C.ar    
   3 C3            -1.1912    -0.7133     0.0100 C.ar    
   4 C4            -2.3914    -0.0362     0.0255 C.ar    
   5 C5            -2.4161     1.3523     0.0332 C.ar    
   6 C6            -1.2425     2.0721     0.0301 C.ar    
   7 N7             1.2764     1.8141    -0.0004 N.2     
   8 C8             2.0661     0.7802    -0.0135 C.2     
   9 N9             1.3346    -0.3667    -0.0127 N.pl3   
  10 C10            3.5716     0.8439    -0.0283 C.3     
  11 N11            4.0734     0.8571     1.3480 N.am    
  12 C12            4.3779    -0.4039     2.0288 C.3     
  13 Br13          -4.0742     2.2612     0.0544 Br      
  14 C14            1.8626    -1.7332    -0.0246 C.3     
  15 O15            2.0467    -2.1845     1.3187 O.3     
  16 C16            2.5610    -3.5139     1.4199 C.3     
  17 O17            4.7161     2.0414     3.2528 O.3     
  18 C18            4.8872     3.3399     3.8797 C.3     
  19 C19            3.5409     4.0653     3.9260 C.3     
  20 C20            5.4152     3.1532     5.3035 C.3     
  21 C21            5.8859     4.1694     3.0701 C.3     
  22 C22            4.2549     2.0293     1.9880 C.2     
  23 O23            4.0024     3.0752     1.4233 O.2     
  24 H24           -1.1790    -1.7933     0.0037 H       
  25 H25           -3.3191    -0.5891     0.0313 H       
  26 H26           -1.2690     3.1517     0.0362 H       
  27 H27            3.9670    -0.0271    -0.5508 H       
  28 H28            3.8919     1.7513    -0.5405 H       
  29 H29            5.4179    -0.6738     1.8456 H       
  30 H30            4.2163    -0.2865     3.1004 H       
  31 H31            3.7259    -1.1896     1.6470 H       
  32 H32            1.1586    -2.3902    -0.5354 H       
  33 H33            2.8189    -1.7487    -0.5474 H       
  34 H34            3.5319    -3.5663     0.9271 H       
  35 H35            2.6720    -3.7815     2.4707 H       
  36 H36            1.8716    -4.2078     0.9391 H       
  37 H37            2.8294     3.4743     4.5028 H       
  38 H38            3.6693     5.0400     4.3966 H       
  39 H39            3.1647     4.1982     2.9116 H       
  40 H40            6.3743     2.6364     5.2705 H       
  41 H41            5.5436     4.1280     5.7741 H       
  42 H42            4.7037     2.5623     5.8803 H       
  43 H43            5.5097     4.3024     2.0557 H       
  44 H44            6.0143     5.1442     3.5407 H       
  45 H45            6.8450     3.6526     3.0371 H       
@<TRIPOS>BOND
   1    1    2 ar
   2    1    7 1
   3    1    6 ar
   4    2    3 ar
   5    2    9 1
   6    3    4 ar
   7    3   24 1
   8    4    5 ar
   9    4   25 1
  10    5    6 ar
  11    5   13 1
  12    6   26 1
  13    7    8 2
  14    8    9 1
  15    8   10 1
  16    9   14 1
  17   10   11 1
  18   10   27 1
  19   10   28 1
  20   11   12 1
  21   11   22 am
  22   12   29 1
  23   12   30 1
  24   12   31 1
  25   14   15 1
  26   14   32 1
  27   14   33 1
  28   15   16 1
  29   16   34 1
  30   16   35 1
  31   16   36 1
  32   17   18 1
  33   17   22 1
  34   18   19 1
  35   18   20 1
  36   18   21 1
  37   19   37 1
  38   19   38 1
  39   19   39 1
  40   20   40 1
  41   20   41 1
  42   20   42 1
  43   21   43 1
  44   21   44 1
  45   21   45 1
  46   22   23 2

#	End of record

