#	Name: ASD06620001
#	Creating user name:	WinNT
#	Creation time:	15. 06. 2019 21:07

#	Modifying user name:	WinNT
#	Modification time:	15. 06. 2019 21:07

#	Program:	/corina/corina34_cracker 3.40 0067  02.08.2006

@<TRIPOS>MOLECULE
ASD06620001
  22   23    0    0    0
SMALL
NO_CHARGES


@<TRIPOS>ATOM
   1 C1            -0.0540     1.3028    -0.0492 C.ar    
   2 C2             0.0474    -0.0726    -0.0505 C.ar    
   3 C3             1.3119    -0.6588    -0.0050 C.ar    
   4 C4             2.4269     0.1783     0.0403 C.ar    
   5 C5             2.2396     1.5442     0.0383 C.ar    
   6 N6             1.0256     2.0608    -0.0056 N.ar    
   7 N7             1.4577    -2.0428    -0.0042 N.pl3   
   8 N8            -1.1688    -0.9146    -0.0992 N.pl3   
   9 O9            -2.2698    -0.3991    -0.0252 O.2     
  10 O10           -1.0686    -2.1232    -0.2131 O.2     
  11 C11            2.7928    -2.6388    -0.0957 C.3     
  12 C12            2.9795    -4.0451     0.4773 C.3     
  13 C13            2.9711    -3.8312    -1.0376 C.3     
  14 H14           -1.0290     1.7656    -0.0888 H       
  15 H15            3.4229    -0.2378     0.0767 H       
  16 H16            3.0970     2.2000     0.0735 H       
  17 H17            0.6752    -2.6128     0.0569 H       
  18 H18            3.6260    -1.9423    -0.0017 H       
  19 H19            3.9357    -4.2739     0.9480 H       
  20 H20            2.1090    -4.5268     0.9224 H       
  21 H21            2.0950    -4.1723    -1.5892 H       
  22 H22            3.9217    -3.9194    -1.5636 H       
@<TRIPOS>BOND
   1    1    2 ar
   2    1    6 ar
   3    1   14 1
   4    2    3 ar
   5    2    8 1
   6    3    4 ar
   7    3    7 1
   8    4    5 ar
   9    4   15 1
  10    5    6 ar
  11    5   16 1
  12    7   11 1
  13    7   17 1
  14    8    9 2
  15    8   10 2
  16   11   12 1
  17   11   13 1
  18   11   18 1
  19   12   13 1
  20   12   19 1
  21   12   20 1
  22   13   21 1
  23   13   22 1

#	End of record

