#	Name: ASD00250001
#	Creating user name:	WinNT
#	Creation time:	15. 06. 2019 18:33

#	Modifying user name:	WinNT
#	Modification time:	15. 06. 2019 18:33

#	Program:	/corina/corina34_cracker 3.40 0067  02.08.2006

@<TRIPOS>MOLECULE
ASD00250001
  18   17    0    0    0
SMALL
NO_CHARGES


@<TRIPOS>ATOM
   1 C1            -0.0143     1.2041     0.0087 C.2     
   2 O2             0.0021    -0.0041     0.0020 O.2     
   3 O3             1.1389     1.8910     0.0013 O.3     
   4 C4            -1.3295     1.9397     0.0189 C.3     
   5 C5            -1.4708     2.7136     1.3312 C.3     
   6 H6            -1.3628     2.6361    -0.8190 H       
   7 O7            -2.4010     1.0016    -0.0985 O.3     
   8 H8            -1.5267     2.0114     2.1629 H       
   9 H9            -0.6072     3.3654     1.4634 H       
  10 O10           -2.6616     3.5027     1.2930 O.3     
  11 P11           -3.1267     4.4476     2.5107 P.3     
  12 O12           -2.0337     5.3848     2.8532 O.2     
  13 O13           -4.4322     5.2824     2.0738 O.3     
  14 O14           -3.4754     3.5383     3.7928 O.3     
  15 H15            1.9569     1.3754    -0.0092 H       
  16 H16           -2.4331     0.3498     0.6151 H       
  17 H17           -4.7686     5.8744     2.7605 H       
  18 H18           -4.1850     2.8992     3.6404 H       
@<TRIPOS>BOND
   1    1    2 2
   2    1    3 1
   3    1    4 1
   4    3   15 1
   5    4    5 1
   6    4    6 1
   7    4    7 1
   8    5    8 1
   9    5    9 1
  10    5   10 1
  11    7   16 1
  12   10   11 1
  13   11   12 2
  14   11   13 1
  15   11   14 1
  16   13   17 1
  17   14   18 1

#	End of record

