#	Name: ASD08151082
#	Creating user name:	WinNT
#	Creation time:	15. 06. 2019 21:17

#	Modifying user name:	WinNT
#	Modification time:	15. 06. 2019 21:17

#	Program:	/corina/corina34_cracker 3.40 0067  02.08.2006

@<TRIPOS>MOLECULE
ASD08151082
  34   36    0    0    0
SMALL
NO_CHARGES


@<TRIPOS>ATOM
   1 C1            -0.0187     1.5258     0.0104 C.3     
   2 C2             0.0021    -0.0041     0.0020 C.3     
   3 N3             4.1881     2.6270     2.2694 N.ar    
   4 N4             5.3926     3.0738     2.2452 N.ar    
   5 C5             5.9841     3.5085     1.1415 C.ar    
   6 C6             5.3219     3.5019    -0.0548 C.ar    
   7 C7             4.0005     3.0182    -0.0635 C.ar    
   8 C8             3.2321     2.9678    -1.2384 C.ar    
   9 C9             1.9543     2.4881    -1.1940 C.ar    
  10 C10            1.3951     2.0474    -0.0003 C.ar    
  11 C11            2.1191     2.0816     1.1787 C.ar    
  12 C12            3.4457     2.5727     1.1631 C.ar    
  13 C13            1.5112     1.6084     2.4440 C.ar    
  14 C14            2.0269     0.4860     3.0913 C.ar    
  15 C15            1.4556     0.0499     4.2716 C.ar    
  16 C16            0.3729     0.7264     4.8107 C.ar    
  17 C17           -0.1415     1.8395     4.1715 C.ar    
  18 C18            0.4248     2.2871     2.9952 C.ar    
  19 F19            1.9530    -1.0374     4.9005 F       
  20 F20            3.7559     3.3924    -2.4091 F       
  21 N21           -0.7292     2.0124    -1.1797 N.3     
  22 H22           -0.5289     1.8773     0.9072 H       
  23 H23            0.5293    -0.3651     0.8851 H       
  24 H24           -1.0205    -0.3814     0.0098 H       
  25 H25            0.5123    -0.3556    -0.8948 H       
  26 H26            7.0000     3.8722     1.1876 H       
  27 H27            5.7953     3.8547    -0.9592 H       
  28 H28            1.3684     2.4522    -2.1005 H       
  29 H29            2.8705    -0.0413     2.6709 H       
  30 H30           -0.0710     0.3827     5.7334 H       
  31 H31           -0.9859     2.3622     4.5959 H       
  32 H32            0.0244     3.1594     2.4999 H       
  33 H33           -0.2753     1.6996    -2.0248 H       
  34 H34           -1.6976     1.7297    -1.1634 H       
@<TRIPOS>BOND
   1    1    2 1
   2    1   10 1
   3    1   21 1
   4    1   22 1
   5    2   23 1
   6    2   24 1
   7    2   25 1
   8    3    4 ar
   9    3   12 ar
  10    4    5 ar
  11    5    6 ar
  12    5   26 1
  13    6    7 ar
  14    6   27 1
  15    7    8 ar
  16    7   12 ar
  17    8    9 ar
  18    8   20 1
  19    9   10 ar
  20    9   28 1
  21   10   11 ar
  22   11   12 ar
  23   11   13 1
  24   13   14 ar
  25   13   18 ar
  26   14   15 ar
  27   14   29 1
  28   15   16 ar
  29   15   19 1
  30   16   17 ar
  31   16   30 1
  32   17   18 ar
  33   17   31 1
  34   18   32 1
  35   21   33 1
  36   21   34 1

#	End of record

