#	Name: ASD01915781
#	Creating user name:	WinNT
#	Creation time:	15. 06. 2019 20:06

#	Modifying user name:	WinNT
#	Modification time:	15. 06. 2019 20:06

#	Program:	/corina/corina34_cracker 3.40 0067  02.08.2006

@<TRIPOS>MOLECULE
ASD01915781
  48   51    0    0    0
SMALL
NO_CHARGES


@<TRIPOS>ATOM
   1 C1            -0.0052     1.5056     0.3491 C.2     
   2 N2             0.0757     0.1484     0.1310 N.pl3   
   3 C3            -1.1251    -0.6498    -0.1443 C.3     
   4 C4            -2.3248    -0.0161     0.5580 C.3     
   5 N5            -2.4051     1.4244     0.3422 N.am    
   6 C6            -1.2983     2.2059     0.3561 C.2     
   7 C7             1.2701     1.9557     0.5455 C.2     
   8 C8             2.0772     0.8145     0.4446 C.2     
   9 N9             1.2968    -0.2132     0.2037 N.2     
  10 C10            3.5768     0.7742     0.5879 C.3     
  11 O11            4.0663     2.0916     0.8463 O.3     
  12 C12            5.4090     2.2314     1.0025 C.ar    
  13 O13           -1.3703     3.4199     0.3739 O.2     
  14 C14            5.9526     3.4824     1.2557 C.ar    
  15 C15            6.2379     1.1224     0.9148 C.ar    
  16 C16            7.6025     1.2671     1.0740 C.ar    
  17 C17            8.1423     2.5158     1.3206 C.ar    
  18 C18            7.3178     3.6218     1.4141 C.ar    
  19 C19           -3.6489     2.0102     0.1160 C.ar    
  20 N20           -3.7156     3.2595    -0.3201 N.ar    
  21 C21           -4.8048     1.2773     0.3443 C.ar    
  22 C22           -6.0400     1.8758     0.1139 C.ar    
  23 C23           -6.0625     3.1964    -0.3400 C.ar    
  24 C24           -4.8712     3.8563    -0.5485 C.ar    
  25 N25           -7.2234     1.1756     0.3299 N.pl3   
  26 C26           -7.1806    -0.2520     0.6564 C.3     
  27 C27           -8.5116     1.8660     0.2309 C.3     
  28 H28           -1.3053    -0.6771    -1.2190 H       
  29 H29           -0.9805    -1.6645     0.2267 H       
  30 H30           -3.2374    -0.4798     0.1836 H       
  31 H31           -2.2481    -0.2081     1.6282 H       
  32 H32            1.5871     2.9703     0.7363 H       
  33 H33            3.8452     0.1180     1.4159 H       
  34 H34            4.0198     0.3962    -0.3335 H       
  35 H35            5.3090     4.3467     1.3286 H       
  36 H36            5.8166     0.1467     0.7225 H       
  37 H37            8.2481     0.4040     1.0061 H       
  38 H38            9.2094     2.6269     1.4447 H       
  39 H39            7.7419     4.5963     1.6065 H       
  40 H40           -4.7468     0.2575     0.6952 H       
  41 H41           -7.0026     3.6931    -0.5294 H       
  42 H42           -4.8826     4.8778    -0.8991 H       
  43 H43           -7.1235    -0.3758     1.7378 H       
  44 H44           -8.0819    -0.7374     0.2821 H       
  45 H45           -6.3045    -0.7048     0.1921 H       
  46 H46           -8.3418     2.9307     0.0701 H       
  47 H47           -9.0791     1.4582    -0.6056 H       
  48 H48           -9.0725     1.7230     1.1545 H       
@<TRIPOS>BOND
   1    1    2 1
   2    1    7 2
   3    1    6 1
   4    2    3 1
   5    2    9 1
   6    3    4 1
   7    3   28 1
   8    3   29 1
   9    4    5 1
  10    4   30 1
  11    4   31 1
  12    5    6 am
  13    5   19 1
  14    6   13 2
  15    7    8 1
  16    7   32 1
  17    8    9 2
  18    8   10 1
  19   10   11 1
  20   10   33 1
  21   10   34 1
  22   11   12 1
  23   12   14 ar
  24   12   15 ar
  25   14   18 ar
  26   14   35 1
  27   15   16 ar
  28   15   36 1
  29   16   17 ar
  30   16   37 1
  31   17   18 ar
  32   17   38 1
  33   18   39 1
  34   19   21 ar
  35   19   20 ar
  36   20   24 ar
  37   21   22 ar
  38   21   40 1
  39   22   23 ar
  40   22   25 1
  41   23   24 ar
  42   23   41 1
  43   24   42 1
  44   25   26 1
  45   25   27 1
  46   26   43 1
  47   26   44 1
  48   26   45 1
  49   27   46 1
  50   27   47 1
  51   27   48 1

#	End of record

