#	Name: ASD03320129
#	Creating user name:	WinNT
#	Creation time:	15. 06. 2019 20:36

#	Modifying user name:	WinNT
#	Modification time:	15. 06. 2019 20:36

#	Program:	/corina/corina34_cracker 3.40 0067  02.08.2006

@<TRIPOS>MOLECULE
ASD03320129
  52   55    0    0    0
SMALL
NO_CHARGES


@<TRIPOS>ATOM
   1 C1            -0.0181     1.4709     0.0148 C.2     
   2 C2             0.0015    -0.0045     0.0118 C.ar    
   3 C3             1.2192    -0.6978     0.0013 C.ar    
   4 C4             1.1850    -2.0893    -0.0013 C.ar    
   5 C5            -0.0614    -2.7401     0.0068 C.ar    
   6 N6            -1.1881    -2.0439     0.0161 N.ar    
   7 C7            -1.1932    -0.7273     0.0251 C.ar    
   8 O8             1.0268     2.0928     0.0082 O.2     
   9 N9            -1.1942     2.1292     0.0193 N.am    
  10 N10            2.6867    -4.0139     0.6884 N.pl3   
  11 N11            3.9923    -4.4243     0.3900 N.2     
  12 C12            4.5141    -3.5700    -0.4533 C.2     
  13 C13            3.5683    -2.5821    -0.7282 C.2     
  14 C14            2.4404    -2.8713    -0.0127 C.2     
  15 C15           -1.2149     3.5249     0.1327 C.ar    
  16 C16           -2.1832     4.2618    -0.5363 C.ar    
  17 C17           -2.2033     5.6379    -0.4236 C.ar    
  18 C18           -1.2565     6.2842     0.3576 C.ar    
  19 C19           -0.2886     5.5487     1.0258 C.ar    
  20 C20           -0.2707     4.1721     0.9187 C.ar    
  21 O21           -1.2769     7.6393     0.4681 O.3     
  22 C22           -0.2723     8.2385     1.2889 C.3     
  23 C23           -0.4548     9.7575     1.2912 C.3     
  24 F24           -0.3874     7.7530     2.5959 F       
  25 F25            0.9931     7.9216     0.7834 F       
  26 F26            0.5287    10.3442     2.0948 F       
  27 F27           -0.3398    10.2430    -0.0158 F       
  28 F28           -1.7202    10.0744     1.7967 F       
  29 N29           -0.1114    -4.1218     0.0044 N.3     
  30 C30           -1.5061    -4.6002     0.0139 C.3     
  31 C31           -1.6855    -5.5106    -1.2192 C.3     
  32 C32           -0.2337    -5.9517    -1.5422 C.3     
  33 C33            0.5677    -4.6745    -1.1869 C.3     
  34 O34           -2.4976    -6.6417    -0.8981 O.3     
  35 H35            2.1594    -0.1665    -0.0051 H       
  36 H36           -2.1349    -0.1988     0.0381 H       
  37 H37           -2.0262     1.6363    -0.0560 H       
  38 H38            2.0675    -4.4643     1.2839 H       
  39 H39            5.5104    -3.6212    -0.8669 H       
  40 H40            3.7035    -1.7384    -1.3889 H       
  41 H41           -2.9202     3.7589    -1.1448 H       
  42 H42           -2.9562     6.2113    -0.9441 H       
  43 H43            0.4485     6.0525     1.6336 H       
  44 H44            0.4800     3.5992     1.4428 H       
  45 H45           -1.6973    -5.1675     0.9247 H       
  46 H46           -2.1891    -3.7529    -0.0482 H       
  47 H47           -2.1129    -4.9519    -2.0518 H       
  48 H48            0.0687    -6.7897    -0.9142 H       
  49 H49           -0.1265    -6.1987    -2.5984 H       
  50 H50            0.5298    -3.9614    -2.0103 H       
  51 H51            1.6012    -4.9284    -0.9509 H       
  52 H52           -2.6412    -7.2459    -1.6393 H       
@<TRIPOS>BOND
   1    1    2 1
   2    1    8 2
   3    1    9 am
   4    2    3 ar
   5    2    7 ar
   6    3    4 ar
   7    3   35 1
   8    4    5 ar
   9    4   14 1
  10    5    6 ar
  11    5   29 1
  12    6    7 ar
  13    7   36 1
  14    9   15 1
  15    9   37 1
  16   10   11 1
  17   10   14 1
  18   10   38 1
  19   11   12 2
  20   12   13 1
  21   12   39 1
  22   13   14 2
  23   13   40 1
  24   15   16 ar
  25   15   20 ar
  26   16   17 ar
  27   16   41 1
  28   17   18 ar
  29   17   42 1
  30   18   19 ar
  31   18   21 1
  32   19   20 ar
  33   19   43 1
  34   20   44 1
  35   21   22 1
  36   22   23 1
  37   22   24 1
  38   22   25 1
  39   23   26 1
  40   23   27 1
  41   23   28 1
  42   29   30 1
  43   29   33 1
  44   30   31 1
  45   30   45 1
  46   30   46 1
  47   31   32 1
  48   31   34 1
  49   31   47 1
  50   32   33 1
  51   32   48 1
  52   32   49 1
  53   33   50 1
  54   33   51 1
  55   34   52 1

#	End of record

