#	Name: ASD08170410
#	Creating user name:	WinNT
#	Creation time:	15. 06. 2019 21:17

#	Modifying user name:	WinNT
#	Modification time:	15. 06. 2019 21:17

#	Program:	/corina/corina34_cracker 3.40 0067  02.08.2006

@<TRIPOS>MOLECULE
ASD08170410
  67   70    0    0    0
SMALL
NO_CHARGES


@<TRIPOS>ATOM
   1 N1            -0.0150     1.2583     0.0090 N.2     
   2 N2             0.0021    -0.0041     0.0020 N.2     
   3 C3             1.1605    -0.5914    -0.0122 C.2     
   4 S4             2.3840     0.6077    -0.0174 S.3     
   5 C5             1.1353     1.8535     0.0012 C.2     
   6 C6             1.3656     3.3428     0.0065 C.3     
   7 C7             1.4576     3.8394     1.4507 C.3     
   8 S8             1.7348     5.6321     1.4572 S.3     
   9 C9             1.8145     6.0263     3.2260 C.3     
  10 C10            2.0484     7.5279     3.4039 C.3     
  11 C11            2.1146     7.8554     4.8734 C.2     
  12 S12            0.7527     8.2991     5.9028 S.3     
  13 C13            1.8266     8.4395     7.2301 C.2     
  14 N14            3.0290     8.1629     6.8238 N.2     
  15 N15            3.1810     7.8562     5.6086 N.2     
  16 N16            1.4703     8.7916     8.5274 N.am    
  17 C17            2.4126     8.8680     9.4879 C.2     
  18 O18            3.5714     8.6296     9.2209 O.2     
  19 C19            2.0265     9.2495    10.8938 C.3     
  20 C20            3.2551     9.2620    11.7663 C.ar    
  21 C21            3.3306     8.4272    12.8656 C.ar    
  22 C22            4.4576     8.4386    13.6660 C.ar    
  23 C23            5.5092     9.2845    13.3669 C.ar    
  24 C24            5.4341    10.1186    12.2672 C.ar    
  25 C25            4.3089    10.1041    11.4643 C.ar    
  26 N26            1.3725    -1.9658    -0.0212 N.am    
  27 C27            0.3217    -2.8098    -0.0157 C.2     
  28 C28            0.5514    -4.2992    -0.0255 C.3     
  29 O29           -0.8087    -2.3706    -0.0030 O.2     
  30 C30           -0.7762    -5.0122    -0.0168 C.ar    
  31 C31            1.3303    -4.6868    -1.2840 C.3     
  32 O32            2.6340    -4.1036    -1.2359 O.3     
  33 C33           -1.0922    -5.8719     1.0186 C.ar    
  34 C34           -2.3100    -6.5261     1.0265 C.ar    
  35 C35           -3.2118    -6.3202    -0.0007 C.ar    
  36 C36           -2.8962    -5.4598    -1.0356 C.ar    
  37 C37           -1.6802    -4.8024    -1.0413 C.ar    
  38 C38            1.3909    10.6412    10.8881 C.3     
  39 O39            0.1639    10.6016    10.1566 O.3     
  40 H40            2.2955     3.5685    -0.5153 H       
  41 H41            0.5365     3.8404    -0.4967 H       
  42 H42            0.5277     3.6137     1.9726 H       
  43 H43            2.2866     3.3418     1.9539 H       
  44 H44            0.8756     5.7459     3.7035 H       
  45 H45            2.6346     5.4740     3.6848 H       
  46 H46            2.9873     7.8083     2.9265 H       
  47 H47            1.2284     8.0802     2.9451 H       
  48 H48            0.5435     8.9823     8.7410 H       
  49 H49            1.3114     8.5251    11.2835 H       
  50 H50            2.5090     7.7663    13.0993 H       
  51 H51            4.5163     7.7869    14.5253 H       
  52 H52            6.3894     9.2939    13.9927 H       
  53 H53            6.2556    10.7797    12.0337 H       
  54 H54            4.2502    10.7557    10.6050 H       
  55 H55            2.2766    -2.3171    -0.0314 H       
  56 H56            1.1229    -4.5844     0.8578 H       
  57 H57            1.4195    -5.7719    -1.3363 H       
  58 H58            0.8017    -4.3228    -2.1650 H       
  59 H59            3.1849    -4.3079    -2.0039 H       
  60 H60           -0.3876    -6.0328     1.8211 H       
  61 H61           -2.5566    -7.1982     1.8351 H       
  62 H62           -4.1630    -6.8318     0.0052 H       
  63 H63           -3.6007    -5.2992    -1.8383 H       
  64 H64           -1.4335    -4.1302    -1.8498 H       
  65 H65            1.1928    10.9543    11.9132 H       
  66 H66            2.0720    11.3499    10.4170 H       
  67 H67           -0.2949    11.4516    10.1117 H       
@<TRIPOS>BOND
   1    1    2 1
   2    1    5 2
   3    2    3 2
   4    3    4 1
   5    3   26 1
   6    4    5 1
   7    5    6 1
   8    6    7 1
   9    6   40 1
  10    6   41 1
  11    7    8 1
  12    7   42 1
  13    7   43 1
  14    8    9 1
  15    9   10 1
  16    9   44 1
  17    9   45 1
  18   10   11 1
  19   10   46 1
  20   10   47 1
  21   11   12 1
  22   11   15 2
  23   12   13 1
  24   13   14 2
  25   13   16 1
  26   14   15 1
  27   16   17 am
  28   16   48 1
  29   17   18 2
  30   17   19 1
  31   19   20 1
  32   19   38 1
  33   19   49 1
  34   20   21 ar
  35   20   25 ar
  36   21   22 ar
  37   21   50 1
  38   22   23 ar
  39   22   51 1
  40   23   24 ar
  41   23   52 1
  42   24   25 ar
  43   24   53 1
  44   25   54 1
  45   26   27 am
  46   26   55 1
  47   27   28 1
  48   27   29 2
  49   28   30 1
  50   28   31 1
  51   28   56 1
  52   30   33 ar
  53   30   37 ar
  54   31   32 1
  55   31   57 1
  56   31   58 1
  57   32   59 1
  58   33   34 ar
  59   33   60 1
  60   34   35 ar
  61   34   61 1
  62   35   36 ar
  63   35   62 1
  64   36   37 ar
  65   36   63 1
  66   37   64 1
  67   38   39 1
  68   38   65 1
  69   38   66 1
  70   39   67 1

#	End of record

