#	Name: ASD03080141
#	Creating user name:	WinNT
#	Creation time:	15. 06. 2019 20:26

#	Modifying user name:	WinNT
#	Modification time:	15. 06. 2019 20:26

#	Program:	/corina/corina34_cracker 3.40 0067  02.08.2006

@<TRIPOS>MOLECULE
ASD03080141
  20   21    0    0    0
SMALL
NO_CHARGES


@<TRIPOS>ATOM
   1 C1            -0.0160     1.3256     0.0093 C.ar    
   2 N2             0.0021    -0.0041     0.0020 N.ar    
   3 C3             1.1890     2.0475     0.0017 C.ar    
   4 C4             2.3919     1.3600    -0.0135 C.ar    
   5 C5             2.3562    -0.0264    -0.0206 C.ar    
   6 C6             1.1345    -0.6765    -0.0124 C.ar    
   7 N7            -1.0159     2.2454     0.0293 N.2     
   8 O8             0.8547     3.3572     0.0119 O.3     
   9 C9             1.0992    -2.1830    -0.0196 C.3     
  10 C10           -0.4873     3.4449     0.0276 C.2     
  11 S11           -1.4009     4.9514     0.0493 S.3     
  12 C12           -3.0878     4.2957     0.0720 C.3     
  13 H13            3.3329     1.8899    -0.0200 H       
  14 H14            3.2747    -0.5943    -0.0327 H       
  15 H15            1.1003    -2.5514     1.0062 H       
  16 H16            0.1962    -2.5229    -0.5268 H       
  17 H17            1.9756    -2.5645    -0.5436 H       
  18 H18           -3.2540     3.6896    -0.8186 H       
  19 H19           -3.2266     3.6806     0.9611 H       
  20 H20           -3.7986     5.1219     0.0871 H       
@<TRIPOS>BOND
   1    1    2 ar
   2    1    3 ar
   3    1    7 1
   4    2    6 ar
   5    3    4 ar
   6    3    8 1
   7    4    5 ar
   8    4   13 1
   9    5    6 ar
  10    5   14 1
  11    6    9 1
  12    7   10 2
  13    8   10 1
  14    9   15 1
  15    9   16 1
  16    9   17 1
  17   10   11 1
  18   11   12 1
  19   12   18 1
  20   12   19 1
  21   12   20 1

#	End of record

