#	Name: ASD00070068
#	Creating user name:	WinNT
#	Creation time:	15. 06. 2019 18:30

#	Modifying user name:	WinNT
#	Modification time:	15. 06. 2019 18:30

#	Program:	/corina/corina34_cracker 3.40 0067  02.08.2006

@<TRIPOS>MOLECULE
ASD00070068
  69   73    0    0    0
SMALL
NO_CHARGES


@<TRIPOS>ATOM
   1 C1            -0.0167     1.3782     0.0096 C.ar    
   2 C2             0.0021    -0.0041     0.0020 C.ar    
   3 C3             1.2078    -0.6792    -0.0131 C.ar    
   4 C4             2.3973     0.0293    -0.0206 C.ar    
   5 C5             2.3773     1.4137    -0.0130 C.ar    
   6 C6             1.1704     2.0867     0.0021 C.ar    
   7 S7            -1.5548     2.2377     0.0216 S.o2    
   8 O8            -1.2980     3.5273    -0.5171 O.2     
   9 O9            -2.5173     1.3454    -0.5232 O.2     
  10 N10           -1.9752     2.4682     1.6066 N.am    
  11 F11            3.5766    -0.6297    -0.0350 F       
  12 C12           -1.1525     3.3233     2.4658 C.3     
  13 C13           -2.0513     4.0685     3.4545 C.3     
  14 C14           -1.1920     4.9615     4.3518 C.3     
  15 C15           -0.1917     4.0979     5.1229 C.3     
  16 C16            0.7071     3.3527     4.1342 C.3     
  17 C17           -0.1521     2.4597     3.2369 C.3     
  18 C18            0.6675     4.9909     6.0202 C.3     
  19 C19            1.5818     4.1184     6.8826 C.3     
  20 N20            2.4068     4.9758     7.7441 N.3     
  21 C21            3.1224     4.1791     8.7490 C.3     
  22 C22            3.8537     5.1130     9.7160 C.3     
  23 C23            4.8391     5.9830     8.9308 C.3     
  24 C24            4.0752     6.7657     7.8592 C.3     
  25 C25            3.3375     5.7839     6.9460 C.3     
  26 O26            8.8769     7.5891    10.8774 O.3     
  27 C27            9.2457     6.8592     9.6950 C.3     
  28 C28            7.9615     6.0592     9.3716 C.3     
  29 C29            6.8883     6.9182    10.0120 C.ar    
  30 C30            7.5311     7.7939    10.8780 C.ar    
  31 C31            5.5191     6.9463     9.8693 C.ar    
  32 C32            4.7675     7.8598    10.5876 C.ar    
  33 C33            5.3965     8.7415    11.4467 C.ar    
  34 C34            6.7681     8.7130    11.5936 C.ar    
  35 H35           -0.9259    -0.5565     0.0083 H       
  36 H36            1.2222    -1.7591    -0.0187 H       
  37 H37            3.3046     1.9675    -0.0189 H       
  38 H38            1.1545     3.1666     0.0080 H       
  39 H39           -2.7663     2.0371     1.9662 H       
  40 H40           -0.6126     4.0437     1.8513 H       
  41 H41           -2.7640     4.6837     2.9052 H       
  42 H42           -2.5912     3.3480     4.0690 H       
  43 H43           -0.6522     5.6819     3.7373 H       
  44 H44           -1.8324     5.4924     5.0562 H       
  45 H45           -0.7316     3.3775     5.7374 H       
  46 H46            1.2470     4.0732     3.5197 H       
  47 H47            1.4198     2.7375     4.6835 H       
  48 H48           -0.6920     1.7393     3.8513 H       
  49 H49            0.4882     1.9288     2.5325 H       
  50 H50            1.2742     5.6518     5.4011 H       
  51 H51            0.0217     5.5878     6.6641 H       
  52 H52            0.9751     3.4575     7.5017 H       
  53 H53            2.2276     3.5215     6.2387 H       
  54 H54            2.4097     3.5683     9.3030 H       
  55 H55            3.8455     3.5324     8.2520 H       
  56 H56            3.1298     5.7506    10.2235 H       
  57 H57            4.3974     4.5212    10.4523 H       
  58 H58            5.5863     5.3480     8.4548 H       
  59 H59            3.3548     7.4293     8.3375 H       
  60 H60            4.7772     7.3546     7.2689 H       
  61 H61            4.0596     5.1297     6.4574 H       
  62 H62            2.7810     6.3386     6.1905 H       
  63 H63            9.4910     7.5412     8.8810 H       
  64 H64           10.0782     6.1863     9.9006 H       
  65 H65            7.8098     5.9846     8.2948 H       
  66 H66            7.9931     5.0702     9.8287 H       
  67 H67            3.6935     7.8840    10.4771 H       
  68 H68            4.8112     9.4566    12.0056 H       
  69 H69            7.2516     9.4051    12.2671 H       
@<TRIPOS>BOND
   1    1    2 ar
   2    1    6 ar
   3    1    7 1
   4    2    3 ar
   5    2   35 1
   6    3    4 ar
   7    3   36 1
   8    4    5 ar
   9    4   11 1
  10    5    6 ar
  11    5   37 1
  12    6   38 1
  13    7    8 2
  14    7    9 2
  15    7   10 am
  16   10   12 1
  17   10   39 1
  18   12   13 1
  19   12   17 1
  20   12   40 1
  21   13   14 1
  22   13   41 1
  23   13   42 1
  24   14   15 1
  25   14   43 1
  26   14   44 1
  27   15   16 1
  28   15   18 1
  29   15   45 1
  30   16   17 1
  31   16   46 1
  32   16   47 1
  33   17   48 1
  34   17   49 1
  35   18   19 1
  36   18   50 1
  37   18   51 1
  38   19   20 1
  39   19   52 1
  40   19   53 1
  41   20   21 1
  42   20   25 1
  43   21   22 1
  44   21   54 1
  45   21   55 1
  46   22   23 1
  47   22   56 1
  48   22   57 1
  49   23   24 1
  50   23   31 1
  51   23   58 1
  52   24   25 1
  53   24   59 1
  54   24   60 1
  55   25   61 1
  56   25   62 1
  57   26   27 1
  58   26   30 1
  59   27   28 1
  60   27   63 1
  61   27   64 1
  62   28   29 1
  63   28   65 1
  64   28   66 1
  65   29   30 ar
  66   29   31 ar
  67   30   34 ar
  68   31   32 ar
  69   32   33 ar
  70   32   67 1
  71   33   34 ar
  72   33   68 1
  73   34   69 1

#	End of record

