#	Name: ASD01915167
#	Creating user name:	WinNT
#	Creation time:	15. 06. 2019 20:04

#	Modifying user name:	WinNT
#	Modification time:	15. 06. 2019 20:04

#	Program:	/corina/corina34_cracker 3.40 0067  02.08.2006

@<TRIPOS>MOLECULE
ASD01915167
  41   44    0    0    0
SMALL
NO_CHARGES


@<TRIPOS>ATOM
   1 C1             0.1596     5.2284     1.9146 C.ar    
   2 C2             0.7173     4.0067     1.5839 C.ar    
   3 C3            -0.0848     2.9742     1.1316 C.ar    
   4 C4            -1.4469     3.1584     1.0084 C.ar    
   5 C5            -2.0141     4.3871     1.3406 C.ar    
   6 C6            -1.2024     5.4218     1.8001 C.ar    
   7 C7            -3.4784     4.5911     1.2100 C.2     
   8 N8            -4.3811     3.6789     0.7841 N.2     
   9 C9            -5.5415     4.2846     0.8293 C.2     
  10 O10           -5.3204     5.5260     1.2730 O.3     
  11 N11           -4.1378     5.6848     1.4908 N.2     
  12 C12           -6.8751     3.6934     0.4513 C.3     
  13 C13           -7.8946     3.6759     1.6047 C.3     
  14 N14           -8.8868     4.1071     0.6009 N.am    
  15 C15           -7.8227     4.6917    -0.2381 C.3     
  16 C16          -10.2265     4.0071     0.4935 C.2     
  17 C17          -10.9205     4.5999    -0.6677 C.ar    
  18 O18          -10.8637     3.4290     1.3524 O.2     
  19 C19          -10.2168     5.3936    -1.5755 C.ar    
  20 C20          -10.8707     5.9437    -2.6579 C.ar    
  21 C21          -12.2221     5.7119    -2.8468 C.ar    
  22 C22          -12.9278     4.9278    -1.9533 C.ar    
  23 C23          -12.2847     4.3642    -0.8666 C.ar    
  24 C24            1.0397     6.3484     2.4066 C.3     
  25 F25          -12.9744     3.5975     0.0063 F       
  26 H26            1.7828     3.8583     1.6789 H       
  27 H27            0.3559     2.0225     0.8741 H       
  28 H28           -2.0721     2.3519     0.6548 H       
  29 H29           -1.6369     6.3760     2.0592 H       
  30 H30           -6.7851     2.7400    -0.0693 H       
  31 H31           -8.0829     2.6816     2.0096 H       
  32 H32           -7.6980     4.4205     2.3762 H       
  33 H33           -7.6050     5.7347    -0.0080 H       
  34 H34           -7.9536     4.5085    -1.3046 H       
  35 H35           -9.1624     5.5767    -1.4302 H       
  36 H36          -10.3265     6.5577    -3.3602 H       
  37 H37          -12.7280     6.1461    -3.6965 H       
  38 H38          -13.9823     4.7517    -2.1065 H       
  39 H39            1.3832     6.9401     1.5581 H       
  40 H40            0.4728     6.9838     3.0870 H       
  41 H41            1.8997     5.9313     2.9306 H       
@<TRIPOS>BOND
   1    1    2 ar
   2    1   24 1
   3    1    6 ar
   4    2    3 ar
   5    2   26 1
   6    3    4 ar
   7    3   27 1
   8    4    5 ar
   9    4   28 1
  10    5    6 ar
  11    5    7 1
  12    6   29 1
  13    7    8 1
  14    7   11 2
  15    8    9 2
  16    9   10 1
  17    9   12 1
  18   10   11 1
  19   12   13 1
  20   12   15 1
  21   12   30 1
  22   13   14 1
  23   13   31 1
  24   13   32 1
  25   14   15 1
  26   14   16 am
  27   15   33 1
  28   15   34 1
  29   16   17 1
  30   16   18 2
  31   17   19 ar
  32   17   23 ar
  33   19   20 ar
  34   19   35 1
  35   20   21 ar
  36   20   36 1
  37   21   22 ar
  38   21   37 1
  39   22   23 ar
  40   22   38 1
  41   23   25 1
  42   24   39 1
  43   24   40 1
  44   24   41 1

#	End of record

