#	Name: ASD01870655
#	Creating user name:	WinNT
#	Creation time:	15. 06. 2019 19:39

#	Modifying user name:	WinNT
#	Modification time:	15. 06. 2019 19:39

#	Program:	/corina/corina34_cracker 3.40 0067  02.08.2006

@<TRIPOS>MOLECULE
ASD01870655
  43   46    0    0    0
SMALL
NO_CHARGES


@<TRIPOS>ATOM
   1 C1            -0.3537     1.4402    -0.5703 C.ar    
   2 N2            -0.2830     0.0441    -0.6080 N.am    
   3 C3            -1.1512    -0.6943     0.1114 C.2     
   4 C4            -1.1441    -2.1656    -0.0075 C.ar    
   5 C5            -0.2306    -4.1677    -0.9695 C.ar    
   6 C6            -0.2343    -2.7949    -0.8611 C.ar    
   7 C7            -2.0435    -2.9328     0.7376 C.ar    
   8 C8            -2.0340    -4.3051     0.6241 C.ar    
   9 C9            -1.1309    -4.9276    -0.2307 C.ar    
  10 N10           -1.1246    -6.3210    -0.3437 N.am    
  11 C11           -0.5933    -8.5529     0.0455 C.3     
  12 C12           -0.3603    -7.1067     0.4249 C.2     
  13 C13           -1.8866    -6.9799    -1.2255 C.2     
  14 C14           -1.6388    -8.4660    -1.0851 C.3     
  15 C15           -1.9905    -9.1452     0.2400 C.3     
  16 C16           -2.1164   -10.6700     0.2392 C.3     
  17 C17           -2.9452    -8.4061     1.1797 C.3     
  18 O18            0.3986    -6.7208     1.2878 O.2     
  19 O19           -2.6537    -6.4672    -2.0117 O.2     
  20 C20           -0.7004     2.0874     0.6080 C.ar    
  21 C21           -0.7694     3.4687     0.6417 C.ar    
  22 C22           -0.4928     4.2043    -0.4987 C.ar    
  23 C23           -0.1475     3.5607    -1.6727 C.ar    
  24 C24           -0.0715     2.1824    -1.7103 C.ar    
  25 O25           -1.9402    -0.1485     0.8584 O.2     
  26 H26            0.2750    -9.2094    -0.0114 H       
  27 H27           -1.5597    -9.0563    -1.9980 H       
  28 F28           -1.1070     4.1003     1.7873 F       
  29 H29            0.3908    -0.3929    -1.1520 H       
  30 H30            0.4723    -4.6548    -1.6291 H       
  31 H31            0.4650    -2.2053    -1.4354 H       
  32 H32           -2.7449    -2.4500     1.4020 H       
  33 H33           -2.7286    -4.8987     1.2000 H       
  34 H34           -1.5122   -11.0849     1.0460 H       
  35 H35           -3.1599   -10.9485     0.3866 H       
  36 H36           -1.7668   -11.0630    -0.7155 H       
  37 H37           -3.1098    -7.3945     0.8084 H       
  38 H38           -3.8964    -8.9367     1.2223 H       
  39 H39           -2.5097    -8.3603     2.1779 H       
  40 H40           -0.9163     1.5133     1.4969 H       
  41 H41           -0.5474     5.2826    -0.4710 H       
  42 H42            0.0673     4.1370    -2.5605 H       
  43 H43            0.1984     1.6811    -2.6281 H       
@<TRIPOS>BOND
   1    1    2 1
   2    1   20 ar
   3    1   24 ar
   4    2    3 am
   5    2   29 1
   6    3    4 1
   7    3   25 2
   8    4    7 ar
   9    4    6 ar
  10    5    6 ar
  11    5    9 ar
  12    5   30 1
  13    6   31 1
  14    7    8 ar
  15    7   32 1
  16    8    9 ar
  17    8   33 1
  18    9   10 1
  19   10   13 am
  20   10   12 am
  21   11   12 1
  22   11   14 1
  23   11   15 1
  24   11   26 1
  25   12   18 2
  26   13   14 1
  27   13   19 2
  28   14   27 1
  29   14   15 1
  30   15   16 1
  31   15   17 1
  32   16   34 1
  33   16   35 1
  34   16   36 1
  35   17   37 1
  36   17   38 1
  37   17   39 1
  38   20   21 ar
  39   20   40 1
  40   21   22 ar
  41   21   28 1
  42   22   23 ar
  43   22   41 1
  44   23   24 ar
  45   23   42 1
  46   24   43 1

#	End of record

