#	Name: ASD04590332
#	Creating user name:	WinNT
#	Creation time:	15. 06. 2019 20:50

#	Modifying user name:	WinNT
#	Modification time:	15. 06. 2019 20:50

#	Program:	/corina/corina34_cracker 3.40 0067  02.08.2006

@<TRIPOS>MOLECULE
ASD04590332
  42   45    0    0    0
SMALL
NO_CHARGES


@<TRIPOS>ATOM
   1 C1            -0.0184     1.5028     0.0103 C.ar    
   2 C2             0.0021    -0.0041     0.0020 C.3     
   3 C3            -0.2277    -0.5552     1.4232 C.3     
   4 N4            -1.1304    -0.5300    -0.7725 N.2     
   5 C5            -1.8944    -1.2458    -0.0133 C.2     
   6 N6            -1.4703    -1.3334     1.2879 N.pl3   
   7 C7            -3.1195    -1.9115    -0.5054 C.2     
   8 C8            -3.6260    -1.8716    -1.8290 C.2     
   9 C9            -4.7591    -2.6232    -1.8052 C.2     
  10 N10           -4.9073    -3.0785    -0.5346 N.pl3   
  11 N11           -3.9428    -2.6581     0.2021 N.2     
  12 N12           -3.0750    -1.1982    -2.9307 N.am    
  13 C13           -3.6836    -1.2602    -4.1316 C.2     
  14 C14           -3.1046    -0.5525    -5.2894 C.ar    
  15 O15           -4.7101    -1.8993    -4.2609 O.2     
  16 C16           -1.6395    -0.5259    -7.1981 C.ar    
  17 C17           -2.0162     0.7776    -7.4657 C.ar    
  18 C18           -2.9283     1.4236    -6.6510 C.ar    
  19 C19           -3.4757     0.7682    -5.5642 C.ar    
  20 F20           -4.3667     1.4008    -4.7699 F       
  21 C21           -2.1770    -1.1964    -6.1154 C.ar    
  22 F22           -1.8073    -2.4696    -5.8554 F       
  23 C23            1.1693     2.2102     0.0028 C.ar    
  24 C24           -1.2248     2.1776     0.0197 C.ar    
  25 C25           -1.2435     3.5598     0.0273 C.ar    
  26 C26           -0.0559     4.2672     0.0260 C.ar    
  27 C27            1.1505     3.5924     0.0104 C.ar    
  28 H28            0.9462    -0.3700    -0.4015 H       
  29 H29            0.5985    -1.1993     1.7241 H       
  30 H30           -0.3601     0.2598     2.1349 H       
  31 H31           -1.9132    -1.8243     1.9977 H       
  32 H32           -5.4169    -2.8201    -2.6388 H       
  33 H33           -5.6345    -3.6428    -0.2284 H       
  34 H34           -2.2563    -0.6884    -2.8276 H       
  35 H35           -0.9267    -1.0229    -7.8394 H       
  36 H36           -1.5920     1.2958    -8.3131 H       
  37 H37           -3.2169     2.4416    -6.8673 H       
  38 H38            2.1118     1.6830    -0.0087 H       
  39 H39           -2.1527     1.6249     0.0207 H       
  40 H40           -2.1861     4.0870     0.0339 H       
  41 H41           -0.0705     5.3471     0.0315 H       
  42 H42            2.0784     4.1450     0.0093 H       
@<TRIPOS>BOND
   1    1    2 1
   2    1   23 ar
   3    1   24 ar
   4    2    3 1
   5    2    4 1
   6    2   28 1
   7    3    6 1
   8    3   29 1
   9    3   30 1
  10    4    5 2
  11    5    6 1
  12    5    7 1
  13    6   31 1
  14    7    8 1
  15    7   11 2
  16    8    9 2
  17    8   12 1
  18    9   10 1
  19    9   32 1
  20   10   11 1
  21   10   33 1
  22   12   13 am
  23   12   34 1
  24   13   14 1
  25   13   15 2
  26   14   19 ar
  27   14   21 ar
  28   16   17 ar
  29   16   21 ar
  30   16   35 1
  31   17   18 ar
  32   17   36 1
  33   18   19 ar
  34   18   37 1
  35   19   20 1
  36   21   22 1
  37   23   27 ar
  38   23   38 1
  39   24   25 ar
  40   24   39 1
  41   25   26 ar
  42   25   40 1
  43   26   27 ar
  44   26   41 1
  45   27   42 1

#	End of record

