#	Name: ASD01230217
#	Creating user name:	WinNT
#	Creation time:	15. 06. 2019 19:12

#	Modifying user name:	WinNT
#	Modification time:	15. 06. 2019 19:12

#	Program:	/corina/corina34_cracker 3.40 0067  02.08.2006

@<TRIPOS>MOLECULE
ASD01230217
  40   43    0    0    0
SMALL
NO_CHARGES


@<TRIPOS>ATOM
   1 O1            -0.0915     1.5382     0.1401 O.3     
   2 C2            -0.0933     0.1195     0.3315 C.3     
   3 C3             0.8349    -0.2079     1.5090 C.3     
   4 O4             2.1491     0.2599     1.1865 O.3     
   5 C5             2.2415     1.5162     0.6699 C.ar    
   6 C6             1.1205     2.1545     0.1442 C.ar    
   7 C7             3.4655     2.1589     0.6701 C.ar    
   8 C8             3.5769     3.4473     0.1408 C.ar    
   9 C9             2.4495     4.0808    -0.3869 C.ar    
  10 C10            1.2325     3.4354    -0.3831 C.ar    
  11 C11            4.8818     4.1367     0.1399 C.2     
  12 O12            5.8621     3.5835     0.6002 O.2     
  13 N13            4.9870     5.3794    -0.3711 N.am    
  14 S14            8.5521     3.6091    -2.2540 S.o2    
  15 N15            7.2814     4.3752    -1.5217 N.am    
  16 C16            7.4238     5.5132    -0.8825 C.2     
  17 N17            8.5953     6.1992    -0.7387 N.pl3   
  18 C18            9.8909     5.7191    -1.2256 C.3     
  19 C19            9.7239     4.9706    -2.5509 C.3     
  20 C20            6.1992     6.0729    -0.2805 C.2     
  21 C21            6.2589     7.2698     0.3632 C.2     
  22 C22            7.4877     7.9473     0.4387 C.2     
  23 C23            8.5972     7.4161    -0.0979 C.2     
  24 O24            9.0520     2.7202    -1.2645 O.2     
  25 O25            8.0197     3.1256    -3.4796 O.2     
  26 H26           -1.1047    -0.2199     0.5554 H       
  27 H27            0.2692    -0.3736    -0.5704 H       
  28 H28            0.4773     0.2920     2.4091 H       
  29 H29            0.8577    -1.2856     1.6706 H       
  30 H30            4.3348     1.6658     1.0792 H       
  31 H31            2.5318     5.0764    -0.7974 H       
  32 H32            0.3618     3.9268    -0.7915 H       
  33 H33            4.2225     5.7931    -0.8017 H       
  34 H34           10.5566     6.5693    -1.3744 H       
  35 H35           10.3265     5.0474    -0.4858 H       
  36 H36           10.6844     4.5699    -2.8750 H       
  37 H37            9.3261     5.6441    -3.3100 H       
  38 H38            5.3724     7.6945     0.8105 H       
  39 H39            7.5397     8.9060     0.9333 H       
  40 H40            9.5252     7.9635    -0.0230 H       
@<TRIPOS>BOND
   1    1    2 1
   2    1    6 1
   3    2    3 1
   4    2   26 1
   5    2   27 1
   6    3    4 1
   7    3   28 1
   8    3   29 1
   9    4    5 1
  10    5    6 ar
  11    5    7 ar
  12    6   10 ar
  13    7    8 ar
  14    7   30 1
  15    8    9 ar
  16    8   11 1
  17    9   10 ar
  18    9   31 1
  19   10   32 1
  20   11   12 2
  21   11   13 am
  22   13   20 1
  23   13   33 1
  24   14   15 am
  25   14   19 1
  26   14   24 2
  27   14   25 2
  28   15   16 2
  29   16   17 1
  30   16   20 1
  31   17   18 1
  32   17   23 1
  33   18   19 1
  34   18   34 1
  35   18   35 1
  36   19   36 1
  37   19   37 1
  38   20   21 2
  39   21   22 1
  40   21   38 1
  41   22   23 2
  42   22   39 1
  43   23   40 1

#	End of record

