#	Name: ASD04590137
#	Creating user name:	WinNT
#	Creation time:	15. 06. 2019 20:50

#	Modifying user name:	WinNT
#	Modification time:	15. 06. 2019 20:50

#	Program:	/corina/corina34_cracker 3.40 0067  02.08.2006

@<TRIPOS>MOLECULE
ASD04590137
  58   60    0    0    0
SMALL
NO_CHARGES


@<TRIPOS>ATOM
   1 N1             3.3642    -1.5495     0.0773 N.pl3   
   2 N2             4.0428    -2.5944     0.3892 N.2     
   3 C3             5.2882    -2.2631     0.6708 C.2     
   4 C4             5.3899    -0.8564     0.5153 C.2     
   5 C5             4.1501    -0.4439     0.1390 C.2     
   6 C6             6.3705    -3.1815     1.0720 C.2     
   7 N7             6.1278    -4.5028     1.1797 N.am    
   8 O8             7.4816    -2.7464     1.3056 O.2     
   9 N9             6.5282    -0.0599     0.7093 N.am    
  10 C10            6.4588     1.2726     0.5188 C.2     
  11 C11            8.8633     1.5266     1.1132 C.ar    
  12 C12            7.6558     2.1102     0.7227 C.ar    
  13 C13            7.2028    -5.4149     1.5781 C.3     
  14 C14            6.5995    -6.6683     2.2181 C.3     
  15 C15            7.7232    -7.6434     2.5767 C.3     
  16 N16            8.4678    -8.0018     1.3629 N.3     
  17 C17            9.0957    -6.8208     0.7569 C.3     
  18 C18            8.0130    -5.8211     0.3440 C.3     
  19 C19            9.9782     2.3147     1.3017 C.ar    
  20 C20            9.9072     3.6840     1.1060 C.ar    
  21 C21            8.7198     4.2739     0.7194 C.ar    
  22 C22            7.5883     3.4964     0.5253 C.ar    
  23 O23            5.4093     1.7843     0.1787 O.2     
  24 O24            6.4210     4.0746     0.1464 O.3     
  25 C25            9.4659    -9.0420     1.6455 C.3     
  26 C26            6.3950     5.5019     0.0817 C.3     
  27 C27            7.3789     5.9820    -0.9872 C.3     
  28 C28            4.9835     5.9705    -0.2770 C.3     
  29 C29            6.7950     6.0813     1.4401 C.3     
  30 H30            2.4264    -1.5505    -0.1708 H       
  31 H31            3.8476     0.5713    -0.0715 H       
  32 H32            5.2414    -4.8499     0.9933 H       
  33 H33            7.3653    -0.4681     0.9805 H       
  34 H34            8.9220     0.4599     1.2717 H       
  35 H35            7.8552    -4.9175     2.2958 H       
  36 H36            6.0568    -6.3903     3.1216 H       
  37 H37            5.9162    -7.1434     1.5142 H       
  38 H38            8.3983    -7.1725     3.2912 H       
  39 H39            7.2958    -8.5430     3.0196 H       
  40 H40            9.7645    -6.3538     1.4799 H       
  41 H41            9.6652    -7.1229    -0.1220 H       
  42 H42            7.3520    -6.2829    -0.3894 H       
  43 H43            8.4802    -4.9379    -0.0915 H       
  44 H44           10.9113     1.8625     1.6037 H       
  45 H45           10.7857     4.2940     1.2563 H       
  46 H46            8.6723     5.3424     0.5691 H       
  47 H47            8.9649    -9.9330     2.0241 H       
  48 H48           10.0029    -9.2887     0.7296 H       
  49 H49           10.1704    -8.6762     2.3925 H       
  50 H50            6.9159     5.8993    -1.9705 H       
  51 H51            7.6436     7.0220    -0.7965 H       
  52 H52            8.2780     5.3666    -0.9561 H       
  53 H53            4.2826     5.6285     0.4845 H       
  54 H54            4.9636     7.0592    -0.3264 H       
  55 H55            4.6985     5.5577    -1.2448 H       
  56 H56            7.7023     5.5902     1.7917 H       
  57 H57            6.9768     7.1513     1.3394 H       
  58 H58            5.9908     5.9153     2.1569 H       
@<TRIPOS>BOND
   1    1    2 1
   2    1    5 1
   3    1   30 1
   4    2    3 2
   5    3    4 1
   6    3    6 1
   7    4    5 2
   8    4    9 1
   9    5   31 1
  10    6    7 am
  11    6    8 2
  12    7   13 1
  13    7   32 1
  14    9   10 am
  15    9   33 1
  16   10   23 2
  17   10   12 1
  18   11   12 ar
  19   11   19 ar
  20   11   34 1
  21   12   22 ar
  22   13   14 1
  23   13   18 1
  24   13   35 1
  25   14   15 1
  26   14   36 1
  27   14   37 1
  28   15   16 1
  29   15   38 1
  30   15   39 1
  31   16   17 1
  32   16   25 1
  33   17   18 1
  34   17   40 1
  35   17   41 1
  36   18   42 1
  37   18   43 1
  38   19   20 ar
  39   19   44 1
  40   20   21 ar
  41   20   45 1
  42   21   22 ar
  43   21   46 1
  44   22   24 1
  45   24   26 1
  46   25   47 1
  47   25   48 1
  48   25   49 1
  49   26   27 1
  50   26   28 1
  51   26   29 1
  52   27   50 1
  53   27   51 1
  54   27   52 1
  55   28   53 1
  56   28   54 1
  57   28   55 1
  58   29   56 1
  59   29   57 1
  60   29   58 1

#	End of record

