#	Name: ASD00069346
#	Creating user name:	WinNT
#	Creation time:	15. 06. 2019 18:29

#	Modifying user name:	WinNT
#	Modification time:	15. 06. 2019 18:29

#	Program:	/corina/corina34_cracker 3.40 0067  02.08.2006

@<TRIPOS>MOLECULE
ASD00069346
  87   91    0    0    0
SMALL
NO_CHARGES


@<TRIPOS>ATOM
   1 C1            -0.0160     1.3107    -0.0027 C.2     
   2 N2             0.0009    -0.0048    -0.0393 N.2     
   3 C3             1.2713    -0.4244    -0.0661 C.2     
   4 C4             2.0814     0.6768    -0.0454 C.2     
   5 N5             1.2738     1.7625    -0.0057 N.pl3   
   6 C6            -1.2230     2.1549     0.0296 C.2     
   7 O7            -1.1173     3.3662     0.0619 O.2     
   8 N8            -2.4443     1.5849     0.0232 N.am    
   9 C9             1.7031     3.1628     0.0275 C.3     
  10 O10            3.1307     3.2238     0.0123 O.3     
  11 C11            3.6560     4.5525     0.0424 C.3     
  12 C12            5.1849     4.4970     0.0227 C.3     
  13 Si13           5.8697     6.2291     0.0619 Si      
  14 C14            5.2993     7.0874     1.6140 C.3     
  15 C15            7.7313     6.1615     0.0380 C.3     
  16 C16            5.2633     7.1705    -1.4270 C.3     
  17 N17            3.0214    -3.6433    -0.1742 N.am    
  18 C18            3.0026    -2.2768    -0.1367 C.2     
  19 C19            1.7219    -1.8374    -0.1102 C.2     
  20 C20            0.8638    -3.0324    -0.1330 C.ar    
  21 C21           -0.5160    -3.2337    -0.1223 C.ar    
  22 C22           -1.0169    -4.5050    -0.1509 C.ar    
  23 C23           -0.1623    -5.5981    -0.1904 C.ar    
  24 C24            1.2037    -5.4211    -0.2010 C.ar    
  25 C25            1.7345    -4.1349    -0.1729 C.ar    
  26 S26            4.3916    -4.5722    -0.2214 S.o2    
  27 O27            4.2007    -5.5160    -1.2664 O.2     
  28 O28            5.4891    -3.6707    -0.1791 O.2     
  29 C29            4.4479    -5.4953     1.2784 C.ar    
  30 C30            3.8528    -6.7412     1.3460 C.ar    
  31 C31            3.8970    -7.4653     2.5227 C.ar    
  32 C32            4.5365    -6.9437     3.6317 C.ar    
  33 C33            5.1323    -5.6982     3.5638 C.ar    
  34 C34            5.0919    -4.9759     2.3859 C.ar    
  35 C35           -3.5895     2.3821     0.1389 C.ar    
  36 C36           -4.7650     1.8450     0.6604 C.ar    
  37 C37           -5.8947     2.6385     0.7723 C.ar    
  38 C38           -5.8549     3.9600     0.3669 C.ar    
  39 C39           -4.6892     4.4935    -0.1505 C.ar    
  40 C40           -3.5555     3.7102    -0.2599 C.ar    
  41 O41           -4.8029     0.5452     1.0578 O.3     
  42 C42           -6.0416     0.0631     1.5824 C.3     
  43 C43           -5.8917    -1.4086     1.9730 C.3     
  44 N44           -4.9299    -1.5267     3.0770 N.3     
  45 C45           -5.4478    -0.8924     4.2966 C.3     
  46 C46           -4.5801    -2.9322     3.3224 C.3     
  47 H47            3.1613     0.6798    -0.0577 H       
  48 H48           -2.5299     0.6224    -0.0615 H       
  49 H49            1.3078     3.6847    -0.8439 H       
  50 H50            1.3289     3.6361     0.9353 H       
  51 H51            3.3012     5.1032    -0.8288 H       
  52 H52            3.3223     5.0546     0.9504 H       
  53 H53            5.5397     3.9462     0.8939 H       
  54 H54            5.5186     3.9948    -0.8853 H       
  55 H55            5.6541     6.5366     2.4851 H       
  56 H56            5.7000     8.1008     1.6369 H       
  57 H57            4.2101     7.1269     1.6279 H       
  58 H58            8.0650     5.6593    -0.8700 H       
  59 H59            8.1320     7.1749     0.0610 H       
  60 H60            8.0861     5.6107     0.9092 H       
  61 H61            4.1741     7.2100    -1.4130 H       
  62 H62            5.6640     8.1839    -1.4040 H       
  63 H63            5.5970     6.6683    -2.3350 H       
  64 H64            3.8772    -1.6432    -0.1291 H       
  65 H65           -1.1867    -2.3877    -0.0913 H       
  66 H66           -2.0857    -4.6603    -0.1423 H       
  67 H67           -0.5723    -6.5969    -0.2126 H       
  68 H68            1.8608    -6.2778    -0.2311 H       
  69 H69            3.3532    -7.1486     0.4796 H       
  70 H70            3.4315    -8.4384     2.5757 H       
  71 H71            4.5704    -7.5092     4.5512 H       
  72 H72            5.6317    -5.2906     4.4303 H       
  73 H73            5.5606    -4.0044     2.3318 H       
  74 H74           -6.8070     2.2249     1.1761 H       
  75 H75           -6.7370     4.5770     0.4543 H       
  76 H76           -4.6631     5.5260    -0.4661 H       
  77 H77           -2.6449     4.1309    -0.6603 H       
  78 H78           -6.3154     0.6463     2.4616 H       
  79 H79           -6.8195     0.1606     0.8251 H       
  80 H80           -6.8582    -1.8007     2.2896 H       
  81 H81           -5.5322    -1.9773     1.1154 H       
  82 H82           -6.3788    -1.3770     4.5908 H       
  83 H83           -4.7161    -0.9944     5.0980 H       
  84 H84           -5.6329     0.1647     4.1059 H       
  85 H85           -4.1343    -3.3579     2.4234 H       
  86 H86           -3.8667    -2.9909     4.1445 H       
  87 H87           -5.4796    -3.4906     3.5813 H       
@<TRIPOS>BOND
   1    1    2 2
   2    1    5 1
   3    1    6 1
   4    2    3 1
   5    3    4 2
   6    3   19 1
   7    4    5 1
   8    4   47 1
   9    5    9 1
  10    6    7 2
  11    6    8 am
  12    8   35 1
  13    8   48 1
  14    9   10 1
  15    9   49 1
  16    9   50 1
  17   10   11 1
  18   11   12 1
  19   11   51 1
  20   11   52 1
  21   12   13 1
  22   12   53 1
  23   12   54 1
  24   13   14 1
  25   13   15 1
  26   13   16 1
  27   14   55 1
  28   14   56 1
  29   14   57 1
  30   15   58 1
  31   15   59 1
  32   15   60 1
  33   16   61 1
  34   16   62 1
  35   16   63 1
  36   17   18 1
  37   17   25 1
  38   17   26 am
  39   18   19 2
  40   18   64 1
  41   19   20 1
  42   20   21 ar
  43   20   25 ar
  44   21   22 ar
  45   21   65 1
  46   22   23 ar
  47   22   66 1
  48   23   24 ar
  49   23   67 1
  50   24   25 ar
  51   24   68 1
  52   26   27 2
  53   26   28 2
  54   26   29 1
  55   29   30 ar
  56   29   34 ar
  57   30   31 ar
  58   30   69 1
  59   31   32 ar
  60   31   70 1
  61   32   33 ar
  62   32   71 1
  63   33   34 ar
  64   33   72 1
  65   34   73 1
  66   35   36 ar
  67   35   40 ar
  68   36   37 ar
  69   36   41 1
  70   37   38 ar
  71   37   74 1
  72   38   39 ar
  73   38   75 1
  74   39   40 ar
  75   39   76 1
  76   40   77 1
  77   41   42 1
  78   42   43 1
  79   42   78 1
  80   42   79 1
  81   43   44 1
  82   43   80 1
  83   43   81 1
  84   44   45 1
  85   44   46 1
  86   45   82 1
  87   45   83 1
  88   45   84 1
  89   46   85 1
  90   46   86 1
  91   46   87 1

#	End of record

