#	Name: ASD02198166
#	Creating user name:	WinNT
#	Creation time:	15. 06. 2019 20:18

#	Modifying user name:	WinNT
#	Modification time:	15. 06. 2019 20:18

#	Program:	/corina/corina34_cracker 3.40 0067  02.08.2006

@<TRIPOS>MOLECULE
ASD02198166
  53   55    0    0    0
SMALL
NO_CHARGES


@<TRIPOS>ATOM
   1 C1            -0.0210     1.3616    -0.2532 C.2     
   2 C2             0.0018    -0.0165    -0.2055 C.2     
   3 C3            -1.1842    -0.8183    -0.2366 C.1     
   4 S4             1.5595     1.9984    -0.1971 S.3     
   5 C5             2.2728     0.3960    -0.1080 C.2     
   6 C6             1.2827    -0.5582    -0.1243 C.2     
   7 C7             3.6525     0.1283    -0.0317 C.2     
   8 C8             4.6286     1.2349    -0.1472 C.ar    
   9 O9             4.0436    -1.0153     0.1296 O.2     
  10 N10            1.5335    -1.9199    -0.0656 N.pl3   
  11 N11           -1.1646     2.1200    -0.3402 N.pl3   
  12 N12           -2.1251    -1.4544    -0.2612 N.1     
  13 C13            4.8980     1.8043    -1.3921 C.ar    
  14 C14           -1.0728     3.5815    -0.3845 C.3     
  15 C15           -2.4573     4.1692    -0.4788 C.ar    
  16 C16           -3.0289     4.3926    -1.7167 C.ar    
  17 C17            5.8091     2.8357    -1.4930 C.ar    
  18 C18            6.4551     3.3049    -0.3633 C.ar    
  19 C19            6.1927     2.7441     0.8742 C.ar    
  20 C20            5.2791     1.7170     0.9895 C.ar    
  21 C21            4.1959     1.2937    -2.6239 C.3     
  22 C22            7.4494     4.4313    -0.4810 C.3     
  23 C23           -3.1551     4.4784     0.6730 C.ar    
  24 C24           -4.4305     5.0189     0.5889 C.ar    
  25 C25           -5.0042     5.2488    -0.6521 C.ar    
  26 C26           -4.3039     4.9332    -1.8062 C.ar    
  27 O27           -5.1168     5.3220     1.7220 O.3     
  28 C28           -6.4244     5.8753     1.5602 C.3     
  29 O29           -4.8634     5.1579    -3.0241 O.3     
  30 C30           -6.1764     5.7216    -3.0408 C.3     
  31 H31            2.4464    -2.2430    -0.0095 H       
  32 H32            0.7962    -2.5500    -0.0805 H       
  33 H33           -2.0322     1.6874    -0.3723 H       
  34 H34           -0.5857     3.9426     0.5212 H       
  35 H35           -0.4902     3.8827    -1.2552 H       
  36 H36           -2.4829     4.1465    -2.6155 H       
  37 H37            6.0185     3.2773    -2.4561 H       
  38 H38            6.7009     3.1144     1.7523 H       
  39 H39            5.0751     1.2801     1.9559 H       
  40 H40            3.2290     1.7874    -2.7219 H       
  41 H41            4.8036     1.5071    -3.5032 H       
  42 H42            4.0472     0.2174    -2.5375 H       
  43 H43            6.9345     5.3844    -0.3609 H       
  44 H44            8.2086     4.3282     0.2943 H       
  45 H45            7.9242     4.3958    -1.4615 H       
  46 H46           -2.7078     4.2991     1.6395 H       
  47 H47           -5.9967     5.6694    -0.7196 H       
  48 H48           -6.3575     6.8079     0.9999 H       
  49 H49           -7.0529     5.1694     1.0171 H       
  50 H50           -6.8601     6.0705     2.5400 H       
  51 H51           -6.8646     5.0551    -2.5207 H       
  52 H52           -6.1622     6.6905    -2.5418 H       
  53 H53           -6.5040     5.8490    -4.0725 H       
@<TRIPOS>BOND
   1    1    2 2
   2    1    4 1
   3    1   11 1
   4    2    3 1
   5    2    6 1
   6    3   12 3
   7    4    5 1
   8    5    6 2
   9    5    7 1
  10    6   10 1
  11    7    8 1
  12    7    9 2
  13    8   13 ar
  14    8   20 ar
  15   10   31 1
  16   10   32 1
  17   11   14 1
  18   11   33 1
  19   13   17 ar
  20   13   21 1
  21   14   15 1
  22   14   34 1
  23   14   35 1
  24   15   23 ar
  25   15   16 ar
  26   16   26 ar
  27   16   36 1
  28   17   18 ar
  29   17   37 1
  30   18   19 ar
  31   18   22 1
  32   19   20 ar
  33   19   38 1
  34   20   39 1
  35   21   40 1
  36   21   41 1
  37   21   42 1
  38   22   43 1
  39   22   44 1
  40   22   45 1
  41   23   24 ar
  42   23   46 1
  43   24   25 ar
  44   24   27 1
  45   25   26 ar
  46   25   47 1
  47   26   29 1
  48   27   28 1
  49   28   48 1
  50   28   49 1
  51   28   50 1
  52   29   30 1
  53   30   51 1
  54   30   52 1
  55   30   53 1

#	End of record

