#	Name: ASD01410226
#	Creating user name:	WinNT
#	Creation time:	15. 06. 2019 19:17

#	Modifying user name:	WinNT
#	Modification time:	15. 06. 2019 19:17

#	Program:	/corina/corina34_cracker 3.40 0067  02.08.2006

@<TRIPOS>MOLECULE
ASD01410226
  44   46    0    0    0
SMALL
NO_CHARGES


@<TRIPOS>ATOM
   1 C1            -0.4962     0.9285    -0.6820 C.2     
   2 C2            -0.5676    -0.4202    -0.7367 C.2     
   3 C3            -1.9221    -0.7691    -0.6284 C.2     
   4 C4            -2.6242     0.4142    -0.5101 C.2     
   5 O5            -1.7327     1.4269    -0.5408 O.3     
   6 C6            -4.5904     1.7778    -0.2681 C.2     
   7 S7            -3.7817     3.3588    -0.2705 S.3     
   8 C8            -5.2871     4.2790    -0.0984 C.2     
   9 N9            -6.2659     3.4064    -0.0504 N.2     
  10 C10           -6.0126     2.1176    -0.1286 C.2     
  11 C11           -4.0255     0.5416    -0.3762 C.2     
  12 O12           -6.8913     1.2702    -0.0887 O.2     
  13 N13           -5.4060     5.6430    -0.0288 N.pl3   
  14 C14           -6.7335     6.2619     0.0018 C.3     
  15 C15            0.7705     1.7411    -0.7604 C.3     
  16 C16            1.0685     2.0814    -2.2220 C.3     
  17 C17           -6.3100     6.6357    -2.4362 C.ar    
  18 C18           -7.2199     6.4773    -1.4082 C.ar    
  19 C19           -8.5775     6.5160    -1.6733 C.ar    
  20 C20           -9.0238     6.7133    -2.9675 C.ar    
  21 C21           -8.1124     6.8718    -3.9963 C.ar    
  22 C22           -6.7554     6.8329    -3.7300 C.ar    
  23 C23           -6.2981     7.3806     2.1716 C.2     
  24 O24           -6.0518     6.2652     2.5652 O.2     
  25 O25           -6.2565     8.4174     3.0232 O.3     
  26 C26           -6.6521     7.6080     0.7245 C.3     
  27 Cl27          -8.6715     7.1189    -5.6211 Cl      
  28 Cl28          -9.7203     6.3164    -0.3819 Cl      
  29 H29            0.2630    -1.1020    -0.8445 H       
  30 H30           -2.3348    -1.7672    -0.6364 H       
  31 H31           -4.6488    -0.3402    -0.3595 H       
  32 H32           -4.6112     6.1983     0.0003 H       
  33 H33           -7.4274     5.6075     0.5295 H       
  34 H34            0.6471     2.6623    -0.1908 H       
  35 H35            1.5978     1.1654    -0.3454 H       
  36 H36            1.1918     1.1602    -2.7916 H       
  37 H37            0.2412     2.6571    -2.6370 H       
  38 H38            1.9847     2.6691    -2.2788 H       
  39 H39           -5.2506     6.6098    -2.2282 H       
  40 H40          -10.0832     6.7432    -3.1750 H       
  41 H41           -6.0439     6.9570    -4.5330 H       
  42 H42           -6.0246     8.2221     3.9414 H       
  43 H43           -5.8864     8.2262     0.2559 H       
  44 H44           -7.6159     8.1132     0.6612 H       
@<TRIPOS>BOND
   1    1    2 2
   2    1   15 1
   3    1    5 1
   4    2    3 1
   5    2   29 1
   6    3    4 2
   7    3   30 1
   8    4    5 1
   9    4   11 1
  10    6    7 1
  11    6   10 1
  12    6   11 2
  13    7    8 1
  14    8    9 2
  15    8   13 1
  16    9   10 1
  17   10   12 2
  18   11   31 1
  19   13   14 1
  20   13   32 1
  21   14   18 1
  22   14   26 1
  23   14   33 1
  24   15   16 1
  25   15   34 1
  26   15   35 1
  27   16   36 1
  28   16   37 1
  29   16   38 1
  30   17   18 ar
  31   17   22 ar
  32   17   39 1
  33   18   19 ar
  34   19   20 ar
  35   19   28 1
  36   20   21 ar
  37   20   40 1
  38   21   22 ar
  39   21   27 1
  40   22   41 1
  41   23   24 2
  42   23   25 1
  43   23   26 1
  44   25   42 1
  45   26   43 1
  46   26   44 1

#	End of record

