#	Name: ASD01440130
#	Creating user name:	WinNT
#	Creation time:	15. 06. 2019 19:21

#	Modifying user name:	WinNT
#	Modification time:	15. 06. 2019 19:21

#	Program:	/corina/corina34_cracker 3.40 0067  02.08.2006

@<TRIPOS>MOLECULE
ASD01440130
  47   50    0    0    0
SMALL
NO_CHARGES


@<TRIPOS>ATOM
   1 C1             0.2312     1.5516     0.0996 C.ar    
   2 C2             0.1925     0.1781     0.1822 C.ar    
   3 C3             1.3751    -0.5497     0.2541 C.ar    
   4 C4             2.6013     0.1058     0.2434 C.ar    
   5 C5             2.6492     1.4790     0.1615 C.ar    
   6 C6             1.4623     2.2149     0.0880 C.ar    
   7 C7             1.5087     3.6865    -0.0009 C.2     
   8 O8             0.4822     4.3186    -0.1596 O.2     
   9 C9             2.8023     4.3923     0.1030 C.ar    
  10 O10            1.3324    -1.9035     0.3354 O.3     
  11 C11            2.5843    -2.5890     0.4064 C.3     
  12 C12            2.3399    -4.0736     0.4910 C.2     
  13 N13            3.3821    -4.9248     0.5671 N.am    
  14 O14            1.2054    -4.5025     0.4905 O.2     
  15 C15            3.4116     4.9125    -1.0409 C.ar    
  16 C16            4.6191     5.5707    -0.9366 C.ar    
  17 C17            5.2276     5.7167     0.2978 C.ar    
  18 C18            4.6306     5.2043     1.4359 C.ar    
  19 C19            3.4195     4.5478     1.3476 C.ar    
  20 Br20           2.6013     3.8543     2.9050 Br      
  21 C21            3.1555    -6.2942     0.7444 C.ar    
  22 C22            2.0589    -6.8983     0.1599 C.ar    
  23 C23            1.8751    -8.2770     0.3679 C.ar    
  24 C24            2.8124    -8.9852     1.1608 C.ar    
  25 N25            3.8539    -8.3433     1.6991 N.ar    
  26 C26            4.0416    -7.0607     1.5101 C.ar    
  27 C27            2.6275   -10.3637     1.3680 C.ar    
  28 C28            1.5591   -10.9939     0.8085 C.ar    
  29 C29            0.6390   -10.2955     0.0289 C.ar    
  30 C30            0.7841    -8.9606    -0.1944 C.ar    
  31 H31           -0.6877     2.1158     0.0392 H       
  32 H32           -0.7578    -0.3350     0.1915 H       
  33 H33            3.5175    -0.4633     0.2998 H       
  34 H34            3.6021     1.9874     0.1536 H       
  35 H35            3.1708    -2.3675    -0.4852 H       
  36 H36            3.1293    -2.2595     1.2910 H       
  37 H37            4.2893    -4.5881     0.4990 H       
  38 H38            2.9385     4.7992    -2.0051 H       
  39 H39            5.0913     5.9730    -1.8207 H       
  40 H40            6.1733     6.2328     0.3730 H       
  41 H41            5.1113     5.3216     2.3959 H       
  42 H42            1.3634    -6.3286    -0.4386 H       
  43 H43            4.8988    -6.5820     1.9599 H       
  44 H44            3.3313   -10.9205     1.9689 H       
  45 H45            1.4222   -12.0528     0.9711 H       
  46 H46           -0.1999   -10.8202    -0.4038 H       
  47 H47            0.0642    -8.4298    -0.7998 H       
@<TRIPOS>BOND
   1    1    2 ar
   2    1    6 ar
   3    1   31 1
   4    2    3 ar
   5    2   32 1
   6    3    4 ar
   7    3   10 1
   8    4    5 ar
   9    4   33 1
  10    5    6 ar
  11    5   34 1
  12    6    7 1
  13    7    8 2
  14    7    9 1
  15    9   15 ar
  16    9   19 ar
  17   10   11 1
  18   11   12 1
  19   11   35 1
  20   11   36 1
  21   12   13 am
  22   12   14 2
  23   13   21 1
  24   13   37 1
  25   15   16 ar
  26   15   38 1
  27   16   17 ar
  28   16   39 1
  29   17   18 ar
  30   17   40 1
  31   18   19 ar
  32   18   41 1
  33   19   20 1
  34   21   22 ar
  35   21   26 ar
  36   22   23 ar
  37   22   42 1
  38   23   30 ar
  39   23   24 ar
  40   24   25 ar
  41   24   27 ar
  42   25   26 ar
  43   26   43 1
  44   27   28 ar
  45   27   44 1
  46   28   29 ar
  47   28   45 1
  48   29   30 ar
  49   29   46 1
  50   30   47 1

#	End of record

