#	Name: ASD01810908
#	Creating user name:	WinNT
#	Creation time:	15. 06. 2019 19:25

#	Modifying user name:	WinNT
#	Modification time:	15. 06. 2019 19:25

#	Program:	/corina/corina34_cracker 3.40 0067  02.08.2006

@<TRIPOS>MOLECULE
ASD01810908
  31   32    0    0    0
SMALL
NO_CHARGES


@<TRIPOS>ATOM
   1 C1             0.0021    -0.0041     0.0020 C.1     
   2 C2            -0.0173     1.4278     0.0099 C.ar    
   3 C3             1.1804     2.1455     0.0023 C.ar    
   4 C4             1.1544     3.5247     0.0100 C.ar    
   5 C5            -0.0549     4.1969     0.0257 C.ar    
   6 C6            -1.2455     3.4920     0.0337 C.ar    
   7 C7            -1.2341     2.1126     0.0194 C.ar    
   8 N8             0.0175    -1.1399    -0.0042 N.1     
   9 N9            -1.5877     8.1636     0.0593 N.3     
  10 C10           -0.8865     7.7408    -1.1597 C.3     
  11 C11           -0.8159     6.2127    -1.2052 C.3     
  12 C12           -0.0753     5.7037     0.0345 C.3     
  13 C13           -0.7985     6.1983     1.2903 C.3     
  14 C14           -0.8696     7.7268     1.2634 C.3     
  15 C15           -1.6435     8.2529    -2.3868 C.3     
  16 H16            2.1250     1.6220    -0.0092 H       
  17 H17            2.0800     4.0810     0.0042 H       
  18 H18           -2.1859     4.0230     0.0463 H       
  19 H19           -2.1642     1.5637     0.0208 H       
  20 H20           -1.7310     9.1623     0.0661 H       
  21 H21            0.1233     8.1511    -1.1588 H       
  22 H22           -1.8255     5.8020    -1.2202 H       
  23 H23           -0.2818     5.8996    -2.1023 H       
  24 H24            0.9469     6.0819     0.0290 H       
  25 H25           -1.8078     5.7874     1.3146 H       
  26 H26           -0.2519     5.8749     2.1761 H       
  27 H27            0.1401     8.1372     1.2531 H       
  28 H28           -1.3965     8.0815     2.1492 H       
  29 H29           -1.6930     9.3413    -2.3550 H       
  30 H30           -1.1232     7.9391    -3.2918 H       
  31 H31           -2.6535     7.8430    -2.3878 H       
@<TRIPOS>BOND
   1    1    2 1
   2    1    8 3
   3    2    3 ar
   4    2    7 ar
   5    3    4 ar
   6    3   16 1
   7    4    5 ar
   8    4   17 1
   9    5    6 ar
  10    5   12 1
  11    6    7 ar
  12    6   18 1
  13    7   19 1
  14    9   10 1
  15    9   14 1
  16    9   20 1
  17   10   11 1
  18   10   15 1
  19   10   21 1
  20   11   12 1
  21   11   22 1
  22   11   23 1
  23   12   13 1
  24   12   24 1
  25   13   14 1
  26   13   25 1
  27   13   26 1
  28   14   27 1
  29   14   28 1
  30   15   29 1
  31   15   30 1
  32   15   31 1

#	End of record

