#	Name: ASD02198243
#	Creating user name:	WinNT
#	Creation time:	15. 06. 2019 20:19

#	Modifying user name:	WinNT
#	Modification time:	15. 06. 2019 20:19

#	Program:	/corina/corina34_cracker 3.40 0067  02.08.2006

@<TRIPOS>MOLECULE
ASD02198243
  49   52    0    0    0
SMALL
NO_CHARGES


@<TRIPOS>ATOM
   1 C1            -0.1107     1.5115    -0.5221 C.2     
   2 C2             0.0444     0.1725    -0.3379 C.2     
   3 C3            -1.0838    -0.8084    -0.5275 C.3     
   4 S4             1.4078     2.3417    -0.2150 S.3     
   5 C5             2.2093     0.8216     0.1573 C.2     
   6 C6             1.3083    -0.2172     0.0338 C.2     
   7 C7             3.5594     0.6850     0.5239 C.2     
   8 C8             4.3844     1.8887     0.7717 C.ar    
   9 O9             4.0511    -0.4253     0.6377 O.2     
  10 N10            1.6509    -1.5445     0.2661 N.pl3   
  11 N11           -1.2891     2.1285    -0.9013 N.pl3   
  12 C12           -1.3006     3.4976    -1.1898 C.ar    
  13 C13           -0.2390     4.0718    -1.8773 C.ar    
  14 C14            3.7951     3.0518     1.2687 C.ar    
  15 C15           -0.2514     5.4228    -2.1620 C.ar    
  16 C16           -1.3238     6.2068    -1.7615 C.ar    
  17 C17           -2.3846     5.6340    -1.0747 C.ar    
  18 C18           -2.3763     4.2821    -0.7938 C.ar    
  19 C19            4.5696     4.1704     1.4975 C.ar    
  20 C20            5.9277     4.1407     1.2348 C.ar    
  21 C21            6.5180     2.9906     0.7418 C.ar    
  22 C22            5.7556     1.8634     0.5146 C.ar    
  23 O23           -1.3350     7.5372    -2.0418 O.3     
  24 C24           -1.6769     7.9212    -3.2996 C.ar    
  25 C25           -1.9358     6.9656    -4.2719 C.ar    
  26 C26           -1.7732     9.2696    -3.6126 C.ar    
  27 C27           -2.1208     9.6574    -4.8920 C.ar    
  28 C28           -2.3732     8.7031    -5.8603 C.ar    
  29 C29           -2.2831     7.3587    -5.5497 C.ar    
  30 H30           -1.0974    -1.1510    -1.5622 H       
  31 H31           -0.9392    -1.6612     0.1358 H       
  32 H32           -2.0310    -0.3225    -0.2932 H       
  33 H33            2.5567    -1.7731     0.5270 H       
  34 H34            0.9840    -2.2419     0.1673 H       
  35 H35           -2.1075     1.6120    -0.9673 H       
  36 H36            0.5960     3.4618    -2.1888 H       
  37 H37            2.7350     3.0764     1.4735 H       
  38 H38            0.5741     5.8695    -2.6962 H       
  39 H39           -3.2189     6.2450    -0.7630 H       
  40 H40           -3.2021     3.8364    -0.2593 H       
  41 H41            4.1147     5.0713     1.8822 H       
  42 H42            6.5295     5.0192     1.4149 H       
  43 H43            7.5785     2.9738     0.5384 H       
  44 H44            6.2176     0.9660     0.1302 H       
  45 H45           -1.8655     5.9154    -4.0298 H       
  46 H46           -1.5768    10.0154    -2.8564 H       
  47 H47           -2.1959    10.7067    -5.1361 H       
  48 H48           -2.6452     9.0084    -6.8599 H       
  49 H49           -2.4803     6.6154    -6.3080 H       
@<TRIPOS>BOND
   1    1    2 2
   2    1    4 1
   3    1   11 1
   4    2    3 1
   5    2    6 1
   6    3   30 1
   7    3   31 1
   8    3   32 1
   9    4    5 1
  10    5    6 2
  11    5    7 1
  12    6   10 1
  13    7    8 1
  14    7    9 2
  15    8   14 ar
  16    8   22 ar
  17   10   33 1
  18   10   34 1
  19   11   12 1
  20   11   35 1
  21   12   13 ar
  22   12   18 ar
  23   13   15 ar
  24   13   36 1
  25   14   19 ar
  26   14   37 1
  27   15   16 ar
  28   15   38 1
  29   16   17 ar
  30   16   23 1
  31   17   18 ar
  32   17   39 1
  33   18   40 1
  34   19   20 ar
  35   19   41 1
  36   20   21 ar
  37   20   42 1
  38   21   22 ar
  39   21   43 1
  40   22   44 1
  41   23   24 1
  42   24   25 ar
  43   24   26 ar
  44   25   29 ar
  45   25   45 1
  46   26   27 ar
  47   26   46 1
  48   27   28 ar
  49   27   47 1
  50   28   29 ar
  51   28   48 1
  52   29   49 1

#	End of record

