#	Name: ASD03090385
#	Creating user name:	WinNT
#	Creation time:	15. 06. 2019 20:28

#	Modifying user name:	WinNT
#	Modification time:	15. 06. 2019 20:28

#	Program:	/corina/corina34_cracker 3.40 0067  02.08.2006

@<TRIPOS>MOLECULE
ASD03090385
  36   38    0    0    0
SMALL
NO_CHARGES


@<TRIPOS>ATOM
   1 C1            -0.0179     1.4719     0.0101 C.2     
   2 C2             0.0021    -0.0041     0.0020 C.ar    
   3 C3             1.2203    -0.6995    -0.0133 C.ar    
   4 C4             1.1875    -2.0786    -0.0205 C.ar    
   5 C5            -0.0424    -2.7299    -0.0123 C.ar    
   6 N6            -1.1755    -2.0450     0.0022 N.ar    
   7 C7            -1.1903    -0.7285     0.0153 C.ar    
   8 O8             1.0266     2.0941     0.0035 O.2     
   9 N9            -1.1942     2.1299     0.0193 N.am    
  10 O10           -0.0809    -4.0843    -0.0197 O.3     
  11 C11           -1.3719    -4.6967    -0.0107 C.3     
  12 C12           -1.2140     3.5947     0.0273 C.3     
  13 N13           -6.5411     5.3988     0.3357 N.pl3   
  14 C14           -6.6944     5.4453     1.6946 C.2     
  15 C15           -5.5590     5.0575     2.2967 C.2     
  16 C16           -4.6003     4.7363     1.2367 C.ar    
  17 C17           -3.2778     4.2884     1.2273 C.ar    
  18 C18           -2.6415     4.0777     0.0367 C.ar    
  19 C19           -3.2993     4.3054    -1.1644 C.ar    
  20 C20           -4.6038     4.7478    -1.1782 C.ar    
  21 C21           -5.2711     4.9690     0.0224 C.ar    
  22 H22            2.1607    -0.1683    -0.0198 H       
  23 H23            2.1060    -2.6466    -0.0327 H       
  24 H24           -2.1344    -0.2043     0.0317 H       
  25 H25           -2.0275     1.6335     0.0205 H       
  26 H26           -1.9117    -4.3933     0.8863 H       
  27 H27           -1.9290    -4.3831    -0.8935 H       
  28 H28           -1.2599    -5.7809    -0.0180 H       
  29 H29           -0.7010     3.9602     0.9169 H       
  30 H30           -0.7094     3.9698    -0.8630 H       
  31 H31           -7.2264     5.6301    -0.3107 H       
  32 H32           -7.5953     5.7493     2.2068 H       
  33 H33           -5.3854     4.9942     3.3608 H       
  34 H34           -2.7594     4.1100     2.1578 H       
  35 H35           -2.7830     4.1342    -2.0975 H       
  36 H36           -5.1068     4.9223    -2.1178 H       
@<TRIPOS>BOND
   1    1    2 1
   2    1    8 2
   3    1    9 am
   4    2    3 ar
   5    2    7 ar
   6    3    4 ar
   7    3   22 1
   8    4    5 ar
   9    4   23 1
  10    5    6 ar
  11    5   10 1
  12    6    7 ar
  13    7   24 1
  14    9   12 1
  15    9   25 1
  16   10   11 1
  17   11   26 1
  18   11   27 1
  19   11   28 1
  20   12   18 1
  21   12   29 1
  22   12   30 1
  23   13   14 1
  24   13   21 1
  25   13   31 1
  26   14   15 2
  27   14   32 1
  28   15   16 1
  29   15   33 1
  30   16   17 ar
  31   16   21 ar
  32   17   18 ar
  33   17   34 1
  34   18   19 ar
  35   19   20 ar
  36   19   35 1
  37   20   21 ar
  38   20   36 1

#	End of record

