#	Name: ASD01884742
#	Creating user name:	WinNT
#	Creation time:	15. 06. 2019 19:48

#	Modifying user name:	WinNT
#	Modification time:	15. 06. 2019 19:48

#	Program:	/corina/corina34_cracker 3.40 0067  02.08.2006

@<TRIPOS>MOLECULE
ASD01884742
  51   54    0    0    0
SMALL
NO_CHARGES


@<TRIPOS>ATOM
   1 C1            -0.0170     1.3882     0.0447 C.2     
   2 C2             0.0019    -0.0043     0.0378 C.2     
   3 C3            -1.2135    -0.6983     0.0098 C.2     
   4 C4            -2.3897    -0.0118    -0.0106 C.2     
   5 N5            -2.4100     1.3457    -0.0039 N.am    
   6 C6            -1.2677     2.0576     0.0292 C.2     
   7 O7            -1.3080     3.2764     0.0348 O.2     
   8 C8            -3.6958     2.0473    -0.0270 C.3     
   9 C9             1.2062     2.1323     0.0731 C.1     
  10 N10            2.1765     2.7226     0.0956 N.1     
  11 C11           -4.1735     2.2840     1.4071 C.3     
  12 C12           -5.5164     3.0167     1.3830 C.3     
  13 C13           -6.5772     2.1165     0.7465 C.3     
  14 C14           -5.9338     3.3638     2.8135 C.3     
  15 N15           -1.2200    -2.1015     0.0024 N.pl3   
  16 C16           -2.4821    -2.8518     0.1201 C.3     
  17 C17           -2.2527    -3.9753     1.1062 C.2     
  18 C18           -1.0314    -4.3290     1.5616 C.2     
  19 C19            0.2607    -3.6621     1.1644 C.3     
  20 C20            0.0325    -2.8610    -0.1293 C.3     
  21 N21           -3.2105    -4.7767     1.6681 N.pl3   
  22 C22           -2.6227    -5.6792     2.5070 C.ar    
  23 C23           -1.2253    -5.4371     2.4751 C.ar    
  24 C24           -3.1481    -6.6944     3.3038 C.ar    
  25 C25           -2.2473    -7.4383     4.0460 C.ar    
  26 C26           -0.8835    -7.1979     4.0105 C.ar    
  27 C27           -0.3377    -6.2046     3.2354 C.ar    
  28 H28            0.9394    -0.5402     0.0535 H       
  29 H29           -3.3220    -0.5565    -0.0328 H       
  30 H30           -3.5780     3.0052    -0.5335 H       
  31 H31           -4.4301     1.4427    -0.5594 H       
  32 H32           -4.2913     1.3260     1.9136 H       
  33 H33           -3.4392     2.8885     1.9395 H       
  34 H34           -5.4201     3.9328     0.8003 H       
  35 H35           -7.5339     2.6385     0.7293 H       
  36 H36           -6.2799     1.8692    -0.2726 H       
  37 H37           -6.6735     1.2004     1.3292 H       
  38 H38           -5.1780     4.0051     3.2670 H       
  39 H39           -6.8905     3.8858     2.7963 H       
  40 H40           -6.0301     2.4477     3.3963 H       
  41 H41           -3.2710    -2.1942     0.4851 H       
  42 H42           -2.7607    -3.2623    -0.8505 H       
  43 H43            0.5842    -2.9905     1.9597 H       
  44 H44            1.0246    -4.4204     0.9921 H       
  45 H45           -0.0418    -3.5436    -0.9758 H       
  46 H46            0.8624    -2.1719    -0.2860 H       
  47 H47           -4.1630    -4.7124     1.4964 H       
  48 H48           -4.2093    -6.8914     3.3408 H       
  49 H49           -2.6205    -8.2332     4.6746 H       
  50 H50           -0.2287    -7.8111     4.6119 H       
  51 H51            0.7269    -6.0243     3.2143 H       
@<TRIPOS>BOND
   1    1    2 2
   2    1    9 1
   3    1    6 1
   4    2    3 1
   5    2   28 1
   6    3    4 2
   7    3   15 1
   8    4    5 1
   9    4   29 1
  10    5    8 1
  11    5    6 am
  12    6    7 2
  13    8   11 1
  14    8   30 1
  15    8   31 1
  16    9   10 3
  17   11   12 1
  18   11   32 1
  19   11   33 1
  20   12   13 1
  21   12   14 1
  22   12   34 1
  23   13   35 1
  24   13   36 1
  25   13   37 1
  26   14   38 1
  27   14   39 1
  28   14   40 1
  29   15   16 1
  30   15   20 1
  31   16   17 1
  32   16   41 1
  33   16   42 1
  34   17   18 2
  35   17   21 1
  36   18   19 1
  37   18   23 1
  38   19   20 1
  39   19   43 1
  40   19   44 1
  41   20   45 1
  42   20   46 1
  43   21   22 1
  44   21   47 1
  45   22   23 ar
  46   22   24 ar
  47   23   27 ar
  48   24   25 ar
  49   24   48 1
  50   25   26 ar
  51   25   49 1
  52   26   27 ar
  53   26   50 1
  54   27   51 1

#	End of record

