#	Name: ASD01915203
#	Creating user name:	WinNT
#	Creation time:	15. 06. 2019 20:05

#	Modifying user name:	WinNT
#	Modification time:	15. 06. 2019 20:05

#	Program:	/corina/corina34_cracker 3.40 0067  02.08.2006

@<TRIPOS>MOLECULE
ASD01915203
  26   27    0    0    0
SMALL
NO_CHARGES


@<TRIPOS>ATOM
   1 C1            -0.0169     1.3911    -0.0069 C.ar    
   2 C2             0.0028    -0.0053    -0.0148 C.ar    
   3 C3            -1.1837    -0.7164    -0.0156 C.ar    
   4 C4            -2.3952    -0.0501    -0.0090 C.ar    
   5 C5            -2.4271     1.3468    -0.0010 C.ar    
   6 C6            -1.2348     2.0681     0.0061 C.ar    
   7 F7            -1.1586    -2.0671    -0.0233 F       
   8 C8             1.2520     2.1495    -0.0061 C.2     
   9 N9             2.4293     1.4934    -0.0131 N.am    
  10 O10            1.2336     3.3649     0.0008 O.2     
  11 C11            3.6234     2.2049    -0.1260 C.ar    
  12 C12            4.7753     1.7780     0.5333 C.ar    
  13 C13            5.9366     2.5096     0.3956 C.ar    
  14 N14            5.9652     3.5997    -0.3477 N.ar    
  15 C15            4.8964     4.0361    -0.9872 C.ar    
  16 C16            3.6978     3.3582    -0.9057 C.ar    
  17 C17           -3.6824     2.0357     0.0059 C.1     
  18 N18           -4.6783     2.5823     0.0113 N.1     
  19 H19            0.9462    -0.5309    -0.0207 H       
  20 H20           -3.3185    -0.6103    -0.0103 H       
  21 H21           -1.2545     3.1479     0.0123 H       
  22 H22            2.4460     0.5263     0.0604 H       
  23 H23            4.7585     0.8872     1.1437 H       
  24 H24            6.8336     2.1864     0.9027 H       
  25 H25            4.9621     4.9329    -1.5853 H       
  26 H26            2.8270     3.7205    -1.4319 H       
@<TRIPOS>BOND
   1    1    2 ar
   2    1    8 1
   3    1    6 ar
   4    2    3 ar
   5    2   19 1
   6    3    4 ar
   7    3    7 1
   8    4    5 ar
   9    4   20 1
  10    5    6 ar
  11    5   17 1
  12    6   21 1
  13    8    9 am
  14    8   10 2
  15    9   11 1
  16    9   22 1
  17   11   12 ar
  18   11   16 ar
  19   12   13 ar
  20   12   23 1
  21   13   14 ar
  22   13   24 1
  23   14   15 ar
  24   15   16 ar
  25   15   25 1
  26   16   26 1
  27   17   18 3

#	End of record

