#	Name: ASD03731718
#	Creating user name:	WinNT
#	Creation time:	15. 06. 2019 20:46

#	Modifying user name:	WinNT
#	Modification time:	15. 06. 2019 20:46

#	Program:	/corina/corina34_cracker 3.40 0067  02.08.2006

@<TRIPOS>MOLECULE
ASD03731718
  47   49    0    0    0
SMALL
NO_CHARGES


@<TRIPOS>ATOM
   1 C1             4.7414    -7.0631    -0.9532 C.2     
   2 C2             3.5079    -6.2906    -0.7072 C.ar    
   3 C3             2.8486    -5.6666    -1.7697 C.ar    
   4 C4             1.6980    -4.9473    -1.5363 C.ar    
   5 C5             1.1920    -4.8413    -0.2458 C.ar    
   6 C6             1.8450    -5.4607     0.8138 C.ar    
   7 C7             2.9933    -6.1862     0.5878 C.ar    
   8 O8             5.1850    -7.1571    -2.0813 O.2     
   9 N9             5.3789    -7.6595     0.0736 N.am    
  10 S10            6.7628    -8.5262    -0.2023 S.o2    
  11 O11            7.1293    -9.0185     1.0793 O.2     
  12 O12            6.4161    -9.4139    -1.2564 O.2     
  13 C13            7.9622    -7.2928    -0.7774 C.3     
  14 O14            0.0581    -4.1312    -0.0197 O.3     
  15 C15           -1.1321    -4.7814    -0.1160 C.ar    
  16 C16           -1.1586    -6.1519    -0.3297 C.ar    
  17 C17           -2.3677    -6.8124    -0.4270 C.ar    
  18 C18           -3.5555    -6.1054    -0.3115 C.ar    
  19 C19           -3.5291    -4.7350    -0.0983 C.ar    
  20 C20           -2.3201    -4.0753     0.0052 C.ar    
  21 O21           -4.7457    -6.7556    -0.4078 O.3     
  22 C22           -5.9292    -5.9650    -0.2792 C.3     
  23 C23           -7.1415    -6.8502    -0.4121 C.ar    
  24 C24           -7.6924    -7.4408     0.7098 C.ar    
  25 C25           -8.8045    -8.2528     0.5880 C.ar    
  26 C26           -9.3659    -8.4739    -0.6557 C.ar    
  27 C27           -8.8156    -7.8826    -1.7775 C.ar    
  28 C28           -7.7061    -7.0671    -1.6551 C.ar    
  29 H29            3.2413    -5.7482    -2.7725 H       
  30 H30            1.1881    -4.4645    -2.3569 H       
  31 H31            1.4491    -5.3758     1.8151 H       
  32 H32            3.4977    -6.6705     1.4108 H       
  33 H33            5.0271    -7.5812     0.9742 H       
  34 H34            8.1031    -6.5358    -0.0059 H       
  35 H35            8.9142    -7.7812    -0.9854 H       
  36 H36            7.5900    -6.8203    -1.6864 H       
  37 H37           -0.2338    -6.7023    -0.4204 H       
  38 H38           -2.3883    -7.8793    -0.5934 H       
  39 H39           -4.4540    -4.1846    -0.0090 H       
  40 H40           -2.2996    -3.0091     0.1757 H       
  41 H41           -5.9382    -5.4806     0.6971 H       
  42 H42           -5.9459    -5.2062    -1.0615 H       
  43 H43           -7.2538    -7.2681     1.6815 H       
  44 H44           -9.2344    -8.7148     1.4644 H       
  45 H45          -10.2343    -9.1089    -0.7510 H       
  46 H46           -9.2541    -8.0556    -2.7492 H       
  47 H47           -7.2784    -6.6022    -2.5310 H       
@<TRIPOS>BOND
   1    1    2 1
   2    1    8 2
   3    1    9 am
   4    2    3 ar
   5    2    7 ar
   6    3    4 ar
   7    3   29 1
   8    4    5 ar
   9    4   30 1
  10    5    6 ar
  11    5   14 1
  12    6    7 ar
  13    6   31 1
  14    7   32 1
  15    9   10 am
  16    9   33 1
  17   10   11 2
  18   10   12 2
  19   10   13 1
  20   13   34 1
  21   13   35 1
  22   13   36 1
  23   14   15 1
  24   15   16 ar
  25   15   20 ar
  26   16   17 ar
  27   16   37 1
  28   17   18 ar
  29   17   38 1
  30   18   19 ar
  31   18   21 1
  32   19   20 ar
  33   19   39 1
  34   20   40 1
  35   21   22 1
  36   22   23 1
  37   22   41 1
  38   22   42 1
  39   23   24 ar
  40   23   28 ar
  41   24   25 ar
  42   24   43 1
  43   25   26 ar
  44   25   44 1
  45   26   27 ar
  46   26   45 1
  47   27   28 ar
  48   27   46 1
  49   28   47 1

#	End of record

