#	Name: ASD05130045
#	Creating user name:	WinNT
#	Creation time:	15. 06. 2019 20:56

#	Modifying user name:	WinNT
#	Modification time:	15. 06. 2019 20:56

#	Program:	/corina/corina34_cracker 3.40 0067  02.08.2006

@<TRIPOS>MOLECULE
ASD05130045
  51   54    0    0    0
SMALL
NO_CHARGES


@<TRIPOS>ATOM
   1 N1            -0.1614     1.5505     0.1052 N.am    
   2 C2             0.0487     0.4219     0.8112 C.2     
   3 O3             1.1150     0.2422     1.3672 O.2     
   4 N4            -0.9231    -0.5076     0.9009 N.am    
   5 C5            -0.6700    -1.7247     1.5434 C.ar    
   6 C6            -1.6823    -2.3630     2.2475 C.ar    
   7 C7            -1.4287    -3.5658     2.8815 C.ar    
   8 C8            -0.1664    -4.1323     2.8138 C.ar    
   9 C9             0.8419    -3.4976     2.1131 C.ar    
  10 C10            0.5923    -2.2989     1.4733 C.ar    
  11 F11           -2.4123    -4.1881     3.5675 F       
  12 C12            0.8143     2.5561     0.0849 C.ar    
  13 C13            0.4399     3.8856    -0.0865 C.ar    
  14 C14            1.4003     4.8814    -0.1070 C.ar    
  15 C15            2.7360     4.5609     0.0421 C.ar    
  16 C16            3.1191     3.2302     0.2143 C.ar    
  17 C17            2.1508     2.2276     0.2411 C.ar    
  18 F18           -0.8647     4.2046    -0.2336 F       
  19 Cl19           3.9375     5.8136     0.0145 Cl      
  20 N20            6.5405     2.8411     1.7844 N.am    
  21 C21            5.2384     3.1557     1.6384 C.2     
  22 C22            4.5510     2.8843     0.3738 C.2     
  23 C23            5.2395     2.3089    -0.6590 C.2     
  24 C24            6.6062     1.9877    -0.4811 C.ar    
  25 C25            7.3494     1.3982    -1.5112 C.ar    
  26 N26            8.6188     1.1064    -1.3295 N.ar    
  27 C27            9.2447     1.3517    -0.1833 C.ar    
  28 C28            8.5833     1.9335     0.8889 C.ar    
  29 C29            7.2399     2.2622     0.7506 C.ar    
  30 O30            4.6307     3.6676     2.5617 O.2     
  31 C31            7.2184     3.1231     3.0522 C.3     
  32 C32            7.0841     1.9156     3.9820 C.3     
  33 N33           10.5856     1.0191    -0.0559 N.pl3   
  34 H34           -0.9862     1.6650    -0.3922 H       
  35 H35           -1.7979    -0.3330     0.5200 H       
  36 H36           -2.6662    -1.9207     2.3004 H       
  37 H37            0.0304    -5.0714     3.3096 H       
  38 H38            1.8251    -3.9416     2.0620 H       
  39 H39            1.3799    -1.8065     0.9222 H       
  40 H40            1.1052     5.9117    -0.2402 H       
  41 H41            2.4424     1.1969     0.3786 H       
  42 H42            4.7465     2.1022    -1.5974 H       
  43 H43            6.8781     1.1821    -2.4586 H       
  44 H44            9.1037     2.1279     1.8151 H       
  45 H45            8.2736     3.3210     2.8638 H       
  46 H46            6.7633     3.9954     3.5213 H       
  47 H47            7.5392     1.0433     3.5129 H       
  48 H48            7.5884     2.1254     4.9252 H       
  49 H49            6.0289     1.7177     4.1704 H       
  50 H50           11.0570     0.6118    -0.7993 H       
  51 H51           11.0516     1.1940     0.7766 H       
@<TRIPOS>BOND
   1    1    2 am
   2    1   12 1
   3    1   34 1
   4    2    3 2
   5    2    4 am
   6    4    5 1
   7    4   35 1
   8    5    6 ar
   9    5   10 ar
  10    6    7 ar
  11    6   36 1
  12    7    8 ar
  13    7   11 1
  14    8    9 ar
  15    8   37 1
  16    9   10 ar
  17    9   38 1
  18   10   39 1
  19   12   13 ar
  20   12   17 ar
  21   13   14 ar
  22   13   18 1
  23   14   15 ar
  24   14   40 1
  25   15   16 ar
  26   15   19 1
  27   16   17 ar
  28   16   22 1
  29   17   41 1
  30   20   21 am
  31   20   29 1
  32   20   31 1
  33   21   22 1
  34   21   30 2
  35   22   23 2
  36   23   24 1
  37   23   42 1
  38   24   25 ar
  39   24   29 ar
  40   25   26 ar
  41   25   43 1
  42   26   27 ar
  43   27   28 ar
  44   27   33 1
  45   28   29 ar
  46   28   44 1
  47   31   32 1
  48   31   45 1
  49   31   46 1
  50   32   47 1
  51   32   48 1
  52   32   49 1
  53   33   50 1
  54   33   51 1

#	End of record

