#	Name: ASD01420205
#	Creating user name:	WinNT
#	Creation time:	15. 06. 2019 19:20

#	Modifying user name:	WinNT
#	Modification time:	15. 06. 2019 19:20

#	Program:	/corina/corina34_cracker 3.40 0067  02.08.2006

@<TRIPOS>MOLECULE
ASD01420205
  53   55    0    0    0
SMALL
NO_CHARGES


@<TRIPOS>ATOM
   1 C1            -0.0179     1.4677     0.0101 C.2     
   2 C2             0.0021    -0.0041     0.0020 C.ar    
   3 C3             1.2273    -0.6914    -0.0134 C.ar    
   4 C4             1.2454    -2.0760    -0.0215 C.ar    
   5 C5             0.0577    -2.7881    -0.0145 C.ar    
   6 C6            -1.1713    -2.1093     0.0009 C.ar    
   7 C7            -1.1964    -0.7200     0.0154 C.ar    
   8 O8             1.0263     2.0896     0.0035 O.2     
   9 O9            -1.1942     2.1256     0.0193 O.3     
  10 C10           -2.4368    -2.8715     0.0078 C.2     
  11 C11           -2.8616    -3.4616    -1.1013 C.2     
  12 C12           -3.2449    -2.9786     1.2753 C.3     
  13 O13            0.0816    -4.1443    -0.0229 O.3     
  14 C14            1.3661    -4.7703    -0.0390 C.3     
  15 C15            1.1951    -6.2676    -0.0464 C.ar    
  16 C16            1.1052    -6.9470    -1.2469 C.ar    
  17 C17            0.9483    -8.3204    -1.2538 C.ar    
  18 C18            0.8817    -9.0144    -0.0601 C.ar    
  19 C19            0.9725    -8.3351     1.1404 C.ar    
  20 C20            1.1337    -6.9622     1.1471 C.ar    
  21 O21            2.3930     0.0016    -0.0207 O.3     
  22 C22            3.6012    -0.7613    -0.0364 C.3     
  23 C23            4.7845     0.1719    -0.0426 C.ar    
  24 C24            5.3386     0.5934     1.1516 C.ar    
  25 C25            6.4240     1.4494     1.1459 C.ar    
  26 C26            6.9555     1.8836    -0.0540 C.ar    
  27 C27            6.4020     1.4613    -1.2483 C.ar    
  28 C28            5.3193     0.6019    -1.2426 C.ar    
  29 C29           -1.1378     3.5765     0.0269 C.3     
  30 H30            2.1886    -2.6020    -0.0337 H       
  31 H31           -2.1404    -0.1955     0.0318 H       
  32 H32           -2.2824    -3.3848    -2.0096 H       
  33 H33           -3.7867    -4.0188    -1.0962 H       
  34 H34           -3.9543    -2.1526     1.3248 H       
  35 H35           -3.7872    -3.9241     1.2816 H       
  36 H36           -2.5778    -2.9367     2.1362 H       
  37 H37            1.9093    -4.4622    -0.9323 H       
  38 H38            1.9263    -4.4730     0.8475 H       
  39 H39            1.1573    -6.4048    -2.1795 H       
  40 H40            0.8774    -8.8511    -2.1917 H       
  41 H41            0.7584   -10.0873    -0.0655 H       
  42 H42            0.9201    -8.8772     2.0729 H       
  43 H43            1.2084    -6.4318     2.0850 H       
  44 H44            3.6425    -1.3946     0.8498 H       
  45 H45            3.6255    -1.3849    -0.9300 H       
  46 H46            4.9233     0.2542     2.0891 H       
  47 H47            6.8564     1.7793     2.0789 H       
  48 H48            7.8031     2.5529    -0.0585 H       
  49 H49            6.8170     1.8008    -2.1858 H       
  50 H50            4.8891     0.2690    -2.1756 H       
  51 H51           -0.6061     3.9148     0.9162 H       
  52 H52           -0.6145     3.9245    -0.8637 H       
  53 H53           -2.1506     3.9794     0.0339 H       
@<TRIPOS>BOND
   1    1    2 1
   2    1    8 2
   3    1    9 1
   4    2    3 ar
   5    2    7 ar
   6    3    4 ar
   7    3   21 1
   8    4    5 ar
   9    4   30 1
  10    5    6 ar
  11    5   13 1
  12    6    7 ar
  13    6   10 1
  14    7   31 1
  15    9   29 1
  16   10   11 2
  17   10   12 1
  18   11   32 1
  19   11   33 1
  20   12   34 1
  21   12   35 1
  22   12   36 1
  23   13   14 1
  24   14   15 1
  25   14   37 1
  26   14   38 1
  27   15   16 ar
  28   15   20 ar
  29   16   17 ar
  30   16   39 1
  31   17   18 ar
  32   17   40 1
  33   18   19 ar
  34   18   41 1
  35   19   20 ar
  36   19   42 1
  37   20   43 1
  38   21   22 1
  39   22   23 1
  40   22   44 1
  41   22   45 1
  42   23   24 ar
  43   23   28 ar
  44   24   25 ar
  45   24   46 1
  46   25   26 ar
  47   25   47 1
  48   26   27 ar
  49   26   48 1
  50   27   28 ar
  51   27   49 1
  52   28   50 1
  53   29   51 1
  54   29   52 1
  55   29   53 1

#	End of record

