#	Name: ASD00470003
#	Creating user name:	WinNT
#	Creation time:	15. 06. 2019 18:36

#	Modifying user name:	WinNT
#	Modification time:	15. 06. 2019 18:36

#	Program:	/corina/corina34_cracker 3.40 0067  02.08.2006

@<TRIPOS>MOLECULE
ASD00470003
  55   57    0    0    0
SMALL
NO_CHARGES


@<TRIPOS>ATOM
   1 C1            -0.0168     1.3884     0.0097 C.ar    
   2 C2             0.0021    -0.0041     0.0020 C.ar    
   3 N3            -1.2103    -0.7120    -0.0022 N.am    
   4 C4            -2.1596    -0.4060    -0.8952 C.2     
   5 C5            -1.8737     0.5154    -2.0435 C.3     
   6 C6            -2.1854     1.9708    -1.6576 C.3     
   7 S7            -1.5648     2.2323     0.0381 S.3     
   8 C8            -1.4362    -1.7849     0.9695 C.3     
   9 C9             1.1728     2.0996     0.0021 C.ar    
  10 C10            2.3771     1.4192    -0.0074 C.ar    
  11 C11            2.3962     0.0363    -0.0101 C.ar    
  12 C12            1.2118    -0.6787    -0.0051 C.ar    
  13 C13           -2.0757    -1.2033     2.2319 C.3     
  14 N14           -2.3022    -2.2791     3.2062 N.3     
  15 C15           -1.0285    -2.8339     3.6835 C.3     
  16 C16           -3.1248    -1.8083     4.3285 C.3     
  17 O17           -3.2686    -0.8820    -0.7738 O.2     
  18 O18           -0.4725     0.4061    -2.4081 O.3     
  19 C19           -0.1529    -0.5153    -3.3304 C.2     
  20 O20           -1.0154    -1.2075    -3.8170 O.2     
  21 C21            1.2817    -0.6864    -3.7590 C.3     
  22 C22           -1.4914     2.9122    -2.6079 C.ar    
  23 C23           -2.2337     3.7975    -3.3675 C.ar    
  24 C24           -1.5999     4.6616    -4.2393 C.ar    
  25 C25           -0.2173     4.6404    -4.3524 C.ar    
  26 C26            0.5252     3.7512    -3.5892 C.ar    
  27 C27           -0.1130     2.8931    -2.7147 C.ar    
  28 O28            0.4085     5.4891    -5.2097 O.3     
  29 C29            1.8339     5.4118    -5.2741 C.3     
  30 H30           -2.4898     0.2295    -2.8960 H       
  31 H31           -3.2618     2.1395    -1.6881 H       
  32 H32           -2.1008    -2.5327     0.5370 H       
  33 H33           -0.4840    -2.2495     1.2256 H       
  34 H34            1.1595     3.1795     0.0033 H       
  35 H35            3.3060     1.9700    -0.0130 H       
  36 H36            3.3404    -0.4880    -0.0159 H       
  37 H37            1.2304    -1.7586    -0.0074 H       
  38 H38           -1.4111    -0.4554     2.6644 H       
  39 H39           -3.0278    -0.7386     1.9758 H       
  40 H40           -0.4456    -2.0465     4.1614 H       
  41 H41           -1.2252    -3.6283     4.4035 H       
  42 H42           -0.4695    -3.2385     2.8397 H       
  43 H43           -4.0899    -1.4673     3.9537 H       
  44 H44           -3.2771    -2.6244     5.0348 H       
  45 H45           -2.6179    -0.9838     4.8298 H       
  46 H46            1.9099     0.0196    -3.2157 H       
  47 H47            1.6070    -1.7038    -3.5419 H       
  48 H48            1.3660    -0.4986    -4.8294 H       
  49 H49           -3.3100     3.8134    -3.2793 H       
  50 H50           -2.1802     5.3527    -4.8327 H       
  51 H51            1.6016     3.7328    -3.6755 H       
  52 H52            0.4646     2.2007    -2.1203 H       
  53 H53            2.2542     5.6256    -4.2914 H       
  54 H54            2.1297     4.4100    -5.5856 H       
  55 H55            2.2052     6.1407    -5.9945 H       
@<TRIPOS>BOND
   1    1    2 ar
   2    1    9 ar
   3    1    7 1
   4    2    3 1
   5    2   12 ar
   6    3    4 am
   7    3    8 1
   8    4    5 1
   9    4   17 2
  10    5    6 1
  11    5   18 1
  12    5   30 1
  13    6    7 1
  14    6   22 1
  15    6   31 1
  16    8   13 1
  17    8   32 1
  18    8   33 1
  19    9   10 ar
  20    9   34 1
  21   10   11 ar
  22   10   35 1
  23   11   12 ar
  24   11   36 1
  25   12   37 1
  26   13   14 1
  27   13   38 1
  28   13   39 1
  29   14   15 1
  30   14   16 1
  31   15   40 1
  32   15   41 1
  33   15   42 1
  34   16   43 1
  35   16   44 1
  36   16   45 1
  37   18   19 1
  38   19   20 2
  39   19   21 1
  40   21   46 1
  41   21   47 1
  42   21   48 1
  43   22   23 ar
  44   22   27 ar
  45   23   24 ar
  46   23   49 1
  47   24   25 ar
  48   24   50 1
  49   25   26 ar
  50   25   28 1
  51   26   27 ar
  52   26   51 1
  53   27   52 1
  54   28   29 1
  55   29   53 1
  56   29   54 1
  57   29   55 1

#	End of record

