#	Name: ASD07110019
#	Creating user name:	WinNT
#	Creation time:	15. 06. 2019 21:09

#	Modifying user name:	WinNT
#	Modification time:	15. 06. 2019 21:09

#	Program:	/corina/corina34_cracker 3.40 0067  02.08.2006

@<TRIPOS>MOLECULE
ASD07110019
 437  445    0    0    0
SMALL
NO_CHARGES


@<TRIPOS>ATOM
   1 C1           -22.7277   -10.0685   -41.9061 C.2     
   2 O2           -23.1265   -11.2017   -41.7396 O.2     
   3 N3           -24.6417    -9.8273   -43.3838 N.3     
   4 C4           -23.4758    -9.1332   -42.8208 C.3     
   5 C5           -21.6386   -10.9057   -39.1838 C.2     
   6 O6           -22.8100   -10.5975   -39.1213 O.2     
   7 N7           -21.6187    -9.6440   -41.2688 N.am    
   8 C8           -20.7996   -10.4458   -40.3481 C.3     
   9 C9           -19.6557    -9.5400   -39.8453 C.3     
  10 C10          -20.2185    -8.1118   -40.0712 C.3     
  11 C11          -21.0223    -8.3007   -41.3844 C.3     
  12 C12          -21.0135   -12.3669   -35.8918 C.2     
  13 O13          -19.8161   -12.1959   -35.9815 O.2     
  14 N14          -21.0873   -11.6594   -38.2120 N.am    
  15 C15          -21.9029   -12.1065   -37.0801 C.3     
  16 C16          -22.6385   -13.3936   -37.4585 C.3     
  17 O17          -21.6885   -14.4387   -37.6760 O.3     
  18 C18          -21.3483   -14.0380   -32.6579 C.2     
  19 O19          -22.5512   -14.1880   -32.6956 O.2     
  20 N20          -21.5486   -12.7899   -34.7294 N.am    
  21 C21          -20.6839   -13.0431   -33.5742 C.3     
  22 C22          -20.4456   -11.7341   -32.8188 C.3     
  23 C23          -19.6197   -10.7856   -33.6900 C.3     
  24 C24          -19.5309    -9.4171   -33.0116 C.3     
  25 C25          -18.2120   -11.3565   -33.8727 C.3     
  26 C26          -18.5485   -15.1868   -33.0319 C.2     
  27 O27          -19.2761   -15.4263   -33.9722 O.2     
  28 N28          -20.6058   -14.7613   -31.7965 N.am    
  29 C29          -19.1378   -14.7532   -31.7144 C.3     
  30 C30          -18.7354   -15.7491   -30.6064 C.3     
  31 C31          -19.9713   -16.6824   -30.5123 C.3     
  32 C32          -21.1312   -15.6866   -30.7761 C.3     
  33 C33          -16.7591   -17.3352   -34.4204 C.2     
  34 O34          -17.2639   -17.9116   -33.4802 O.2     
  35 N35          -17.2129   -15.3084   -33.1653 N.am    
  36 C36          -16.6458   -15.8325   -34.4103 C.3     
  37 C37          -15.1725   -15.4315   -34.5081 C.3     
  38 C38          -15.0662   -13.9323   -34.6189 C.2     
  39 C39          -14.9876   -13.2191   -35.7533 C.2     
  40 N40          -14.9037   -11.8850   -35.4609 N.pl3   
  41 C41          -14.9268   -11.7026   -34.0963 C.ar    
  42 C42          -14.8716   -10.5782   -33.2795 C.ar    
  43 C43          -14.9181   -10.7243   -31.9101 C.ar    
  44 C44          -15.0196   -11.9836   -31.3356 C.ar    
  45 C45          -15.0748   -13.1018   -32.1193 C.ar    
  46 C46          -15.0355   -12.9766   -33.5091 C.ar    
  47 C47          -15.3464   -20.0773   -36.3820 C.2     
  48 O48          -14.8994   -19.4166   -37.2956 O.2     
  49 N49          -16.2995   -18.0386   -35.4742 N.am    
  50 C50          -16.4097   -19.4994   -35.4840 C.3     
  51 C51          -17.7909   -19.9032   -36.0038 C.3     
  52 C52          -18.8453   -19.4674   -35.0191 C.ar    
  53 C53          -19.4224   -18.2163   -35.1345 C.ar    
  54 C54          -20.3888   -17.8144   -34.2329 C.ar    
  55 C55          -20.7804   -18.6674   -33.2114 C.ar    
  56 O56          -21.7313   -18.2745   -32.3234 O.3     
  57 C57          -20.2001   -19.9224   -33.0980 C.ar    
  58 C58          -19.2379   -20.3217   -34.0053 C.ar    
  59 C59          -14.5022   -22.1844   -38.4181 C.2     
  60 O60          -15.5930   -21.7227   -38.6785 O.2     
  61 N61          -14.8921   -21.3283   -36.1698 N.am    
  62 C62          -13.9403   -22.0510   -37.0261 C.3     
  63 C63          -13.7366   -23.4495   -36.4062 C.3     
  64 C64          -15.0163   -23.6397   -35.5497 C.3     
  65 C65          -15.2623   -22.1963   -35.0372 C.3     
  66 C66          -13.3564   -23.6881   -41.5961 C.2     
  67 O67          -12.3036   -24.0708   -41.1312 O.2     
  68 N68          -13.7925   -22.8168   -39.3736 N.am    
  69 C69          -14.3388   -22.9465   -40.7267 C.3     
  70 C70          -11.6255   -23.8783   -44.2310 C.2     
  71 O71          -11.5866   -22.6990   -43.9506 O.2     
  72 N72          -13.6477   -23.9263   -42.8903 N.am    
  73 C73          -12.7443   -24.7410   -43.7066 C.3     
  74 C74          -13.5197   -25.3407   -44.8814 C.3     
  75 C75          -14.5389   -26.3218   -44.3622 C.2     
  76 O76          -14.5662   -26.5993   -43.1865 O.2     
  77 O77          -15.4165   -26.8874   -45.2058 O.3     
  78 C78           -9.8986   -22.7952   -46.6444 C.2     
  79 O79          -11.0138   -22.8856   -47.1125 O.2     
  80 N80          -10.6682   -24.4173   -45.0117 N.am    
  81 C81           -9.5225   -23.6063   -45.4313 C.3     
  82 C82           -8.3472   -24.5235   -45.7753 C.3     
  83 C83           -7.8720   -25.2208   -44.5267 C.2     
  84 O84           -8.3468   -24.9300   -43.4544 O.2     
  85 O85           -6.9213   -26.1651   -44.6059 O.3     
  86 C86           -8.1192   -20.8458   -49.1736 C.2     
  87 O87           -7.0336   -20.8777   -48.6338 O.2     
  88 N88           -8.9956   -21.9693   -47.2092 N.am    
  89 C89           -9.3612   -21.1808   -48.3885 C.3     
  90 C90          -10.0481   -19.8877   -47.9446 C.3     
  91 C91          -11.3973   -20.2207   -47.3045 C.3     
  92 C92          -12.0738   -18.9471   -46.8672 C.2     
  93 O93          -11.5304   -17.8783   -47.0495 O.2     
  94 N94          -13.2828   -18.9958   -46.2735 N.am    
  95 C95           -6.4939   -18.8081   -50.7561 C.2     
  96 O96           -6.9373   -18.3296   -49.7337 O.2     
  97 N97           -8.2149   -20.5108   -50.4756 N.am    
  98 C98           -7.1049   -20.0612   -51.3284 C.3     
  99 C99           -7.6904   -19.7686   -52.7260 C.3     
 100 C100          -9.1942   -19.5281   -52.4294 C.3     
 101 C101          -9.4486   -20.5407   -51.2820 C.3     
 102 C102          -4.1944   -16.2185   -51.9263 C.2     
 103 O103          -4.1058   -16.6931   -53.0388 O.2     
 104 N104          -5.4548   -18.2192   -51.3805 N.am    
 105 C105          -4.8609   -17.0010   -50.8242 C.3     
 106 C106          -3.8220   -17.3775   -49.7659 C.3     
 107 C107          -4.5164   -18.0777   -48.5960 C.3     
 108 C108          -2.7853   -18.3195   -50.3813 C.3     
 109 C109          -2.0194   -13.2843   -52.0775 C.2     
 110 O110          -1.9701   -13.1893   -50.8694 O.2     
 111 N111          -3.6967   -14.9914   -51.6755 N.am    
 112 C112          -2.9596   -14.2728   -52.7178 C.3     
 113 C113          -3.9464   -13.5280   -53.6191 C.3     
 114 C114          -4.8194   -14.5393   -54.3648 C.3     
 115 C115          -5.7914   -13.8057   -55.2525 C.2     
 116 O116          -5.7864   -12.5979   -55.2854 O.2     
 117 O117          -6.6627   -14.4941   -56.0067 O.3     
 118 C118          -0.8842   -10.3013   -51.8946 C.2     
 119 O119          -2.0544   -10.1138   -52.1521 O.2     
 120 N120          -1.2335   -12.5057   -52.8474 N.am    
 121 C121          -0.2423   -11.6239   -52.2260 C.3     
 122 C122           0.9190   -11.3983   -53.1963 C.3     
 123 C123           1.6619   -12.6934   -53.4004 C.2     
 124 O124           1.2519   -13.7113   -52.8947 O.2     
 125 O125           2.7793   -12.7162   -54.1438 O.3     
 126 C126           0.2750    -6.9680   -50.9418 C.2     
 127 O127           1.4352    -7.2493   -51.1555 O.2     
 128 N128          -0.1578    -9.3269   -51.3121 N.am    
 129 C129          -0.7818    -8.0412   -50.9899 C.3     
 130 C130          -1.4738    -8.1370   -49.6287 C.3     
 131 C131          -2.6283    -9.1375   -49.7128 C.3     
 132 C132          -3.2411    -9.3270   -48.3237 C.3     
 133 C133          -3.6948    -8.6061   -50.6725 C.3     
 134 C134           0.4913    -3.5268   -49.7274 C.2     
 135 O135          -0.5928    -3.5901   -49.1874 O.2     
 136 N136          -0.0692    -5.6954   -50.6612 N.am    
 137 C137           0.9582    -4.6521   -50.6144 C.3     
 138 C138           1.2079    -4.1185   -52.0264 C.3     
 139 C139           1.7996    -5.2306   -52.8947 C.3     
 140 C140           2.0455    -4.7050   -54.2855 C.2     
 141 O141           1.7752    -3.5585   -54.5546 O.2     
 142 O142           2.5649    -5.5104   -55.2253 O.3     
 143 C143           1.5162    -0.0791   -49.0744 C.2     
 144 O144           2.3099    -0.0825   -49.9914 O.2     
 145 N145           1.2786    -2.4501   -49.5341 N.am    
 146 C146           0.8247    -1.3562   -48.6717 C.3     
 147 C147           1.1620    -1.6814   -47.2152 C.3     
 148 C148           0.3631    -2.9073   -46.7682 C.3     
 149 C149           0.7004    -3.2324   -45.3117 C.3     
 150 N150          -0.0646    -4.4063   -44.8837 N.pl3   
 151 C151           0.0747    -4.8882   -43.6036 C.2     
 152 N152           0.8873    -4.3007   -42.7709 N.2     
 153 N153          -0.6432    -5.9897   -43.2019 N.pl3   
 154 C154           1.9679     3.2485   -47.6302 C.2     
 155 O155           1.4848     2.9147   -46.5691 O.2     
 156 N156           1.2525     1.0666   -48.4155 N.am    
 157 C157           1.9247     2.3081   -48.8070 C.3     
 158 C158           1.1560     2.9638   -49.9560 C.3     
 159 C159           1.2175     2.0764   -51.1724 C.ar    
 160 C160           0.2450     1.1156   -51.3770 C.ar    
 161 C161           0.3014     0.3016   -52.4928 C.ar    
 162 C162           1.3302     0.4487   -53.4044 C.ar    
 163 C163           2.3022     1.4102   -53.2003 C.ar    
 164 C164           2.2434     2.2271   -52.0867 C.ar    
 165 C165           1.1729     6.1503   -46.6820 C.2     
 166 O166           0.3604     5.8989   -47.5466 O.2     
 167 N167           2.5434     4.4606   -47.7571 N.am    
 168 C168           2.4890     5.4169   -46.6486 C.3     
 169 C169           3.6358     6.4206   -46.7842 C.3     
 170 C170           4.9505     5.7108   -46.5880 C.2     
 171 O171           4.9741     4.5067   -46.4447 O.2     
 172 N172           6.1002     6.4140   -46.5717 N.am    
 173 C173          -0.4265     8.9181   -46.6309 C.2     
 174 O174           0.5737     9.2128   -47.2502 O.2     
 175 N175           0.8989     7.0856   -45.7510 N.am    
 176 C176          -0.4211     7.7201   -45.7167 C.3     
 177 C177          -0.7348     8.1678   -44.2876 C.3     
 178 C178          -0.8815     6.9568   -43.4027 C.2     
 179 O179          -0.8529     5.8451   -43.8866 O.2     
 180 N180          -1.0447     7.1092   -42.0736 N.am    
 181 C181          -2.3642    11.9402   -46.9167 C.2     
 182 O182          -2.9539    11.6930   -45.8861 O.2     
 183 N183          -1.5429     9.6620   -46.7604 N.am    
 184 C184          -1.5219    10.8787   -47.5761 C.3     
 185 C185          -2.0847    10.5711   -48.9652 C.3     
 186 C186          -3.4602     9.9160   -48.8247 C.3     
 187 C187          -4.4616    10.9421   -48.2907 C.3     
 188 C188          -1.1387     9.6186   -49.6993 C.3     
 189 C189          -3.7647    15.1565   -47.9448 C.2     
 190 O190          -3.3496    15.0381   -49.0782 O.2     
 191 N191          -2.4621    13.1642   -47.4721 N.am    
 192 C192          -3.3564    14.1654   -46.8855 C.3     
 193 C193          -2.6306    14.8975   -45.7549 C.3     
 194 C194          -2.3264    13.9138   -44.6232 C.3     
 195 C195          -1.4925    14.6146   -43.5488 C.3     
 196 C196          -3.6383    13.4208   -44.0095 C.3     
 197 C197          -5.3609    18.4445   -48.0109 C.2     
 198 O198          -5.3009    18.5597   -46.8051 O.2     
 199 N199          -4.5912    16.1743   -47.6327 N.am    
 200 C200          -4.9881    17.1377   -48.6625 C.3     
 201 C201          -6.1905    16.5919   -49.4353 C.3     
 202 C202          -5.7771    15.3315   -50.1979 C.3     
 203 C203          -7.0062    14.7157   -50.8695 C.3     
 204 C204          -4.7426    15.6969   -51.2643 C.3     
 205 C205          -7.0743    21.5091   -49.0285 C.2     
 206 O206          -7.4157    21.0321   -50.0900 O.2     
 207 N207          -5.7609    19.4851   -48.7682 N.am    
 208 C208          -6.1233    20.7554   -48.1348 C.3     
 209 C209          -4.8620    21.5921   -47.9115 C.3     
 210 C210          -3.9515    20.8838   -46.9063 C.3     
 211 C211          -2.7091    21.7079   -46.6864 C.2     
 212 O212          -2.5660    22.7583   -47.2755 O.2     
 213 N213          -1.7571    21.2776   -45.8349 N.am    
 214 C214          -7.6854    24.2349   -50.5334 C.2     
 215 O215          -6.4780    24.1899   -50.5321 O.2     
 216 N216          -7.5454    22.7132   -48.6482 N.am    
 217 C217          -8.4699    23.4458   -49.5170 C.3     
 218 C218          -9.3153    24.4008   -48.6719 C.3     
 219 C219         -10.1911    23.6048   -47.7390 C.ar    
 220 C220          -9.7305    23.2670   -46.4799 C.ar    
 221 C221         -10.5312    22.5370   -45.6230 C.ar    
 222 C222         -11.7987    22.1431   -46.0267 C.ar    
 223 O223         -12.5885    21.4252   -45.1854 O.3     
 224 C224         -12.2588    22.4836   -47.2904 C.ar    
 225 C225         -11.4562    23.2182   -48.1416 C.ar    
 226 O226          -8.3280    24.9877   -51.4400 O.3     
 227 H227         -25.1603    -9.2207   -44.0012 H       
 228 H228         -24.3645   -10.6740   -43.8576 H       
 229 H229         -23.8091    -8.2623   -42.2564 H       
 230 H230         -22.8186    -8.8126   -43.6291 H       
 231 H231         -20.3891   -11.3085   -40.8726 H       
 232 H232         -19.4618    -9.7152   -38.7871 H       
 233 H233         -18.7525    -9.6963   -40.4350 H       
 234 H234         -20.8701    -7.8142   -39.2496 H       
 235 H235         -19.4122    -7.3914   -40.2088 H       
 236 H236         -20.3591    -8.2531   -42.2481 H       
 237 H237         -21.8033    -7.5444   -41.4628 H       
 238 H238         -20.1505   -11.9058   -38.2619 H       
 239 H239         -22.6292   -11.3337   -36.8279 H       
 240 H240         -23.3126   -13.6778   -36.6505 H       
 241 H241         -23.2129   -13.2292   -38.3701 H       
 242 H242         -22.0851   -15.2862   -37.9201 H       
 243 H243         -22.5062   -12.9266   -34.6576 H       
 244 H244         -19.7297   -13.4444   -33.9156 H       
 245 H245         -21.4038   -11.2703   -32.5843 H       
 246 H246         -19.9062   -11.9409   -31.8945 H       
 247 H247         -20.0973   -10.6780   -34.6639 H       
 248 H248         -19.0533    -9.5246   -32.0378 H       
 249 H249         -18.9424    -8.7413   -33.6323 H       
 250 H250         -20.5338    -9.0103   -32.8815 H       
 251 H251         -18.2709   -12.3041   -34.4081 H       
 252 H252         -17.6060   -10.6533   -34.4440 H       
 253 H253         -17.7562   -11.5188   -32.8959 H       
 254 H254         -18.7861   -13.7528   -31.4625 H       
 255 H255         -17.8484   -16.3119   -30.8972 H       
 256 H256         -18.5715   -15.2299   -29.6621 H       
 257 H257         -19.9352   -17.4570   -31.2784 H       
 258 H258         -20.0544   -17.1218   -29.5183 H       
 259 H259         -21.3827   -15.1436   -29.8651 H       
 260 H260         -22.0050   -16.2150   -31.1573 H       
 261 H261         -16.6271   -15.0488   -32.4370 H       
 262 H262         -17.1914   -15.4212   -35.2595 H       
 263 H263         -14.6443   -15.7682   -33.6161 H       
 264 H264         -14.7280   -15.8934   -35.3897 H       
 265 H265         -14.9899   -13.6364   -36.7494 H       
 266 H266         -14.8377   -11.1738   -36.1172 H       
 267 H267         -14.7922    -9.5940   -33.7170 H       
 268 H268         -14.8748    -9.8500   -31.2775 H       
 269 H269         -15.0550   -12.0806   -30.2606 H       
 270 H270         -15.1534   -14.0785   -31.6652 H       
 271 H271         -15.8958   -17.5776   -36.2261 H       
 272 H272         -16.2768   -19.8806   -34.4715 H       
 273 H273         -17.9716   -19.4234   -36.9657 H       
 274 H274         -17.8315   -20.9857   -36.1243 H       
 275 H275         -19.1172   -17.5526   -35.9300 H       
 276 H276         -20.8389   -16.8368   -34.3231 H       
 277 H277         -22.6338   -18.4984   -32.5888 H       
 278 H278         -20.5030   -20.5882   -32.3034 H       
 279 H279         -18.7889   -21.3002   -33.9201 H       
 280 H280         -12.9912   -21.5159   -37.0594 H       
 281 H281         -13.6762   -24.2110   -37.1837 H       
 282 H282         -12.8460   -23.4668   -35.7779 H       
 283 H283         -15.8482   -23.9875   -36.1622 H       
 284 H284         -14.8329   -24.3214   -34.7192 H       
 285 H285         -14.6304   -21.9847   -34.1746 H       
 286 H286         -16.3130   -22.0589   -34.7816 H       
 287 H287         -12.9201   -23.1861   -39.1653 H       
 288 H288         -14.5164   -21.9550   -41.1434 H       
 289 H289         -15.2782   -23.4979   -40.6880 H       
 290 H290         -14.4555   -23.5582   -43.2812 H       
 291 H291         -12.3291   -25.5440   -43.0976 H       
 292 H292         -14.0266   -24.5444   -45.4264 H       
 293 H293         -12.8279   -25.8545   -45.5488 H       
 294 H294         -16.0512   -27.5105   -44.8263 H       
 295 H295         -10.7378   -25.3421   -45.2958 H       
 296 H296          -9.2355   -22.9363   -44.6209 H       
 297 H297          -8.6674   -25.2657   -46.5065 H       
 298 H298          -7.5334   -23.9302   -46.1922 H       
 299 H299          -6.6490   -26.5844   -43.7782 H       
 300 H300          -8.1037   -21.8970   -46.8349 H       
 301 H301         -10.0422   -21.7575   -49.0144 H       
 302 H302          -9.4188   -19.3727   -47.2187 H       
 303 H303         -10.2055   -19.2442   -48.8102 H       
 304 H304         -12.0266   -20.7357   -48.0304 H       
 305 H305         -11.2398   -20.8642   -46.4389 H       
 306 H306         -13.7174   -19.8506   -46.1277 H       
 307 H307         -13.7183   -18.1760   -45.9920 H       
 308 H308          -6.3494   -20.8439   -51.3969 H       
 309 H309          -7.2347   -18.8768   -53.1561 H       
 310 H310          -7.5599   -20.6262   -53.3860 H       
 311 H311          -9.3681   -18.5045   -52.0973 H       
 312 H312          -9.8067   -19.7642   -53.2995 H       
 313 H313          -9.6146   -21.5399   -51.6847 H       
 314 H314         -10.3021   -20.2262   -50.6814 H       
 315 H315          -5.1002   -18.6019   -52.1983 H       
 316 H316          -5.6411   -16.3924   -50.3671 H       
 317 H317          -3.3258   -16.4759   -49.4069 H       
 318 H318          -5.0090   -18.9816   -48.9543 H       
 319 H319          -3.7769   -18.3421   -47.8402 H       
 320 H320          -5.2580   -17.4081   -48.1603 H       
 321 H321          -2.2906   -17.8207   -51.2147 H       
 322 H322          -2.0452   -18.5878   -49.6274 H       
 323 H323          -3.2815   -19.2212   -50.7403 H       
 324 H324          -3.8267   -14.5839   -50.8049 H       
 325 H325          -2.3880   -14.9838   -53.3144 H       
 326 H326          -4.5785   -12.8819   -53.0099 H       
 327 H327          -3.3954   -12.9230   -54.3392 H       
 328 H328          -4.1873   -15.1854   -54.9740 H       
 329 H329          -5.3703   -15.1443   -53.6447 H       
 330 H330          -7.2664   -13.9798   -56.5599 H       
 331 H331          -1.3242   -12.5293   -53.8128 H       
 332 H332           0.1322   -12.0851   -51.3122 H       
 333 H333           0.5306   -11.0477   -54.1525 H       
 334 H334           1.5973   -10.6514   -52.7838 H       
 335 H335           3.2211   -13.5703   -54.2462 H       
 336 H336           0.7781    -9.4769   -51.1062 H       
 337 H337          -1.5175    -7.7926   -51.7548 H       
 338 H338          -0.7566    -8.4719   -48.8793 H       
 339 H339          -1.8615    -7.1576   -49.3485 H       
 340 H340          -2.2544   -10.0938   -50.0785 H       
 341 H341          -3.6149    -8.3707   -47.9579 H       
 342 H342          -4.0635   -10.0398   -48.3836 H       
 343 H343          -2.4812    -9.7056   -47.6400 H       
 344 H344          -3.2583    -8.4710   -51.6621 H       
 345 H345          -4.5173    -9.3188   -50.7324 H       
 346 H346          -4.0687    -7.6497   -50.3067 H       
 347 H347          -0.9971    -5.4704   -50.4902 H       
 348 H348           1.8824    -5.0699   -50.2152 H       
 349 H349           0.2659    -3.7818   -52.4594 H       
 350 H350           1.9061    -3.2827   -51.9808 H       
 351 H351           2.7416    -5.5673   -52.4617 H       
 352 H352           1.1014    -6.0664   -52.9403 H       
 353 H353           2.7046    -5.1284   -56.1025 H       
 354 H354           2.1457    -2.3995   -49.9659 H       
 355 H355          -0.2533    -1.2343   -48.7765 H       
 356 H356           2.2281    -1.8905   -47.1271 H       
 357 H357           0.9053    -0.8305   -46.5842 H       
 358 H358          -0.7030    -2.6981   -46.8563 H       
 359 H359           0.6198    -3.7581   -47.3993 H       
 360 H360           1.7665    -3.4416   -45.2236 H       
 361 H361           0.4437    -2.3816   -44.6806 H       
 362 H362          -0.6693    -4.8435   -45.5034 H       
 363 H363           0.9856    -4.6407   -41.8677 H       
 364 H364          -1.2479    -6.4269   -43.8216 H       
 365 H365          -0.5449    -6.3297   -42.2988 H       
 366 H366           0.6177     1.0693   -47.6821 H       
 367 H367           2.9411     2.0844   -49.1308 H       
 368 H368           0.1160     3.1065   -49.6626 H       
 369 H369           1.6040     3.9300   -50.1880 H       
 370 H370          -0.5587     1.0006   -50.6648 H       
 371 H371          -0.4580    -0.4496   -52.6522 H       
 372 H372           1.3747    -0.1877   -54.2758 H       
 373 H373           3.1061     1.5249   -53.9123 H       
 374 H374           3.0008     2.9807   -51.9292 H       
 375 H375           2.9936     4.6998   -48.5823 H       
 376 H376           2.5835     4.8829   -45.7031 H       
 377 H377           3.6100     6.8698   -47.7771 H       
 378 H378           3.5275     7.2001   -46.0300 H       
 379 H379           6.0813     7.3770   -46.6863 H       
 380 H380           6.9465     5.9571   -46.4454 H       
 381 H381           1.5756     7.3385   -45.1038 H       
 382 H382          -1.1759     7.0069   -46.0479 H       
 383 H383           0.0772     8.7929   -43.9162 H       
 384 H384          -1.6641     8.7374   -44.2810 H       
 385 H385          -1.0676     7.9984   -41.6866 H       
 386 H386          -1.1391     6.3298   -41.5040 H       
 387 H387          -2.3603     9.3918   -46.3134 H       
 388 H388          -0.4962    11.2353   -47.6704 H       
 389 H389          -2.1795    11.4973   -49.5320 H       
 390 H390          -3.7926     9.5566   -49.7986 H       
 391 H391          -3.3942     9.0777   -48.1312 H       
 392 H392          -4.2753    11.1139   -47.2305 H       
 393 H393          -4.3476    11.8789   -48.8361 H       
 394 H394          -5.4752    10.5645   -48.4249 H       
 395 H395          -1.1397     8.6495   -49.2003 H       
 396 H396          -1.4730     9.4970   -50.7296 H       
 397 H397          -0.1296    10.0306   -49.6908 H       
 398 H398          -1.9405    13.3823   -48.2603 H       
 399 H399          -4.2434    13.6720   -46.4883 H       
 400 H400          -1.6979    15.3161   -46.1329 H       
 401 H401          -3.2630    15.7011   -45.3776 H       
 402 H402          -1.7691    13.0650   -45.0195 H       
 403 H403          -2.0498    15.4634   -43.1524 H       
 404 H404          -1.2757    13.9138   -42.7425 H       
 405 H405          -0.5578    14.9659   -43.9859 H       
 406 H406          -4.1957    14.2696   -43.6132 H       
 407 H407          -4.2325    12.9215   -44.7749 H       
 408 H408          -3.4216    12.7200   -43.2033 H       
 409 H409          -4.9232    16.2690   -46.7262 H       
 410 H410          -4.1572    17.2983   -49.3494 H       
 411 H411          -6.9909    16.3478   -48.7368 H       
 412 H412          -6.5412    17.3449   -50.1410 H       
 413 H413          -5.3441    14.6120   -49.5030 H       
 414 H414          -7.4393    15.4352   -51.5644 H       
 415 H415          -6.7117    13.8178   -51.4128 H       
 416 H416          -7.7432    14.4554   -50.1098 H       
 417 H417          -3.8670    16.1357   -50.7858 H       
 418 H418          -4.4482    14.7990   -51.8076 H       
 419 H419          -5.1757    16.4164   -51.9591 H       
 420 H420          -5.8089    19.3930   -49.7326 H       
 421 H421          -6.6037    20.5594   -47.1762 H       
 422 H422          -4.3340    21.7131   -48.8574 H       
 423 H423          -5.1399    22.5717   -47.5226 H       
 424 H424          -4.4794    20.7628   -45.9604 H       
 425 H425          -3.6736    19.9042   -47.2952 H       
 426 H426          -1.8716    20.4376   -45.3637 H       
 427 H427          -0.9574    21.8081   -45.6933 H       
 428 H428          -7.2723    23.0947   -47.7992 H       
 429 H429          -9.1227    22.7399   -50.0302 H       
 430 H430          -8.6596    25.0488   -48.0904 H       
 431 H431          -9.9399    25.0090   -49.3263 H       
 432 H432          -8.7437    23.5739   -46.1661 H       
 433 H433         -10.1707    22.2728   -44.6399 H       
 434 H434         -13.1533    21.9672   -44.6178 H       
 435 H435         -13.2450    22.1778   -47.6071 H       
 436 H436         -11.8155    23.4873   -49.1239 H       
 437 H437          -7.7822    25.4759   -52.0715 H       
@<TRIPOS>BOND
   1    1    2 2
   2    1    4 1
   3    1    7 am
   4    3    4 1
   5    3  227 1
   6    3  228 1
   7    4  229 1
   8    4  230 1
   9    5    6 2
  10    5   14 am
  11    5    8 1
  12    7    8 1
  13    7   11 1
  14    8    9 1
  15    8  231 1
  16    9   10 1
  17    9  232 1
  18    9  233 1
  19   10   11 1
  20   10  234 1
  21   10  235 1
  22   11  236 1
  23   11  237 1
  24   12   13 2
  25   12   15 1
  26   12   20 am
  27   14   15 1
  28   14  238 1
  29   15   16 1
  30   15  239 1
  31   16   17 1
  32   16  240 1
  33   16  241 1
  34   17  242 1
  35   18   19 2
  36   18   21 1
  37   18   28 am
  38   20   21 1
  39   20  243 1
  40   21   22 1
  41   21  244 1
  42   22   23 1
  43   22  245 1
  44   22  246 1
  45   23   24 1
  46   23   25 1
  47   23  247 1
  48   24  248 1
  49   24  249 1
  50   24  250 1
  51   25  251 1
  52   25  252 1
  53   25  253 1
  54   26   27 2
  55   26   35 am
  56   26   29 1
  57   28   29 1
  58   28   32 1
  59   29   30 1
  60   29  254 1
  61   30   31 1
  62   30  255 1
  63   30  256 1
  64   31   32 1
  65   31  257 1
  66   31  258 1
  67   32  259 1
  68   32  260 1
  69   33   34 2
  70   33   36 1
  71   33   49 am
  72   35   36 1
  73   35  261 1
  74   36   37 1
  75   36  262 1
  76   37   38 1
  77   37  263 1
  78   37  264 1
  79   38   39 2
  80   38   46 1
  81   39   40 1
  82   39  265 1
  83   40   41 1
  84   40  266 1
  85   41   42 ar
  86   41   46 ar
  87   42   43 ar
  88   42  267 1
  89   43   44 ar
  90   43  268 1
  91   44   45 ar
  92   44  269 1
  93   45   46 ar
  94   45  270 1
  95   47   48 2
  96   47   50 1
  97   47   61 am
  98   49   50 1
  99   49  271 1
 100   50   51 1
 101   50  272 1
 102   51   52 1
 103   51  273 1
 104   51  274 1
 105   52   53 ar
 106   52   58 ar
 107   53   54 ar
 108   53  275 1
 109   54   55 ar
 110   54  276 1
 111   55   56 1
 112   55   57 ar
 113   56  277 1
 114   57   58 ar
 115   57  278 1
 116   58  279 1
 117   59   60 2
 118   59   68 am
 119   59   62 1
 120   61   62 1
 121   61   65 1
 122   62   63 1
 123   62  280 1
 124   63   64 1
 125   63  281 1
 126   63  282 1
 127   64   65 1
 128   64  283 1
 129   64  284 1
 130   65  285 1
 131   65  286 1
 132   66   67 2
 133   66   69 1
 134   66   72 am
 135   68   69 1
 136   68  287 1
 137   69  288 1
 138   69  289 1
 139   70   71 2
 140   70   73 1
 141   70   80 am
 142   72   73 1
 143   72  290 1
 144   73   74 1
 145   73  291 1
 146   74   75 1
 147   74  292 1
 148   74  293 1
 149   75   76 2
 150   75   77 1
 151   77  294 1
 152   78   79 2
 153   78   81 1
 154   78   88 am
 155   80   81 1
 156   80  295 1
 157   81   82 1
 158   81  296 1
 159   82   83 1
 160   82  297 1
 161   82  298 1
 162   83   84 2
 163   83   85 1
 164   85  299 1
 165   86   87 2
 166   86   89 1
 167   86   97 am
 168   88   89 1
 169   88  300 1
 170   89   90 1
 171   89  301 1
 172   90   91 1
 173   90  302 1
 174   90  303 1
 175   91   92 1
 176   91  304 1
 177   91  305 1
 178   92   93 2
 179   92   94 am
 180   94  306 1
 181   94  307 1
 182   95   96 2
 183   95  104 am
 184   95   98 1
 185   97   98 1
 186   97  101 1
 187   98   99 1
 188   98  308 1
 189   99  100 1
 190   99  309 1
 191   99  310 1
 192  100  101 1
 193  100  311 1
 194  100  312 1
 195  101  313 1
 196  101  314 1
 197  102  103 2
 198  102  105 1
 199  102  111 am
 200  104  105 1
 201  104  315 1
 202  105  106 1
 203  105  316 1
 204  106  107 1
 205  106  108 1
 206  106  317 1
 207  107  318 1
 208  107  319 1
 209  107  320 1
 210  108  321 1
 211  108  322 1
 212  108  323 1
 213  109  110 2
 214  109  112 1
 215  109  120 am
 216  111  112 1
 217  111  324 1
 218  112  113 1
 219  112  325 1
 220  113  114 1
 221  113  326 1
 222  113  327 1
 223  114  115 1
 224  114  328 1
 225  114  329 1
 226  115  116 2
 227  115  117 1
 228  117  330 1
 229  118  119 2
 230  118  121 1
 231  118  128 am
 232  120  121 1
 233  120  331 1
 234  121  122 1
 235  121  332 1
 236  122  123 1
 237  122  333 1
 238  122  334 1
 239  123  124 2
 240  123  125 1
 241  125  335 1
 242  126  127 2
 243  126  129 1
 244  126  136 am
 245  128  129 1
 246  128  336 1
 247  129  130 1
 248  129  337 1
 249  130  131 1
 250  130  338 1
 251  130  339 1
 252  131  132 1
 253  131  133 1
 254  131  340 1
 255  132  341 1
 256  132  342 1
 257  132  343 1
 258  133  344 1
 259  133  345 1
 260  133  346 1
 261  134  135 2
 262  134  137 1
 263  134  145 am
 264  136  137 1
 265  136  347 1
 266  137  138 1
 267  137  348 1
 268  138  139 1
 269  138  349 1
 270  138  350 1
 271  139  140 1
 272  139  351 1
 273  139  352 1
 274  140  141 2
 275  140  142 1
 276  142  353 1
 277  143  144 2
 278  143  146 1
 279  143  156 am
 280  145  146 1
 281  145  354 1
 282  146  147 1
 283  146  355 1
 284  147  148 1
 285  147  356 1
 286  147  357 1
 287  148  149 1
 288  148  358 1
 289  148  359 1
 290  149  150 1
 291  149  360 1
 292  149  361 1
 293  150  151 1
 294  150  362 1
 295  151  152 2
 296  151  153 1
 297  152  363 1
 298  153  364 1
 299  153  365 1
 300  154  155 2
 301  154  157 1
 302  154  167 am
 303  156  157 1
 304  156  366 1
 305  157  158 1
 306  157  367 1
 307  158  159 1
 308  158  368 1
 309  158  369 1
 310  159  160 ar
 311  159  164 ar
 312  160  161 ar
 313  160  370 1
 314  161  162 ar
 315  161  371 1
 316  162  163 ar
 317  162  372 1
 318  163  164 ar
 319  163  373 1
 320  164  374 1
 321  165  166 2
 322  165  168 1
 323  165  175 am
 324  167  168 1
 325  167  375 1
 326  168  169 1
 327  168  376 1
 328  169  170 1
 329  169  377 1
 330  169  378 1
 331  170  171 2
 332  170  172 am
 333  172  379 1
 334  172  380 1
 335  173  174 2
 336  173  176 1
 337  173  183 am
 338  175  176 1
 339  175  381 1
 340  176  177 1
 341  176  382 1
 342  177  178 1
 343  177  383 1
 344  177  384 1
 345  178  179 2
 346  178  180 am
 347  180  385 1
 348  180  386 1
 349  181  182 2
 350  181  184 1
 351  181  191 am
 352  183  184 1
 353  183  387 1
 354  184  185 1
 355  184  388 1
 356  185  186 1
 357  185  188 1
 358  185  389 1
 359  186  187 1
 360  186  390 1
 361  186  391 1
 362  187  392 1
 363  187  393 1
 364  187  394 1
 365  188  395 1
 366  188  396 1
 367  188  397 1
 368  189  190 2
 369  189  192 1
 370  189  199 am
 371  191  192 1
 372  191  398 1
 373  192  193 1
 374  192  399 1
 375  193  194 1
 376  193  400 1
 377  193  401 1
 378  194  195 1
 379  194  196 1
 380  194  402 1
 381  195  403 1
 382  195  404 1
 383  195  405 1
 384  196  406 1
 385  196  407 1
 386  196  408 1
 387  197  198 2
 388  197  200 1
 389  197  207 am
 390  199  200 1
 391  199  409 1
 392  200  201 1
 393  200  410 1
 394  201  202 1
 395  201  411 1
 396  201  412 1
 397  202  203 1
 398  202  204 1
 399  202  413 1
 400  203  414 1
 401  203  415 1
 402  203  416 1
 403  204  417 1
 404  204  418 1
 405  204  419 1
 406  205  206 2
 407  205  208 1
 408  205  216 am
 409  207  208 1
 410  207  420 1
 411  208  209 1
 412  208  421 1
 413  209  210 1
 414  209  422 1
 415  209  423 1
 416  210  211 1
 417  210  424 1
 418  210  425 1
 419  211  212 2
 420  211  213 am
 421  213  426 1
 422  213  427 1
 423  214  215 2
 424  214  217 1
 425  214  226 1
 426  216  217 1
 427  216  428 1
 428  217  218 1
 429  217  429 1
 430  218  219 1
 431  218  430 1
 432  218  431 1
 433  219  220 ar
 434  219  225 ar
 435  220  221 ar
 436  220  432 1
 437  221  222 ar
 438  221  433 1
 439  222  223 1
 440  222  224 ar
 441  223  434 1
 442  224  225 ar
 443  224  435 1
 444  225  436 1
 445  226  437 1

#	End of record

