#	Name: ASD02039414
#	Creating user name:	WinNT
#	Creation time:	15. 06. 2019 20:18

#	Modifying user name:	WinNT
#	Modification time:	15. 06. 2019 20:18

#	Program:	/corina/corina34_cracker 3.40 0067  02.08.2006

@<TRIPOS>MOLECULE
ASD02039414
  54   58    0    0    0
SMALL
NO_CHARGES


@<TRIPOS>ATOM
   1 C1            -0.1167     0.6710    -0.9222 C.ar    
   2 C2             0.2087    -0.6484    -1.1796 C.ar    
   3 C3             0.9437     1.6258    -0.4375 C.3     
   4 N4             1.6851     2.1555    -1.5847 N.am    
   5 C5             1.1580     3.2997    -2.3325 C.3     
   6 C6             2.8521     1.5902    -1.9521 C.2     
   7 C7             3.3267     0.3722    -1.2726 C.2     
   8 C8             4.4196    -0.3687    -1.6157 C.2     
   9 N9             2.7596    -0.2140    -0.1873 N.2     
  10 C10            3.4531    -1.2682     0.1322 C.2     
  11 N11            4.4915    -1.3940    -0.7346 N.pl3   
  12 O12            3.5133     2.0855    -2.8446 O.2     
  13 C13           -0.7585    -1.5310    -1.6251 C.ar    
  14 C14           -2.3879     0.2355    -1.5671 C.ar    
  15 C15           -1.4090     1.1170    -1.1135 C.ar    
  16 C16           -3.7780     0.7092    -1.7749 C.ar    
  17 C17           -4.4293     1.4273    -0.7589 C.ar    
  18 C18           -4.4218     0.4457    -2.9698 C.ar    
  19 C19           -5.7361     0.8971    -3.1584 C.ar    
  20 C20           -6.3879     1.6160    -2.1252 C.ar    
  21 C21           -5.7016     1.8721    -0.9238 C.ar    
  22 C22            5.5066    -2.4502    -0.7192 C.3     
  23 C23           -2.0572    -1.0977    -1.8160 C.ar    
  24 C24            2.1574     4.4605    -2.4677 C.3     
  25 C25            1.6518     4.6241    -3.9107 C.3     
  26 C26            1.2598     3.1380    -3.8584 C.3     
  27 F27           -3.0017    -1.9599    -2.2516 F       
  28 C28           -6.4276     0.6509    -4.3606 C.ar    
  29 C29           -7.7049     1.1200    -4.4771 C.ar    
  30 C30           -8.2869     1.8200    -3.4224 C.ar    
  31 N31           -7.6402     2.0476    -2.3050 N.ar    
  32 H32            1.2223    -0.9909    -1.0324 H       
  33 H33            0.4733     2.4478     0.1020 H       
  34 H34            1.6295     1.1003     0.2270 H       
  35 H35            0.1711     3.6108    -1.9900 H       
  36 H36            5.0975    -0.1747    -2.4338 H       
  37 H37            3.2393    -1.9337     0.9555 H       
  38 H38           -0.4986    -2.5601    -1.8244 H       
  39 H39           -1.6591     2.1495    -0.9193 H       
  40 H40           -3.9110     1.6283     0.1670 H       
  41 H41           -3.9167    -0.1026    -3.7512 H       
  42 H42           -6.1890     2.4187    -0.1301 H       
  43 H43            5.1716    -3.2851    -1.3346 H       
  44 H44            6.4436    -2.0595    -1.1159 H       
  45 H45            5.6599    -2.7919     0.3045 H       
  46 H46            1.9282     5.3110    -1.8257 H       
  47 H47            3.1999     4.1489    -2.4030 H       
  48 H48            0.7995     5.2976    -4.0011 H       
  49 H49            2.4427     4.8421    -4.6285 H       
  50 H50            2.0569     2.4649    -4.1739 H       
  51 H51            0.3060     2.9209    -4.3391 H       
  52 H52           -5.9605     0.1066    -5.1680 H       
  53 H53           -8.2630     0.9488    -5.3858 H       
  54 H54           -9.2977     2.1852    -3.5283 H       
@<TRIPOS>BOND
   1    1    2 ar
   2    1    3 1
   3    1   15 ar
   4    2   13 ar
   5    2   32 1
   6    3    4 1
   7    3   33 1
   8    3   34 1
   9    4    5 1
  10    4    6 am
  11    5   24 1
  12    5   26 1
  13    5   35 1
  14    6    7 1
  15    6   12 2
  16    7    8 2
  17    7    9 1
  18    8   11 1
  19    8   36 1
  20    9   10 2
  21   10   11 1
  22   10   37 1
  23   11   22 1
  24   13   23 ar
  25   13   38 1
  26   14   15 ar
  27   14   16 1
  28   14   23 ar
  29   15   39 1
  30   16   17 ar
  31   16   18 ar
  32   17   21 ar
  33   17   40 1
  34   18   19 ar
  35   18   41 1
  36   19   20 ar
  37   19   28 ar
  38   20   21 ar
  39   20   31 ar
  40   21   42 1
  41   22   43 1
  42   22   44 1
  43   22   45 1
  44   23   27 1
  45   24   25 1
  46   24   46 1
  47   24   47 1
  48   25   26 1
  49   25   48 1
  50   25   49 1
  51   26   50 1
  52   26   51 1
  53   28   29 ar
  54   28   52 1
  55   29   30 ar
  56   29   53 1
  57   30   31 ar
  58   30   54 1

#	End of record

