#	Name: ASD03430055
#	Creating user name:	WinNT
#	Creation time:	15. 06. 2019 20:40

#	Modifying user name:	WinNT
#	Modification time:	15. 06. 2019 20:40

#	Program:	/corina/corina34_cracker 3.40 0067  02.08.2006

@<TRIPOS>MOLECULE
ASD03430055
  62   68    0    0    0
SMALL
NO_CHARGES


@<TRIPOS>ATOM
   1 C1             1.8828     1.2927    -1.0478 C.ar    
   2 C2             1.3086     0.0595    -0.7805 C.ar    
   3 C3             2.0960    -1.0026    -0.3888 C.ar    
   4 C4             3.4720    -0.8500    -0.2471 C.ar    
   5 C5             4.0456     0.3876    -0.5206 C.ar    
   6 C6             3.2573     1.4546    -0.9176 C.ar    
   7 O7             4.0567    -2.0079     0.1742 O.3     
   8 C8             1.7869    -2.4375    -0.0552 C.3     
   9 C9             3.1661    -3.1107    -0.0815 C.3     
  10 C10           -0.0855    -3.2350     1.0298 C.ar    
  11 C11            1.1184    -2.5825     1.2794 C.ar    
  12 C12            0.8434    -3.0619    -1.0427 C.2     
  13 N13           -0.2163    -3.5017    -0.3353 N.am    
  14 O14            1.0034    -3.1524    -2.2416 O.2     
  15 C15            1.4643    -2.2146     2.5656 C.ar    
  16 C16            0.6074    -2.4973     3.6219 C.ar    
  17 C17           -0.5885    -3.1457     3.3806 C.ar    
  18 C18           -0.9365    -3.5135     2.0967 C.ar    
  19 C19           -1.3708    -4.1809    -0.9288 C.3     
  20 O20            1.0915     2.3289    -1.4403 O.3     
  21 C21            1.6550     3.6415    -1.3426 C.3     
  22 C22            3.0733     3.5998    -1.9273 C.3     
  23 O23            3.8423     2.6573    -1.1732 O.3     
  24 O24            2.6419    -1.5773     2.7971 O.3     
  25 C25            2.9915    -1.3317     4.0870 C.ar    
  26 C26            3.7125    -2.2753     4.8017 C.ar    
  27 C27            4.0685    -2.0210     6.1192 C.ar    
  28 C28            2.9867     0.1183     5.9994 C.ar    
  29 C29            2.6316    -0.1331     4.6881 C.ar    
  30 C30            3.7010    -0.8218     6.7170 C.ar    
  31 N31            4.7947    -2.9694     6.8430 N.3     
  32 C32            5.0624    -2.4976     8.2094 C.3     
  33 C33            5.8061    -3.5890     8.9838 C.3     
  34 O34            7.0058    -3.9298     8.2839 O.3     
  35 C35            6.7820    -4.3939     6.9498 C.3     
  36 C36            6.0481    -3.3107     6.1548 C.3     
  37 H37            0.2409    -0.0697    -0.8791 H       
  38 H38            5.1132     0.5173    -0.4218 H       
  39 H39            3.3641    -3.5494    -1.0595 H       
  40 H40            3.2450    -3.8621     0.7042 H       
  41 H41            0.8753    -2.2115     4.6283 H       
  42 H42           -1.2547    -3.3664     4.2015 H       
  43 H43           -1.8738    -4.0195     1.9183 H       
  44 H44           -2.1223    -3.4426    -1.2086 H       
  45 H45           -1.0531    -4.7299    -1.8152 H       
  46 H46           -1.7958    -4.8754    -0.2042 H       
  47 H47            1.0450     4.3465    -1.9074 H       
  48 H48            1.6972     3.9466    -0.2970 H       
  49 H49            3.0317     3.2874    -2.9708 H       
  50 H50            3.5293     4.5873    -1.8566 H       
  51 H51            3.9966    -3.2067     4.3347 H       
  52 H52            2.7057     1.0517     6.4644 H       
  53 H53            2.0736     0.6040     4.1297 H       
  54 H54            3.9773    -0.6228     7.7419 H       
  55 H55            5.6754    -1.5972     8.1700 H       
  56 H56            4.1195    -2.2751     8.7089 H       
  57 H57            6.0570    -3.2223     9.9791 H       
  58 H58            5.1716    -4.4711     9.0695 H       
  59 H59            7.7387    -4.6094     6.4741 H       
  60 H60            6.1759    -5.2994     6.9764 H       
  61 H61            5.8248    -3.6817     5.1545 H       
  62 H62            6.6770    -2.4233     6.0825 H       
@<TRIPOS>BOND
   1    1    2 ar
   2    1    6 ar
   3    1   20 1
   4    2    3 ar
   5    2   37 1
   6    3    4 ar
   7    3    8 1
   8    4    5 ar
   9    4    7 1
  10    5    6 ar
  11    5   38 1
  12    6   23 1
  13    7    9 1
  14    8    9 1
  15    8   11 1
  16    8   12 1
  17    9   39 1
  18    9   40 1
  19   10   11 ar
  20   10   13 1
  21   10   18 ar
  22   11   15 ar
  23   12   13 am
  24   12   14 2
  25   13   19 1
  26   15   16 ar
  27   15   24 1
  28   16   17 ar
  29   16   41 1
  30   17   18 ar
  31   17   42 1
  32   18   43 1
  33   19   44 1
  34   19   45 1
  35   19   46 1
  36   20   21 1
  37   21   22 1
  38   21   47 1
  39   21   48 1
  40   22   23 1
  41   22   49 1
  42   22   50 1
  43   24   25 1
  44   25   26 ar
  45   25   29 ar
  46   26   27 ar
  47   26   51 1
  48   27   30 ar
  49   27   31 1
  50   28   29 ar
  51   28   30 ar
  52   28   52 1
  53   29   53 1
  54   30   54 1
  55   31   32 1
  56   31   36 1
  57   32   33 1
  58   32   55 1
  59   32   56 1
  60   33   34 1
  61   33   57 1
  62   33   58 1
  63   34   35 1
  64   35   36 1
  65   35   59 1
  66   35   60 1
  67   36   61 1
  68   36   62 1

#	End of record

