#	Name: ASD02500808
#	Creating user name:	WinNT
#	Creation time:	15. 06. 2019 20:23

#	Modifying user name:	WinNT
#	Modification time:	15. 06. 2019 20:23

#	Program:	/corina/corina34_cracker 3.40 0067  02.08.2006

@<TRIPOS>MOLECULE
ASD02500808
  37   40    0    0    0
SMALL
NO_CHARGES


@<TRIPOS>ATOM
   1 C1            -0.0169     1.3937     0.0097 C.2     
   2 C2             0.0021    -0.0041     0.0020 C.2     
   3 C3            -1.2291    -0.6944     0.0105 C.2     
   4 N4            -2.3793     0.0088     0.0256 N.am    
   5 N5            -2.3708     1.4064     0.0326 N.2     
   6 C6            -1.2539     2.0777     0.0303 C.2     
   7 C7             1.3805     1.8290    -0.0013 C.2     
   8 C8             2.1611     0.6949    -0.0148 C.2     
   9 N9             1.3130    -0.4133    -0.0127 N.pl3   
  10 S10            2.4075     3.2578    -0.0034 S.3     
  11 C11            3.8556     2.2647    -0.0226 C.2     
  12 C12            3.5327     0.9776    -0.0264 C.2     
  13 O13           -1.2522    -1.9149     0.0037 O.2     
  14 C14           -3.6593    -0.7039     0.0344 C.3     
  15 C15           -4.0841    -0.9559     1.4582 C.ar    
  16 C16           -4.6814     0.0548     2.1918 C.ar    
  17 C17           -5.0712    -0.1782     3.5000 C.ar    
  18 C18           -4.8637    -1.4190     4.0716 C.ar    
  19 C19           -4.2671    -2.4277     3.3379 C.ar    
  20 C20           -3.8827    -2.1980     2.0302 C.ar    
  21 F21           -4.8834     1.2677     1.6320 F       
  22 C22            1.7563    -1.8096    -0.0237 C.3     
  23 C23            5.2649     2.7984    -0.0336 C.3     
  24 H24           -1.2734     3.1575     0.0358 H       
  25 H25            4.2800     0.1978    -0.0377 H       
  26 H26           -4.4147    -0.1004    -0.4687 H       
  27 H27           -3.5489    -1.6555    -0.4856 H       
  28 H28           -5.5370     0.6097     4.0734 H       
  29 H29           -5.1673    -1.6008     5.0920 H       
  30 H30           -4.1049    -3.3970     3.7856 H       
  31 H31           -3.4168    -2.9866     1.4581 H       
  32 H32            1.8760    -2.1609     1.0012 H       
  33 H33            1.0132    -2.4228    -0.5335 H       
  34 H34            2.7097    -1.8840    -0.5469 H       
  35 H35            5.2408     3.8881    -0.0274 H       
  36 H36            5.7954     2.4417     0.8492 H       
  37 H37            5.7778     2.4514    -0.9306 H       
@<TRIPOS>BOND
   1    1    2 2
   2    1    7 1
   3    1    6 1
   4    2    3 1
   5    2    9 1
   6    3    4 am
   7    3   13 2
   8    4    5 1
   9    4   14 1
  10    5    6 2
  11    6   24 1
  12    7    8 2
  13    7   10 1
  14    8    9 1
  15    8   12 1
  16    9   22 1
  17   10   11 1
  18   11   12 2
  19   11   23 1
  20   12   25 1
  21   14   15 1
  22   14   26 1
  23   14   27 1
  24   15   16 ar
  25   15   20 ar
  26   16   17 ar
  27   16   21 1
  28   17   18 ar
  29   17   28 1
  30   18   19 ar
  31   18   29 1
  32   19   20 ar
  33   19   30 1
  34   20   31 1
  35   22   32 1
  36   22   33 1
  37   22   34 1
  38   23   35 1
  39   23   36 1
  40   23   37 1

#	End of record

