#	Name: ASD03930086
#	Creating user name:	WinNT
#	Creation time:	15. 06. 2019 20:47

#	Modifying user name:	WinNT
#	Modification time:	15. 06. 2019 20:47

#	Program:	/corina/corina34_cracker 3.40 0067  02.08.2006

@<TRIPOS>MOLECULE
ASD03930086
  33   34    0    0    0
SMALL
NO_CHARGES


@<TRIPOS>ATOM
   1 C1             0.5087     1.4030    -1.0353 C.ar    
   2 C2             0.5265     0.0238    -1.0623 C.ar    
   3 C3             1.2143    -0.6813    -0.0906 C.ar    
   4 C4             1.8883    -0.0094     0.9137 C.ar    
   5 C5             1.8781     1.3695     0.9524 C.ar    
   6 C6             1.1866     2.0869    -0.0250 C.ar    
   7 C7             1.1718     3.5649     0.0100 C.2     
   8 O8             2.2142     4.1808     0.1177 O.2     
   9 N9             0.0025     4.2294    -0.0774 N.am    
  10 C10           -1.2569     3.5034    -0.2909 C.3     
  11 C11           -2.3977     5.4319     0.8133 C.3     
  12 C12           -1.0434     6.0688     1.1379 C.3     
  13 C13           -0.0378     5.6930     0.0451 C.3     
  14 C14           -2.2510     3.9086     0.8020 C.3     
  15 C15            1.2289    -2.1879    -0.1260 C.3     
  16 O16            2.3427    -2.6353    -0.9015 O.3     
  17 H17           -0.0248     1.9523    -1.7969 H       
  18 H18            0.0021    -0.5067    -1.8433 H       
  19 H19            2.4233    -0.5657     1.6691 H       
  20 H20            2.4040     1.8928     1.7372 H       
  21 H21           -1.6648     3.7591    -1.2689 H       
  22 H22           -1.0735     2.4303    -0.2385 H       
  23 H23           -3.1243     5.7159     1.5745 H       
  24 H24           -2.7385     5.7803    -0.1617 H       
  25 H25           -1.1496     7.1532     1.1698 H       
  26 H26           -0.6944     5.7084     2.1056 H       
  27 H27            0.9508     6.0644     0.3148 H       
  28 H28           -0.3485     6.1307    -0.9036 H       
  29 H29           -3.2196     3.4513     0.6004 H       
  30 H30           -1.8835     3.5713     1.7712 H       
  31 H31            1.3146    -2.5744     0.8895 H       
  32 H32            0.3043    -2.5497    -0.5757 H       
  33 H33            2.4149    -3.5973    -0.9675 H       
@<TRIPOS>BOND
   1    1    2 ar
   2    1    6 ar
   3    1   17 1
   4    2    3 ar
   5    2   18 1
   6    3    4 ar
   7    3   15 1
   8    4    5 ar
   9    4   19 1
  10    5    6 ar
  11    5   20 1
  12    6    7 1
  13    7    8 2
  14    7    9 am
  15    9   10 1
  16    9   13 1
  17   10   14 1
  18   10   21 1
  19   10   22 1
  20   11   12 1
  21   11   14 1
  22   11   23 1
  23   11   24 1
  24   12   13 1
  25   12   25 1
  26   12   26 1
  27   13   27 1
  28   13   28 1
  29   14   29 1
  30   14   30 1
  31   15   16 1
  32   15   31 1
  33   15   32 1
  34   16   33 1

#	End of record

