#	Name: ASD01908007
#	Creating user name:	WinNT
#	Creation time:	15. 06. 2019 19:54

#	Modifying user name:	WinNT
#	Modification time:	15. 06. 2019 19:54

#	Program:	/corina/corina34_cracker 3.40 0067  02.08.2006

@<TRIPOS>MOLECULE
ASD01908007
  44   47    0    0    0
SMALL
NO_CHARGES


@<TRIPOS>ATOM
   1 S1            -0.0210     1.6950     0.0114 S.3     
   2 N2             0.0021    -0.0041     0.0020 N.2     
   3 C3             1.2667    -0.3421    -0.0119 C.2     
   4 N4             2.1577     0.6315    -0.0152 N.2     
   5 C5             1.6937     1.8595    -0.0041 C.2     
   6 O6             2.4096     3.0094    -0.0054 O.3     
   7 C7             1.7293     4.1834     0.0071 C.ar    
   8 C8             2.4286     5.3837     0.0062 C.ar    
   9 C9             1.7229     6.5740     0.0191 C.ar    
  10 C10            0.3357     6.5212     0.0325 C.ar    
  11 C11           -0.2934     5.2922     0.0326 C.ar    
  12 N12            0.4068     4.1740     0.0147 N.ar    
  13 N13            2.9105    -3.5792    -0.0436 N.pl3   
  14 N14            1.5639    -3.9625    -0.0332 N.2     
  15 C15            0.8255    -2.8846    -0.0208 C.2     
  16 C16            1.6828    -1.7669    -0.0230 C.2     
  17 C17            2.9654    -2.2323    -0.0372 C.2     
  18 C18           -0.6809    -2.8442    -0.0072 C.3     
  19 F19           -1.1813    -4.1457     0.1059 F       
  20 F20           -1.1171    -2.0807     1.0810 F       
  21 F21           -1.1428    -2.2686    -1.1957 F       
  22 C22            4.0614    -4.4857    -0.0534 C.3     
  23 C23            3.9608    -5.4379     1.1102 C.ar    
  24 C24            3.3022    -6.6443     0.9599 C.ar    
  25 C25            3.2085    -7.5189     2.0251 C.ar    
  26 C26            3.7760    -7.1859     3.2464 C.ar    
  27 C27            4.4363    -5.9749     3.3947 C.ar    
  28 C28            4.5321    -5.1062     2.3249 C.ar    
  29 O29            3.6849    -8.0445     4.2960 O.3     
  30 C30            4.2925    -7.6358     5.5231 C.3     
  31 H31            3.5086     5.3879    -0.0041 H       
  32 H32            2.2395     7.5225     0.0191 H       
  33 H33           -0.2451     7.4317     0.0431 H       
  34 H34           -1.3724     5.2456     0.0430 H       
  35 H35            3.8622    -1.6305    -0.0424 H       
  36 H36            4.0709    -5.0507    -0.9855 H       
  37 H37            4.9809    -3.9063     0.0296 H       
  38 H38            2.8602    -6.9029     0.0090 H       
  39 H39            2.6937    -8.4610     1.9072 H       
  40 H40            4.8789    -5.7133     4.3445 H       
  41 H41            5.0501    -4.1654     2.4384 H       
  42 H42            5.3595    -7.4782     5.3654 H       
  43 H43            3.8346    -6.7071     5.8637 H       
  44 H44            4.1470    -8.4102     6.2762 H       
@<TRIPOS>BOND
   1    1    2 1
   2    1    5 1
   3    2    3 2
   4    3    4 1
   5    3   16 1
   6    4    5 2
   7    5    6 1
   8    6    7 1
   9    7    8 ar
  10    7   12 ar
  11    8    9 ar
  12    8   31 1
  13    9   10 ar
  14    9   32 1
  15   10   11 ar
  16   10   33 1
  17   11   12 ar
  18   11   34 1
  19   13   14 1
  20   13   17 1
  21   13   22 1
  22   14   15 2
  23   15   16 1
  24   15   18 1
  25   16   17 2
  26   17   35 1
  27   18   19 1
  28   18   20 1
  29   18   21 1
  30   22   23 1
  31   22   36 1
  32   22   37 1
  33   23   24 ar
  34   23   28 ar
  35   24   25 ar
  36   24   38 1
  37   25   26 ar
  38   25   39 1
  39   26   27 ar
  40   26   29 1
  41   27   28 ar
  42   27   40 1
  43   28   41 1
  44   29   30 1
  45   30   42 1
  46   30   43 1
  47   30   44 1

#	End of record

