#	Name: ASD02030539
#	Creating user name:	WinNT
#	Creation time:	15. 06. 2019 20:15

#	Modifying user name:	WinNT
#	Modification time:	15. 06. 2019 20:15

#	Program:	/corina/corina34_cracker 3.40 0067  02.08.2006

@<TRIPOS>MOLECULE
ASD02030539
  64   68    0    0    0
SMALL
NO_CHARGES


@<TRIPOS>ATOM
   1 N1            -0.1572     1.6720    -0.2720 N.am    
   2 C2            -0.2359     0.2074    -0.3649 C.3     
   3 C3            -1.0473    -0.3164     0.8265 C.3     
   4 N4            -2.2944     0.4553     0.9209 N.am    
   5 C5            -2.2157     1.9199     1.0139 C.3     
   6 C6            -1.4041     2.4433    -0.1719 C.3     
   7 C7             1.0373     2.2962    -0.2728 C.2     
   8 C8             2.2850     1.5046    -0.2266 C.2     
   9 N9             3.5018     1.9855    -0.0889 N.2     
  10 N10            2.3758     0.1647    -0.3122 N.2     
  11 C11            3.6446    -0.1452    -0.2301 C.2     
  12 N12            4.3368     1.0041    -0.0906 N.pl3   
  13 O13            1.0887     3.5101    -0.3116 O.2     
  14 C14           -3.4889    -0.1689     0.9218 C.2     
  15 C15           -3.5514    -1.6490     0.8937 C.ar    
  16 O16           -4.5147     0.4822     0.9457 O.2     
  17 C17           -1.0786     3.9230     0.0418 C.3     
  18 C18           -2.2099     2.2722    -1.4612 C.3     
  19 C19            5.7287     1.1125     0.0313 C.ar    
  20 C20            6.3194     2.3610     0.1696 C.ar    
  21 C21            7.6928     2.4645     0.2901 C.ar    
  22 C22            8.4776     1.3249     0.2725 C.ar    
  23 C23            7.8909     0.0803     0.1348 C.ar    
  24 C24            6.5190    -0.0294     0.0198 C.ar    
  25 N25           -2.4697    -2.3576     1.1908 N.ar    
  26 C26           -2.4842    -3.6808     1.1773 C.ar    
  27 C27           -3.6488    -4.3773     0.8464 C.ar    
  28 C28           -4.7942    -3.6685     0.5316 C.ar    
  29 C29           -4.7465    -2.2822     0.5613 C.ar    
  30 C30           -1.2508    -4.4320     1.5164 C.2     
  31 C31           -0.0445    -3.8911     1.8573 C.2     
  32 N32            0.8075    -4.9086     2.0885 N.pl3   
  33 N33            0.1192    -6.1111     1.8879 N.2     
  34 C34           -1.1123    -5.8338     1.5514 C.2     
  35 Cl35           8.4332     4.0251     0.4631 Cl      
  36 C36            2.2129    -4.7790     2.4815 C.3     
  37 C37            2.4564    -5.5654     3.7711 C.3     
  38 H38           -0.7289    -0.0742    -1.2954 H       
  39 H39            0.7684    -0.2154    -0.3377 H       
  40 H40           -1.2799    -1.3705     0.6756 H       
  41 H41           -0.4711    -0.1941     1.7436 H       
  42 H42           -3.2201     2.3427     0.9867 H       
  43 H43           -1.7227     2.2015     1.9444 H       
  44 H44            4.0617    -1.1409    -0.2645 H       
  45 H45           -0.3257     4.0201     0.8240 H       
  46 H46           -0.6958     4.3484    -0.8859 H       
  47 H47           -1.9825     4.4545     0.3394 H       
  48 H48           -3.1416     2.8327    -1.3845 H       
  49 H49           -1.6295     2.6459    -2.3047 H       
  50 H50           -2.4327     1.2161    -1.6129 H       
  51 H51            5.7069     3.2505     0.1826 H       
  52 H52            9.5503     1.4078     0.3661 H       
  53 H53            8.5059    -0.8073     0.1211 H       
  54 H54            6.0618    -1.0019    -0.0873 H       
  55 H55           -3.6549    -5.4573     0.8362 H       
  56 H56           -5.7075    -4.1834     0.2723 H       
  57 H57           -5.6239    -1.7004     0.3205 H       
  58 H58            0.1851    -2.8383     1.9287 H       
  59 H59           -1.8872    -6.5534     1.3318 H       
  60 H60            2.8494    -5.1738     1.6896 H       
  61 H61            2.4485    -3.7277     2.6469 H       
  62 H62            2.2208    -6.6167     3.6057 H       
  63 H63            3.5020    -5.4690     4.0635 H       
  64 H64            1.8198    -5.1706     4.5630 H       
@<TRIPOS>BOND
   1    1    2 1
   2    1    7 am
   3    1    6 1
   4    2    3 1
   5    2   38 1
   6    2   39 1
   7    3    4 1
   8    3   40 1
   9    3   41 1
  10    4    5 1
  11    4   14 am
  12    5    6 1
  13    5   42 1
  14    5   43 1
  15    6   17 1
  16    6   18 1
  17    7    8 1
  18    7   13 2
  19    8    9 2
  20    8   10 1
  21    9   12 1
  22   10   11 2
  23   11   12 1
  24   11   44 1
  25   12   19 1
  26   14   15 1
  27   14   16 2
  28   15   25 ar
  29   15   29 ar
  30   17   45 1
  31   17   46 1
  32   17   47 1
  33   18   48 1
  34   18   49 1
  35   18   50 1
  36   19   20 ar
  37   19   24 ar
  38   20   21 ar
  39   20   51 1
  40   21   22 ar
  41   21   35 1
  42   22   23 ar
  43   22   52 1
  44   23   24 ar
  45   23   53 1
  46   24   54 1
  47   25   26 ar
  48   26   27 ar
  49   26   30 1
  50   27   28 ar
  51   27   55 1
  52   28   29 ar
  53   28   56 1
  54   29   57 1
  55   30   31 2
  56   30   34 1
  57   31   32 1
  58   31   58 1
  59   32   33 1
  60   32   36 1
  61   33   34 2
  62   34   59 1
  63   36   37 1
  64   36   60 1
  65   36   61 1
  66   37   62 1
  67   37   63 1
  68   37   64 1

#	End of record

