#	Name: ASD01001261
#	Creating user name:	WinNT
#	Creation time:	15. 06. 2019 18:55

#	Modifying user name:	WinNT
#	Modification time:	15. 06. 2019 18:55

#	Program:	/corina/corina34_cracker 3.40 0067  02.08.2006

@<TRIPOS>MOLECULE
ASD01001261
  41   44    0    0    0
SMALL
NO_CHARGES


@<TRIPOS>ATOM
   1 C1            -0.0443     1.3998     0.3085 C.ar    
   2 C2            -0.0461     0.0355     0.5245 C.ar    
   3 C3             1.1297    -0.6181     0.8585 C.ar    
   4 C4             2.3115     0.0895     0.9777 C.ar    
   5 C5             2.3275     1.4551     0.7643 C.ar    
   6 C6             1.1453     2.1205     0.4272 C.ar    
   7 C7             1.1549     3.5798     0.1971 C.2     
   8 O8             0.0559     4.2981    -0.1321 O.3     
   9 C9             0.4580     5.6656    -0.2713 C.3     
  10 N10            1.9006     5.6567     0.0137 N.am    
  11 N11            2.2138     4.3174     0.2929 N.2     
  12 F12           -1.1967    -0.6634     0.4104 F       
  13 F13            3.4830     2.1453     0.8816 F       
  14 C14            2.7424     6.7115     0.0115 C.2     
  15 O15            2.3020     7.8392    -0.0705 O.2     
  16 C16            0.2060     6.1484    -1.6950 C.3     
  17 C17            0.4725     7.6577    -1.7503 C.3     
  18 C18           -0.6192     8.3706    -0.9551 C.3     
  19 C19           -0.7536     7.7706     0.4198 C.ar    
  20 C20           -0.2614     6.5227     0.7329 C.ar    
  21 C21           -1.4016     8.5188     1.3939 C.ar    
  22 C22           -1.5598     8.0210     2.6705 C.ar    
  23 C23           -1.0698     6.7666     2.9839 C.ar    
  24 C24           -0.4242     6.0225     2.0185 C.ar    
  25 C25            4.2296     6.4888     0.1110 C.3     
  26 H26           -0.9604     1.9071     0.0440 H       
  27 H27            1.1226    -1.6849     1.0266 H       
  28 H28            3.2241    -0.4258     1.2385 H       
  29 H29            0.8777     5.6324    -2.3811 H       
  30 H30           -0.8292     5.9488    -1.9717 H       
  31 H31            1.4463     7.8741    -1.3111 H       
  32 H32            0.4512     7.9957    -2.7863 H       
  33 H33           -0.3648     9.4265    -0.8628 H       
  34 H34           -1.5682     8.2754    -1.4828 H       
  35 H35           -1.7846     9.4987     1.1499 H       
  36 H36           -2.0643     8.6091     3.4229 H       
  37 H37           -1.1922     6.3707     3.9812 H       
  38 H38           -0.0421     5.0427     2.2642 H       
  39 H39            4.6490     6.3844    -0.8896 H       
  40 H40            4.6917     7.3395     0.6117 H       
  41 H41            4.4236     5.5813     0.6828 H       
@<TRIPOS>BOND
   1    1    2 ar
   2    1    6 ar
   3    1   26 1
   4    2    3 ar
   5    2   12 1
   6    3    4 ar
   7    3   27 1
   8    4    5 ar
   9    4   28 1
  10    5    6 ar
  11    5   13 1
  12    6    7 1
  13    7    8 1
  14    7   11 2
  15    8    9 1
  16    9   10 1
  17    9   16 1
  18    9   20 1
  19   10   11 1
  20   10   14 am
  21   14   15 2
  22   14   25 1
  23   16   17 1
  24   16   29 1
  25   16   30 1
  26   17   18 1
  27   17   31 1
  28   17   32 1
  29   18   19 1
  30   18   33 1
  31   18   34 1
  32   19   20 ar
  33   19   21 ar
  34   20   24 ar
  35   21   22 ar
  36   21   35 1
  37   22   23 ar
  38   22   36 1
  39   23   24 ar
  40   23   37 1
  41   24   38 1
  42   25   39 1
  43   25   40 1
  44   25   41 1

#	End of record

