#	Name: ASD01230041
#	Creating user name:	WinNT
#	Creation time:	15. 06. 2019 19:11

#	Modifying user name:	WinNT
#	Modification time:	15. 06. 2019 19:11

#	Program:	/corina/corina34_cracker 3.40 0067  02.08.2006

@<TRIPOS>MOLECULE
ASD01230041
  27   28    0    0    0
SMALL
NO_CHARGES


@<TRIPOS>ATOM
   1 C1            -0.0159     1.3241     0.0093 C.2     
   2 C2             0.0021    -0.0041     0.0020 C.2     
   3 C3             1.3351    -0.5963    -0.0139 C.2     
   4 C4             2.3256     0.2987    -0.0185 C.2     
   5 S5             1.6661     1.9766    -0.0032 Du      
   6 C6             1.5734    -2.0652    -0.0232 C.2     
   7 O7             2.7091    -2.4963    -0.0360 O.2     
   8 O8             0.5297    -2.9170    -0.0176 O.3     
   9 C9             3.3501     2.6401    -0.0104 C.2     
  10 O10            4.2956     1.8880    -0.0217 O.2     
  11 O11            3.5485     3.9676    -0.0033 O.3     
  12 C12           -1.2474     2.1424     0.0311 C.ar    
  13 C13           -2.5008     1.5246     0.0461 C.ar    
  14 C14           -3.6449     2.2944     0.0663 C.ar    
  15 C15           -3.5540     3.6752     0.0713 C.ar    
  16 C16           -2.3163     4.2940     0.0566 C.ar    
  17 C17           -1.1633     3.5373     0.0426 C.ar    
  18 H18           -0.9110    -0.6046     0.0075 H       
  19 H19            3.3796     0.0400    -0.0296 H       
  20 H20            1.3987     2.6421    -1.2172 H       
  21 H21            0.7343    -3.8621    -0.0241 H       
  22 H22            4.4655     4.2744    -0.0075 H       
  23 H23           -2.5733     0.4470     0.0414 H       
  24 H24           -4.6143     1.8183     0.0779 H       
  25 H25           -4.4534     4.2729     0.0864 H       
  26 H26           -2.2530     5.3721     0.0602 H       
  27 H27           -0.1980     4.0216     0.0356 H       
@<TRIPOS>BOND
   1    1    2 2
   2    1    5 1
   3    1   12 1
   4    2    3 1
   5    2   18 1
   6    3    4 2
   7    3    6 1
   8    4    5 1
   9    4   19 1
  10    5    9 1
  11    5   20 1
  12    6    7 2
  13    6    8 1
  14    8   21 1
  15    9   10 2
  16    9   11 1
  17   11   22 1
  18   12   13 ar
  19   12   17 ar
  20   13   14 ar
  21   13   23 1
  22   14   15 ar
  23   14   24 1
  24   15   16 ar
  25   15   25 1
  26   16   17 ar
  27   16   26 1
  28   17   27 1

#	End of record

