#	Name: ASD03430300
#	Creating user name:	WinNT
#	Creation time:	15. 06. 2019 20:40

#	Modifying user name:	WinNT
#	Modification time:	15. 06. 2019 20:40

#	Program:	/corina/corina34_cracker 3.40 0067  02.08.2006

@<TRIPOS>MOLECULE
ASD03430300
  50   55    0    0    0
SMALL
NO_CHARGES


@<TRIPOS>ATOM
   1 C1            -0.0166     1.3737     0.0096 C.ar    
   2 C2             0.0021    -0.0041     0.0020 C.ar    
   3 C3             1.2039    -0.6793    -0.0043 C.ar    
   4 C4             2.4065     0.0237     0.0059 C.ar    
   5 C5             2.3788     1.4127     0.0033 C.ar    
   6 C6             1.1692     2.0978     0.0022 C.ar    
   7 O7             3.4727    -0.8258     0.0308 O.3     
   8 C8             1.5601    -2.1407    -0.0344 C.3     
   9 C9             3.0503    -2.1325    -0.4034 C.3     
  10 C10            0.4380    -3.8662     1.0060 C.ar    
  11 C11            1.3133    -2.8196     1.2798 C.ar    
  12 C12            0.7439    -2.9058    -1.0366 C.2     
  13 N13            0.1244    -3.8902    -0.3553 N.am    
  14 O14            0.6585    -2.6817    -2.2255 O.2     
  15 C15            1.7630    -2.5993     2.5693 C.ar    
  16 C16            1.3405    -3.4289     3.6026 C.ar    
  17 C17            0.4727    -4.4697     3.3352 C.ar    
  18 C18            0.0222    -4.6903     2.0494 C.ar    
  19 C19           -0.7734    -4.8708    -0.9705 C.3     
  20 C20           -1.1520     2.3782     0.0361 C.3     
  21 C21           -0.4179     3.6804     0.4347 C.3     
  22 O22            0.9260     3.4379    -0.0149 O.3     
  23 N23            2.6407    -1.5454     2.8332 N.pl3   
  24 C24           -2.2073    -4.3378    -0.9418 C.3     
  25 C25           -3.1603    -5.3626    -1.5870 C.3     
  26 C26           -4.1819    -5.6865    -0.4699 C.3     
  27 C27           -4.0454    -4.4555     0.4619 C.3     
  28 O28           -2.6338    -4.1553     0.4187 O.3     
  29 H29           -0.9263    -0.5558     0.0013 H       
  30 H30            3.3064     1.9658     0.0028 H       
  31 H31            3.1832    -2.2444    -1.4795 H       
  32 H32            3.5871    -2.9122     0.1370 H       
  33 H33            1.6901    -3.2601     4.6104 H       
  34 H34            0.1450    -5.1149     4.1370 H       
  35 H35           -0.6566    -5.5065     1.8510 H       
  36 H36           -0.4704    -5.0431    -2.0032 H       
  37 H37           -0.7229    -5.8078    -0.4158 H       
  38 H38           -1.6096     2.4749    -0.9485 H       
  39 H39           -1.8959     2.1056     0.7847 H       
  40 H40           -0.8483     4.5394    -0.0800 H       
  41 H41           -0.4439     3.8232     1.5150 H       
  42 H42            2.9352    -0.9673     2.1121 H       
  43 H43            2.9557    -1.3915     3.7377 H       
  44 H44           -2.2616    -3.3913    -1.4797 H       
  45 H45           -3.6636    -4.9253    -2.4493 H       
  46 H46           -2.6149    -6.2606    -1.8774 H       
  47 H47           -5.1914    -5.7579    -0.8748 H       
  48 H48           -3.9085    -6.6027     0.0535 H       
  49 H49           -4.6279    -3.6176     0.0787 H       
  50 H50           -4.3536    -4.7063     1.4768 H       
@<TRIPOS>BOND
   1    1    2 ar
   2    1    6 ar
   3    1   20 1
   4    2    3 ar
   5    2   29 1
   6    3    4 ar
   7    3    8 1
   8    4    5 ar
   9    4    7 1
  10    5    6 ar
  11    5   30 1
  12    6   22 1
  13    7    9 1
  14    8    9 1
  15    8   11 1
  16    8   12 1
  17    9   31 1
  18    9   32 1
  19   10   11 ar
  20   10   13 1
  21   10   18 ar
  22   11   15 ar
  23   12   13 am
  24   12   14 2
  25   13   19 1
  26   15   16 ar
  27   15   23 1
  28   16   17 ar
  29   16   33 1
  30   17   18 ar
  31   17   34 1
  32   18   35 1
  33   19   24 1
  34   19   36 1
  35   19   37 1
  36   20   21 1
  37   20   38 1
  38   20   39 1
  39   21   22 1
  40   21   40 1
  41   21   41 1
  42   23   42 1
  43   23   43 1
  44   24   25 1
  45   24   28 1
  46   24   44 1
  47   25   26 1
  48   25   45 1
  49   25   46 1
  50   26   27 1
  51   26   47 1
  52   26   48 1
  53   27   28 1
  54   27   49 1
  55   27   50 1

#	End of record

