#	Name: ASD01901362
#	Creating user name:	WinNT
#	Creation time:	15. 06. 2019 19:53

#	Modifying user name:	WinNT
#	Modification time:	15. 06. 2019 19:53

#	Program:	/corina/corina34_cracker 3.40 0067  02.08.2006

@<TRIPOS>MOLECULE
ASD01901362
  39   42    0    0    0
SMALL
NO_CHARGES


@<TRIPOS>ATOM
   1 C1            -0.0169     1.3940     0.0097 C.ar    
   2 C2             1.1753     2.0984     0.0021 C.ar    
   3 C3             2.3817     1.4191    -0.0135 C.ar    
   4 C4             2.4024     0.0337    -0.0216 C.ar    
   5 C5             1.2200    -0.6786    -0.0142 C.ar    
   6 C6             0.0021    -0.0041     0.0020 C.ar    
   7 C7            -1.2712    -0.7661     0.0106 C.2     
   8 N8            -3.1798    -1.5363    -1.1466 N.2     
   9 C9            -2.0560    -0.8621    -1.1592 C.2     
  10 C10           -1.6980    -1.3898     1.1495 C.2     
  11 N11           -2.8730    -2.0818     1.1228 N.pl3   
  12 C12           -3.6093    -2.1466    -0.0319 C.2     
  13 C13           -3.5505    -2.7944     2.0751 C.2     
  14 C14           -4.6698    -3.2726     1.4911 C.2     
  15 N15           -4.6910    -2.8715     0.2167 N.2     
  16 C16           -5.7204    -4.1175     2.1645 C.3     
  17 O17           -5.3518    -4.3394     3.5272 O.3     
  18 C18           -6.1985    -5.0888     4.2811 C.ar    
  19 C19           -7.3573    -5.6046     3.7191 C.ar    
  20 C20           -5.9024    -5.3437     5.6120 C.ar    
  21 C21           -6.7659    -6.1072     6.3771 C.ar    
  22 C22           -7.9246    -6.6162     5.8140 C.ar    
  23 C23           -8.2172    -6.3668     4.4864 C.ar    
  24 O24           -1.2013     2.0594     0.0302 O.3     
  25 F25            3.5429     2.1096    -0.0213 F       
  26 F26           -6.4788    -6.3569     7.6734 F       
  27 H27            1.1641     3.1784     0.0080 H       
  28 H28            3.3466    -0.4905    -0.0342 H       
  29 H29            1.2396    -1.7584    -0.0212 H       
  30 H30           -1.7292    -0.3779    -2.0676 H       
  31 H31           -1.1138    -1.3358     2.0563 H       
  32 H32           -3.2466    -2.9459     3.1003 H       
  33 H33           -6.6801    -3.6020     2.1270 H       
  34 H34           -5.8019    -5.0747     1.6495 H       
  35 H35           -7.5873    -5.4101     2.6820 H       
  36 H36           -4.9987    -4.9469     6.0504 H       
  37 H37           -8.5979    -7.2125     6.4118 H       
  38 H38           -9.1191    -6.7680     4.0483 H       
  39 H39           -1.5315     2.2473     0.9195 H       
@<TRIPOS>BOND
   1    1    6 ar
   2    1    2 ar
   3    1   24 1
   4    2    3 ar
   5    2   27 1
   6    3    4 ar
   7    3   25 1
   8    4    5 ar
   9    4   28 1
  10    5    6 ar
  11    5   29 1
  12    6    7 1
  13    7   10 2
  14    7    9 1
  15    8    9 2
  16    8   12 1
  17    9   30 1
  18   10   11 1
  19   10   31 1
  20   11   13 1
  21   11   12 1
  22   12   15 2
  23   13   14 2
  24   13   32 1
  25   14   15 1
  26   14   16 1
  27   16   17 1
  28   16   33 1
  29   16   34 1
  30   17   18 1
  31   18   20 ar
  32   18   19 ar
  33   19   23 ar
  34   19   35 1
  35   20   21 ar
  36   20   36 1
  37   21   22 ar
  38   21   26 1
  39   22   23 ar
  40   22   37 1
  41   23   38 1
  42   24   39 1

#	End of record

