#	Name: ASD02198129
#	Creating user name:	WinNT
#	Creation time:	15. 06. 2019 20:18

#	Modifying user name:	WinNT
#	Modification time:	15. 06. 2019 20:18

#	Program:	/corina/corina34_cracker 3.40 0067  02.08.2006

@<TRIPOS>MOLECULE
ASD02198129
  47   50    0    0    0
SMALL
NO_CHARGES


@<TRIPOS>ATOM
   1 C1             0.3622     1.3592    -0.2988 C.2     
   2 C2             0.1425    -0.0015    -0.2754 C.2     
   3 C3            -1.1333    -0.5813     0.0193 C.1     
   4 S4             1.9867     1.7058    -0.6831 S.3     
   5 C5             2.3875     0.0011    -0.8168 C.2     
   6 C6             1.2741    -0.7619    -0.5648 C.2     
   7 C7             3.6628    -0.5083    -1.1359 C.2     
   8 C8             4.7490     0.4128    -1.5282 C.2     
   9 O9             3.8692    -1.7092    -1.0882 O.2     
  10 N10            1.2753    -2.1486    -0.5953 N.pl3   
  11 N11           -0.6016     2.3102    -0.0510 N.pl3   
  12 N12           -2.1454    -1.0413     0.2531 N.1     
  13 C13            4.6321     1.8044    -1.7399 C.2     
  14 C14           -0.2481     3.6604     0.0244 C.ar    
  15 C15           -1.1196     4.6348    -0.4493 C.ar    
  16 N16            5.8075     2.2642    -2.0724 N.2     
  17 N17            6.7205     1.2037    -2.0891 N.pl3   
  18 C18            6.0680     0.0753    -1.7501 C.2     
  19 C19            8.0834     1.3004    -2.4010 C.ar    
  20 C20            8.5146     2.2037    -3.3632 C.ar    
  21 C21            6.6664    -1.3036    -1.6425 C.3     
  22 C22           -0.7751     5.9712    -0.3767 C.ar    
  23 C23            0.4365     6.3480     0.1666 C.ar    
  24 C24            1.3191     5.3775     0.6452 C.ar    
  25 C25            0.9690     4.0285     0.5767 C.ar    
  26 C26            2.5769     5.7656     1.2089 C.1     
  27 N27            3.5748     6.0736     1.6561 N.1     
  28 C28            9.0060     0.4970    -1.7442 C.ar    
  29 C29           10.3485     0.5949    -2.0534 C.ar    
  30 C30           10.7743     1.4921    -3.0156 C.ar    
  31 C31            9.8585     2.2970    -3.6680 C.ar    
  32 H32            2.0924    -2.6284    -0.8028 H       
  33 H33            0.4592    -2.6385    -0.4091 H       
  34 H34           -1.5261     2.0434     0.0713 H       
  35 H35            3.7275     2.3865    -1.6439 H       
  36 H36           -2.0689     4.3462    -0.8759 H       
  37 H37            7.7998     2.8326    -3.8731 H       
  38 H38            7.0282    -1.4644    -0.6269 H       
  39 H39            5.9072    -2.0488    -1.8800 H       
  40 H40            7.4968    -1.3949    -2.3427 H       
  41 H41           -1.4561     6.7233    -0.7467 H       
  42 H42            0.7020     7.3934     0.2211 H       
  43 H43            1.6472     3.2733     0.9456 H       
  44 H44            8.6742    -0.2035    -0.9921 H       
  45 H45           11.0666    -0.0298    -1.5429 H       
  46 H46           11.8247     1.5673    -3.2551 H       
  47 H47           10.1940     2.9968    -4.4190 H       
@<TRIPOS>BOND
   1    1    2 2
   2    1    4 1
   3    1   11 1
   4    2    3 1
   5    2    6 1
   6    3   12 3
   7    4    5 1
   8    5    6 2
   9    5    7 1
  10    6   10 1
  11    7    8 1
  12    7    9 2
  13    8   13 1
  14    8   18 2
  15   10   32 1
  16   10   33 1
  17   11   14 1
  18   11   34 1
  19   13   16 2
  20   13   35 1
  21   14   15 ar
  22   14   25 ar
  23   15   22 ar
  24   15   36 1
  25   16   17 1
  26   17   18 1
  27   17   19 1
  28   18   21 1
  29   19   20 ar
  30   19   28 ar
  31   20   31 ar
  32   20   37 1
  33   21   38 1
  34   21   39 1
  35   21   40 1
  36   22   23 ar
  37   22   41 1
  38   23   24 ar
  39   23   42 1
  40   24   25 ar
  41   24   26 1
  42   25   43 1
  43   26   27 3
  44   28   29 ar
  45   28   44 1
  46   29   30 ar
  47   29   45 1
  48   30   31 ar
  49   30   46 1
  50   31   47 1

#	End of record

