#	Name: ASD01882704
#	Creating user name:	WinNT
#	Creation time:	15. 06. 2019 19:45

#	Modifying user name:	WinNT
#	Modification time:	15. 06. 2019 19:45

#	Program:	/corina/corina34_cracker 3.40 0067  02.08.2006

@<TRIPOS>MOLECULE
ASD01882704
  49   51    0    0    0
SMALL
NO_CHARGES


@<TRIPOS>ATOM
   1 O1            -0.0173     1.4248     0.0099 O.3     
   2 C2             0.0021    -0.0041     0.0020 C.3     
   3 C3             1.2831     0.8325    -0.0057 C.3     
   4 C4            -0.3680    -0.7292     1.2974 C.3     
   5 O5            -1.5561    -1.4961     1.0913 O.3     
   6 C6            -2.0238    -2.2062     2.1515 C.ar    
   7 C7            -3.1727    -2.9728     2.0218 C.ar    
   8 C8            -3.6462    -3.6936     3.1010 C.ar    
   9 C9            -2.9759    -3.6515     4.3096 C.ar    
  10 C10           -1.8308    -2.8879     4.4415 C.ar    
  11 C11           -1.3499    -2.1701     3.3636 C.ar    
  12 C12           -3.4945    -4.4389     5.4852 C.3     
  13 C13           -2.4309    -5.4419     5.9365 C.3     
  14 C14           -2.9575    -6.2412     7.1301 C.3     
  15 C15           -3.2792    -5.2863     8.2814 C.3     
  16 C16           -4.3428    -4.2834     7.8302 C.3     
  17 C17           -3.8162    -3.4840     6.6366 C.3     
  18 C18           -3.8057    -6.0857     9.4750 C.3     
  19 C19           -2.7421    -7.0887     9.9263 C.3     
  20 C20           -4.1274    -5.1308    10.6264 C.3     
  21 C21           -5.0743    -6.8370     9.0660 C.3     
  22 H22           -0.2792    -0.5108    -0.9211 H       
  23 H23            1.8523     0.8812    -0.9340 H       
  24 H24            1.8699     0.8713     0.9120 H       
  25 H25            0.4467    -1.3924     1.5881 H       
  26 H26           -0.5402     0.0024     2.0869 H       
  27 H27           -3.6969    -3.0057     1.0781 H       
  28 H28           -4.5408    -4.2903     3.0007 H       
  29 H29           -1.3094    -2.8561     5.3868 H       
  30 H30           -0.4527    -1.5777     3.4657 H       
  31 H31           -4.3983    -4.9741     5.1938 H       
  32 H32           -2.2017    -6.1221     5.1163 H       
  33 H33           -1.5272    -4.9066     6.2279 H       
  34 H34           -3.8612    -6.7765     6.8387 H       
  35 H35           -2.1997    -6.9558     7.4516 H       
  36 H36           -2.3755    -4.7511     8.5728 H       
  37 H37           -5.2465    -4.8186     7.5387 H       
  38 H38           -4.5720    -3.6031     8.6504 H       
  39 H39           -2.9125    -2.9488     6.9280 H       
  40 H40           -4.5740    -2.7695     6.3151 H       
  41 H41           -1.8384    -6.5535    10.2177 H       
  42 H42           -3.1173    -7.6582    10.7766 H       
  43 H43           -2.5130    -7.7690     9.1060 H       
  44 H44           -4.8852    -4.4163    10.3049 H       
  45 H45           -4.5026    -5.7003    11.4767 H       
  46 H46           -3.2237    -4.5956    10.9178 H       
  47 H47           -4.8451    -7.5173     8.2457 H       
  48 H48           -5.4494    -7.4065     9.9163 H       
  49 H49           -5.8320    -6.1225     8.7445 H       
@<TRIPOS>BOND
   1    1    2 1
   2    1    3 1
   3    2    3 1
   4    2    4 1
   5    2   22 1
   6    3   23 1
   7    3   24 1
   8    4    5 1
   9    4   25 1
  10    4   26 1
  11    5    6 1
  12    6    7 ar
  13    6   11 ar
  14    7    8 ar
  15    7   27 1
  16    8    9 ar
  17    8   28 1
  18    9   10 ar
  19    9   12 1
  20   10   11 ar
  21   10   29 1
  22   11   30 1
  23   12   13 1
  24   12   17 1
  25   12   31 1
  26   13   14 1
  27   13   32 1
  28   13   33 1
  29   14   15 1
  30   14   34 1
  31   14   35 1
  32   15   16 1
  33   15   18 1
  34   15   36 1
  35   16   17 1
  36   16   37 1
  37   16   38 1
  38   17   39 1
  39   17   40 1
  40   18   19 1
  41   18   21 1
  42   18   20 1
  43   19   41 1
  44   19   42 1
  45   19   43 1
  46   20   44 1
  47   20   45 1
  48   20   46 1
  49   21   47 1
  50   21   48 1
  51   21   49 1

#	End of record

