#	Name: ASD01883883
#	Creating user name:	WinNT
#	Creation time:	15. 06. 2019 19:47

#	Modifying user name:	WinNT
#	Modification time:	15. 06. 2019 19:47

#	Program:	/corina/corina34_cracker 3.40 0067  02.08.2006

@<TRIPOS>MOLECULE
ASD01883883
  47   50    0    0    0
SMALL
NO_CHARGES


@<TRIPOS>ATOM
   1 C1             0.1596     1.3222     0.5322 C.ar    
   2 C2             0.2727    -0.0318     0.6603 C.ar    
   3 C3             1.5394    -0.6295     0.7062 C.ar    
   4 C4             2.6916     0.1728     0.6196 C.ar    
   5 C5             2.5610     1.5451     0.4899 C.ar    
   6 C6             1.2975     2.1194     0.4462 C.ar    
   7 C7             1.6630    -2.0827     0.8442 C.2     
   8 O8             2.7548    -2.6079     0.7763 O.2     
   9 C9             0.4343    -2.9253     1.0705 C.3     
  10 O10            3.9229    -0.3944     0.6634 O.3     
  11 Cl11           3.9750     2.5464     0.3820 Cl      
  12 O12            1.1714     3.4645     0.3190 O.3     
  13 C13           -0.1565     3.9908     0.2804 C.3     
  14 C14           -0.0988     5.4899     0.1370 C.ar    
  15 C15           -0.0031     7.6663     1.1351 C.ar    
  16 C16           -0.0561     6.2904     1.2633 C.ar    
  17 C17           -0.0828     6.0628    -1.1202 C.ar    
  18 C18           -0.0292     7.4428    -1.2515 C.ar    
  19 C19            0.0082     8.2443    -0.1193 C.ar    
  20 O20           -0.0129     8.0088    -2.4869 O.3     
  21 C21           -1.1244     7.8913    -3.2561 C.ar    
  22 C22           -3.3204     7.2010    -3.4578 C.ar    
  23 N23           -2.2144     7.3376    -2.7503 N.ar    
  24 C24           -1.1071     8.3582    -4.5624 C.ar    
  25 C25           -2.2574     8.2309    -5.3407 C.ar    
  26 C26           -3.3840     7.6341    -4.7649 C.ar    
  27 C27           -2.2857     8.7164    -6.7434 C.2     
  28 N28           -3.3045     8.6547    -7.5775 N.2     
  29 N29           -2.9324     9.1797    -8.6940 N.pl3   
  30 N30           -1.7104     9.5720    -8.5939 N.2     
  31 N31           -1.2819     9.3081    -7.4062 N.2     
  32 H32           -0.8189     1.7776     0.4928 H       
  33 H33           -0.6150    -0.6433     0.7268 H       
  34 H34           -0.4323    -2.2769     1.1994 H       
  35 H35            0.2765    -3.5760     0.2103 H       
  36 H36            0.5700    -3.5327     1.9654 H       
  37 H37            4.2724    -0.6430    -0.2033 H       
  38 H38           -0.6917     3.5650    -0.5683 H       
  39 H39           -0.6761     3.7340     1.2036 H       
  40 H40            0.0295     8.2894     2.0166 H       
  41 H41           -0.0646     5.8404     2.2451 H       
  42 H42           -0.1117     5.4369    -1.9998 H       
  43 H43            0.0497     9.3189    -0.2189 H       
  44 H44           -4.1879     6.7429    -3.0061 H       
  45 H45           -0.2168     8.8136    -4.9702 H       
  46 H46           -4.2933     7.5178    -5.3359 H       
  47 H47           -3.4862     9.2658    -9.4857 H       
@<TRIPOS>BOND
   1    1    2 ar
   2    1    6 ar
   3    1   32 1
   4    2    3 ar
   5    2   33 1
   6    3    4 ar
   7    3    7 1
   8    4    5 ar
   9    4   10 1
  10    5    6 ar
  11    5   11 1
  12    6   12 1
  13    7    8 2
  14    7    9 1
  15    9   34 1
  16    9   35 1
  17    9   36 1
  18   10   37 1
  19   12   13 1
  20   13   14 1
  21   13   38 1
  22   13   39 1
  23   14   17 ar
  24   14   16 ar
  25   15   16 ar
  26   15   19 ar
  27   15   40 1
  28   16   41 1
  29   17   18 ar
  30   17   42 1
  31   18   19 ar
  32   18   20 1
  33   19   43 1
  34   20   21 1
  35   21   24 ar
  36   21   23 ar
  37   22   23 ar
  38   22   26 ar
  39   22   44 1
  40   24   25 ar
  41   24   45 1
  42   25   26 ar
  43   25   27 1
  44   26   46 1
  45   27   28 2
  46   27   31 1
  47   28   29 1
  48   29   30 1
  49   29   47 1
  50   30   31 2

#	End of record

