#	Name: ASD01900979
#	Creating user name:	WinNT
#	Creation time:	15. 06. 2019 19:52

#	Modifying user name:	WinNT
#	Modification time:	15. 06. 2019 19:52

#	Program:	/corina/corina34_cracker 3.40 0067  02.08.2006

@<TRIPOS>MOLECULE
ASD01900979
  58   63    0    0    0
SMALL
NO_CHARGES


@<TRIPOS>ATOM
   1 C1             0.0906     1.4915    -1.2720 C.ar    
   2 C2             0.0347     0.1139    -1.2634 C.ar    
   3 C3             1.0234    -0.6267    -0.6348 C.ar    
   4 C4             2.0765     0.0051    -0.0022 C.ar    
   5 C5             2.1459     1.3886     0.0008 C.ar    
   6 C6             1.1519     2.1436    -0.6446 C.ar    
   7 N7             3.1822     2.0600     0.6442 N.pl3   
   8 C8             3.5327     3.4035     0.1777 C.3     
   9 N9             2.3685     4.2094    -0.1827 N.am    
  10 C10            1.2463     3.6140    -0.6407 C.2     
  11 C11            2.4159     5.6028    -0.0516 C.ar    
  12 C12            2.9077     6.3820    -1.0904 C.ar    
  13 C13            2.9542     7.7559    -0.9603 C.ar    
  14 C14            2.5098     8.3578     0.2078 C.ar    
  15 C15            2.0183     7.5801     1.2461 C.ar    
  16 C16            1.9659     6.2064     1.1152 C.ar    
  17 O17            0.3194     4.2874    -1.0488 O.2     
  18 O18            2.5563     9.7108     0.3354 O.3     
  19 C19            4.5226     4.1303     1.0986 C.3     
  20 C20            2.0824    10.2631     1.5651 C.3     
  21 N21            5.1945     4.5731    -0.1439 N.3     
  22 C22            4.6430     3.4138    -0.8815 C.3     
  23 C23            6.6546     4.4707    -0.0179 C.3     
  24 C24            7.2917     4.6908    -1.3658 C.ar    
  25 C25            7.7046     3.6278    -2.1092 C.ar    
  26 C26            8.2952     3.8116    -3.3576 C.ar    
  27 C27            8.4766     5.0595    -3.8703 C.ar    
  28 C28            8.0630     6.1812    -3.1321 C.ar    
  29 C29            7.4573     5.9939    -1.8643 C.ar    
  30 C30            7.0384     7.1156    -1.1284 C.ar    
  31 C31            8.2335     7.4850    -3.6283 C.ar    
  32 C32            7.8208     8.5476    -2.8851 C.ar    
  33 C33            7.2146     8.3629    -1.6435 C.ar    
  34 H34           -0.6814     2.0628    -1.7661 H       
  35 H35           -0.7861    -0.3920    -1.7499 H       
  36 H36            0.9699    -1.7053    -0.6392 H       
  37 H37            2.8424    -0.5772     0.4883 H       
  38 H38            3.6592     1.6491     1.3821 H       
  39 H39            3.2541     5.9135    -1.9998 H       
  40 H40            3.3371     8.3620    -1.7681 H       
  41 H41            1.6725     8.0494     2.1552 H       
  42 H42            1.5787     5.6014     1.9217 H       
  43 H43            4.0753     4.9434     1.6702 H       
  44 H44            5.1268     3.4604     1.7104 H       
  45 H45            2.6744     9.8705     2.3918 H       
  46 H46            2.1750    11.3488     1.5354 H       
  47 H47            1.0363     9.9914     1.7062 H       
  48 H48            5.2829     2.5318    -0.8561 H       
  49 H49            4.2917     3.6575    -1.8842 H       
  50 H50            7.0128     5.2265     0.6810 H       
  51 H51            6.9188     3.4798     0.3514 H       
  52 H52            7.5727     2.6269    -1.7253 H       
  53 H53            8.6143     2.9511    -3.9270 H       
  54 H54            8.9362     5.1868    -4.8393 H       
  55 H55            6.5786     6.9885    -0.1595 H       
  56 H56            8.6901     7.6428    -4.5943 H       
  57 H57            7.9533     9.5485    -3.2686 H       
  58 H58            6.8914     9.2232    -1.0761 H       
@<TRIPOS>BOND
   1    1    2 ar
   2    1    6 ar
   3    1   34 1
   4    2    3 ar
   5    2   35 1
   6    3    4 ar
   7    3   36 1
   8    4    5 ar
   9    4   37 1
  10    5    7 1
  11    5    6 ar
  12    6   10 1
  13    7    8 1
  14    7   38 1
  15    8    9 1
  16    8   19 1
  17    8   22 1
  18    9   10 am
  19    9   11 1
  20   10   17 2
  21   11   12 ar
  22   11   16 ar
  23   12   13 ar
  24   12   39 1
  25   13   14 ar
  26   13   40 1
  27   14   15 ar
  28   14   18 1
  29   15   16 ar
  30   15   41 1
  31   16   42 1
  32   18   20 1
  33   19   21 1
  34   19   43 1
  35   19   44 1
  36   20   45 1
  37   20   46 1
  38   20   47 1
  39   21   23 1
  40   21   22 1
  41   22   48 1
  42   22   49 1
  43   23   24 1
  44   23   50 1
  45   23   51 1
  46   24   25 ar
  47   24   29 ar
  48   25   26 ar
  49   25   52 1
  50   26   27 ar
  51   26   53 1
  52   27   28 ar
  53   27   54 1
  54   28   29 ar
  55   28   31 ar
  56   29   30 ar
  57   30   33 ar
  58   30   55 1
  59   31   32 ar
  60   31   56 1
  61   32   33 ar
  62   32   57 1
  63   33   58 1

#	End of record

