#	Name: ASD01411278
#	Creating user name:	WinNT
#	Creation time:	15. 06. 2019 19:19

#	Modifying user name:	WinNT
#	Modification time:	15. 06. 2019 19:19

#	Program:	/corina/corina34_cracker 3.40 0067  02.08.2006

@<TRIPOS>MOLECULE
ASD01411278
  66   70    0    0    0
SMALL
NO_CHARGES


@<TRIPOS>ATOM
   1 C1            -0.0170     1.4055     0.0098 C.ar    
   2 C2             0.0021    -0.0041     0.0020 C.ar    
   3 C3            -1.2045    -0.7208     0.0461 C.ar    
   4 C4            -2.3955    -0.0542     0.0446 C.ar    
   5 C5            -2.4197     1.3439    -0.0070 C.ar    
   6 C6            -1.2280     2.0740     0.0046 C.ar    
   7 N7             1.2949     1.8372    -0.0004 N.pl3   
   8 C8             2.1198     0.7390    -0.0700 C.2     
   9 C9             1.3630    -0.3892    -0.0632 C.2     
  10 C10            1.7316     3.2348     0.0571 C.3     
  11 C11            0.9934     4.0478    -0.9739 C.2     
  12 N12            1.1211     5.4142    -0.9487 N.am    
  13 O13            0.3008     3.5063    -1.8093 O.2     
  14 C14            0.3763     6.1177    -2.0230 C.3     
  15 C15           -0.7243     6.9681    -1.3896 C.3     
  16 C16           -2.0923     6.5339    -1.9247 C.3     
  17 C17           -3.6937     2.0900    -0.1132 C.2     
  18 O18           -4.7697     1.5283    -0.1886 O.2     
  19 N19           -3.5805     3.4546    -0.1206 N.am    
  20 C20           -2.7745     5.6481    -0.8832 C.3     
  21 C21           -4.2711     5.5211    -1.1794 C.3     
  22 C22           -4.7779     4.2277    -0.5192 C.3     
  23 C23            3.5962     0.7797    -0.1408 C.2     
  24 C24            4.4741     0.0147     0.5636 C.2     
  25 O25            5.7187     0.3618     0.2073 O.3     
  26 C26            5.6960     1.3365    -0.7146 C.2     
  27 C27            4.4195     1.6496    -0.9906 C.2     
  28 C28            1.8813    -1.8033    -0.1164 C.3     
  29 C29            1.4325    -2.5584     1.1363 C.3     
  30 C30            1.9587    -3.9940     1.0823 C.3     
  31 C31            1.4051    -4.6937    -0.1607 C.3     
  32 C32            1.8539    -3.9386    -1.4134 C.3     
  33 C33            1.3276    -2.5029    -1.3594 C.3     
  34 H34           -1.1901    -1.8002     0.0809 H       
  35 H35           -3.3221    -0.6075     0.0830 H       
  36 H36           -1.2524     3.1537     0.0087 H       
  37 H37            1.5272     3.6371     1.0493 H       
  38 H38            2.8024     3.2876    -0.1394 H       
  39 H39            1.6527     5.8807    -0.2848 H       
  40 H40            1.0588     6.7600    -2.5797 H       
  41 H41           -0.0700     5.3863    -2.6968 H       
  42 H42           -0.7020     6.8412    -0.3072 H       
  43 H43           -0.5566     8.0172    -1.6332 H       
  44 H44           -2.7065     7.4144    -2.1134 H       
  45 H45           -1.9609     5.9736    -2.8504 H       
  46 H46           -2.7519     3.8952     0.1249 H       
  47 H47           -2.3196     4.6577    -0.9005 H       
  48 H48           -2.6401     6.0872     0.1054 H       
  49 H49           -4.8024     6.3793    -0.7681 H       
  50 H50           -4.4305     5.4697    -2.2565 H       
  51 H51           -5.3736     3.6550    -1.2300 H       
  52 H52           -5.3746     4.4675     0.3609 H       
  53 H53            4.2124    -0.7434     1.2869 H       
  54 H54            6.5648     1.7927    -1.1657 H       
  55 H55            4.0698     2.3943    -1.6902 H       
  56 H56            2.9702    -1.7896    -0.1619 H       
  57 H57            1.8269    -2.0599     2.0218 H       
  58 H58            0.3436    -2.5720     1.1817 H       
  59 H59            3.0477    -3.9804     1.0368 H       
  60 H60            1.6390    -4.5320     1.9747 H       
  61 H61            1.7800    -5.7165    -0.1991 H       
  62 H62            0.3162    -4.7073    -0.1152 H       
  63 H63            2.9428    -3.9249    -1.4588 H       
  64 H64            1.4594    -4.4370    -2.2989 H       
  65 H65            0.2387    -2.5166    -1.3139 H       
  66 H66            1.6473    -1.9650    -2.2518 H       
@<TRIPOS>BOND
   1    1    2 ar
   2    1    7 1
   3    1    6 ar
   4    2    3 ar
   5    2    9 1
   6    3    4 ar
   7    3   34 1
   8    4    5 ar
   9    4   35 1
  10    5    6 ar
  11    5   17 1
  12    6   36 1
  13    7    8 1
  14    7   10 1
  15    8    9 2
  16    8   23 1
  17    9   28 1
  18   10   11 1
  19   10   37 1
  20   10   38 1
  21   11   12 am
  22   11   13 2
  23   12   14 1
  24   12   39 1
  25   14   15 1
  26   14   40 1
  27   14   41 1
  28   15   16 1
  29   15   42 1
  30   15   43 1
  31   16   20 1
  32   16   44 1
  33   16   45 1
  34   17   18 2
  35   17   19 am
  36   19   22 1
  37   19   46 1
  38   20   21 1
  39   20   47 1
  40   20   48 1
  41   21   22 1
  42   21   49 1
  43   21   50 1
  44   22   51 1
  45   22   52 1
  46   23   24 2
  47   23   27 1
  48   24   25 1
  49   24   53 1
  50   25   26 1
  51   26   27 2
  52   26   54 1
  53   27   55 1
  54   28   29 1
  55   28   33 1
  56   28   56 1
  57   29   30 1
  58   29   57 1
  59   29   58 1
  60   30   31 1
  61   30   59 1
  62   30   60 1
  63   31   32 1
  64   31   61 1
  65   31   62 1
  66   32   33 1
  67   32   63 1
  68   32   64 1
  69   33   65 1
  70   33   66 1

#	End of record

