#	Name: ASD03091165
#	Creating user name:	WinNT
#	Creation time:	15. 06. 2019 20:30

#	Modifying user name:	WinNT
#	Modification time:	15. 06. 2019 20:30

#	Program:	/corina/corina34_cracker 3.40 0067  02.08.2006

@<TRIPOS>MOLECULE
ASD03091165
  38   41    0    0    0
SMALL
NO_CHARGES


@<TRIPOS>ATOM
   1 N1            -0.0091     1.2835     0.0286 N.2     
   2 C2            -0.2424     0.3822    -0.8758 C.2     
   3 N3             0.6258     0.0878    -1.8797 N.am    
   4 C4             1.8065     0.7412    -1.9827 C.2     
   5 C5             2.1017     1.7689    -0.9732 C.ar    
   6 C6             3.2886     2.4979    -0.9895 C.ar    
   7 C7             3.5112     3.4529    -0.0120 C.ar    
   8 C8             2.5575     3.6835     0.9794 C.ar    
   9 C9             1.3900     2.9756     1.0074 C.ar    
  10 C10            1.1394     2.0066     0.0332 C.ar    
  11 O11            2.5937     0.4877    -2.8760 O.2     
  12 N12            6.8715     5.8413    -1.1682 N.3     
  13 C13            6.9671     4.3819    -1.0112 C.3     
  14 C14            5.5904     3.7413    -1.0946 C.3     
  15 N15            4.6987     4.1899    -0.0184 N.3     
  16 C16            4.4250     5.6288    -0.1385 C.3     
  17 C17            5.3937     6.4270     0.7212 C.3     
  18 C18            6.7966     6.4848     0.1512 C.3     
  19 C19            5.8623     6.3217    -2.0876 C.3     
  20 C20            4.4531     6.0202    -1.6047 C.3     
  21 H21           -1.1740    -0.1620    -0.8282 H       
  22 H22            0.3971    -0.5969    -2.5276 H       
  23 H23            4.0277     2.3198    -1.7565 H       
  24 H24            2.7451     4.4316     1.7353 H       
  25 H25            0.6613     3.1649     1.7818 H       
  26 H26            7.6001     3.9766    -1.8005 H       
  27 H27            7.4114     4.1533    -0.0425 H       
  28 H28            5.1405     3.9950    -2.0545 H       
  29 H29            5.7005     2.6586    -1.0336 H       
  30 H30            3.4156     5.8118     0.2299 H       
  31 H31            5.0151     7.4442     0.8217 H       
  32 H32            5.4372     5.9737     1.7115 H       
  33 H33            7.4791     5.9781     0.8335 H       
  34 H34            7.0994     7.5276     0.0562 H       
  35 H35            5.9734     7.3999    -2.2025 H       
  36 H36            6.0128     5.8472    -3.0572 H       
  37 H37            4.0428     5.2027    -2.1975 H       
  38 H38            3.8328     6.9051    -1.7471 H       
@<TRIPOS>BOND
   1    1    2 2
   2    1   10 1
   3    2    3 1
   4    2   21 1
   5    3    4 am
   6    3   22 1
   7    4    5 1
   8    4   11 2
   9    5    6 ar
  10    5   10 ar
  11    6    7 ar
  12    6   23 1
  13    7    8 ar
  14    7   15 1
  15    8    9 ar
  16    8   24 1
  17    9   10 ar
  18    9   25 1
  19   12   13 1
  20   12   18 1
  21   12   19 1
  22   13   14 1
  23   13   26 1
  24   13   27 1
  25   14   15 1
  26   14   28 1
  27   14   29 1
  28   15   16 1
  29   16   17 1
  30   16   20 1
  31   16   30 1
  32   17   18 1
  33   17   31 1
  34   17   32 1
  35   18   33 1
  36   18   34 1
  37   19   20 1
  38   19   35 1
  39   19   36 1
  40   20   37 1
  41   20   38 1

#	End of record

