#	Name: ASD03330842
#	Creating user name:	WinNT
#	Creation time:	15. 06. 2019 20:38

#	Modifying user name:	WinNT
#	Modification time:	15. 06. 2019 20:38

#	Program:	/corina/corina34_cracker 3.40 0067  02.08.2006

@<TRIPOS>MOLECULE
ASD03330842
  66   68    0    0    0
SMALL
NO_CHARGES


@<TRIPOS>ATOM
   1 C1            -0.8732     2.8172    -0.8181 C.2     
   2 N2            -1.2982     1.5611    -1.0909 N.pl3   
   3 C3             0.4846     2.7695    -0.7181 C.2     
   4 N4             0.8697     1.4952    -0.9473 N.2     
   5 C5            -0.1949     0.7633    -1.1779 C.2     
   6 C6            -0.1980    -0.6848    -1.4815 C.ar    
   7 C7             0.6641    -1.1993    -2.4499 C.ar    
   8 C8             1.3740     3.9048    -0.4148 C.2     
   9 O9             0.9052     5.0112    -0.2272 O.2     
  10 C10            3.5909     4.8454    -0.0439 C.3     
  11 N11            2.7068     3.7169    -0.3454 N.am    
  12 C12            0.6563    -2.5508    -2.7284 C.ar    
  13 C13           -0.2040    -3.3949    -2.0497 C.ar    
  14 C14           -1.0620    -2.8906    -1.0883 C.ar    
  15 C15           -1.0594    -1.5423    -0.7962 C.ar    
  16 C16           -2.6968     1.1517    -1.2461 C.3     
  17 C17           -3.4118     2.1432    -2.1691 C.3     
  18 C18           -3.9626     3.3055    -1.3489 C.3     
  19 N19           -3.0849     3.6125    -0.2176 N.3     
  20 C20           -1.7520     4.0328    -0.6746 C.3     
  21 C21           -3.6870     4.6293     0.6550 C.3     
  22 C22            3.6855     5.0283     1.4721 C.3     
  23 C23            4.3801     3.8132     2.0901 C.3     
  24 C24            4.4922     6.2903     1.7842 C.3     
  25 C25            2.2787     5.1644     2.0582 C.3     
  26 C26            4.9631     4.5720    -0.6035 C.2     
  27 O27            5.2462     3.4612    -0.9997 O.2     
  28 N28            5.8759     5.5618    -0.6637 N.am    
  29 C29            7.2369     5.2761    -1.1244 C.3     
  30 C30           -0.2073    -4.8698    -2.3589 C.3     
  31 C31            1.6017    -0.2810    -3.1907 C.3     
  32 F32            0.7126    -5.5219    -1.5308 F       
  33 F33           -1.4866    -5.3902    -2.1355 F       
  34 F34            0.1490    -5.0664    -3.6974 F       
  35 H35            3.1887     5.7526    -0.4949 H       
  36 H36            3.0806     2.8344    -0.4951 H       
  37 H37            1.3230    -2.9503    -3.4783 H       
  38 H38           -1.7316    -3.5547    -0.5619 H       
  39 H39           -1.7292    -1.1500    -0.0453 H       
  40 H40           -2.7379     0.1535    -1.6820 H       
  41 H41           -3.1846     1.1447    -0.2713 H       
  42 H42           -2.7068     2.5232    -2.9085 H       
  43 H43           -4.2324     1.6377    -2.6781 H       
  44 H44           -4.0458     4.1856    -1.9865 H       
  45 H45           -4.9513     3.0417    -0.9735 H       
  46 H46           -1.3148     4.7144     0.0549 H       
  47 H47           -1.8389     4.5353    -1.6380 H       
  48 H48           -4.6377     4.2607     1.0402 H       
  49 H49           -3.0145     4.8386     1.4869 H       
  50 H50           -3.8556     5.5432     0.0854 H       
  51 H51            5.3823     3.7162     1.6726 H       
  52 H52            4.4475     3.9435     3.1702 H       
  53 H53            3.8053     2.9141     1.8677 H       
  54 H54            3.9369     7.1678     1.4529 H       
  55 H55            4.6656     6.3543     2.8585 H       
  56 H56            5.4490     6.2479     1.2637 H       
  57 H57            1.7040     4.2653     1.8358 H       
  58 H58            2.3461     5.2947     3.1383 H       
  59 H59            1.7839     6.0301     1.6180 H       
  60 H60            5.6316     6.4633    -0.4021 H       
  61 H61            7.8269     6.1925    -1.1051 H       
  62 H62            7.6945     4.5355    -0.4685 H       
  63 H63            7.2020     4.8879    -2.1423 H       
  64 H64            2.5074    -0.1346    -2.6021 H       
  65 H65            1.8608    -0.7248    -4.1520 H       
  66 H66            1.1150     0.6806    -3.3538 H       
@<TRIPOS>BOND
   1    1    2 1
   2    1    3 2
   3    1   20 1
   4    2   16 1
   5    2    5 1
   6    3    4 1
   7    3    8 1
   8    4    5 2
   9    5    6 1
  10    6    7 ar
  11    6   15 ar
  12    7   12 ar
  13    7   31 1
  14    8    9 2
  15    8   11 am
  16   10   11 1
  17   10   22 1
  18   10   26 1
  19   10   35 1
  20   11   36 1
  21   12   13 ar
  22   12   37 1
  23   13   14 ar
  24   13   30 1
  25   14   15 ar
  26   14   38 1
  27   15   39 1
  28   16   17 1
  29   16   40 1
  30   16   41 1
  31   17   18 1
  32   17   42 1
  33   17   43 1
  34   18   19 1
  35   18   44 1
  36   18   45 1
  37   19   20 1
  38   19   21 1
  39   20   46 1
  40   20   47 1
  41   21   48 1
  42   21   49 1
  43   21   50 1
  44   22   23 1
  45   22   24 1
  46   22   25 1
  47   23   51 1
  48   23   52 1
  49   23   53 1
  50   24   54 1
  51   24   55 1
  52   24   56 1
  53   25   57 1
  54   25   58 1
  55   25   59 1
  56   26   27 2
  57   26   28 am
  58   28   29 1
  59   28   60 1
  60   29   61 1
  61   29   62 1
  62   29   63 1
  63   30   32 1
  64   30   33 1
  65   30   34 1
  66   31   64 1
  67   31   65 1
  68   31   66 1

#	End of record

