#	Name: ASD01120126
#	Creating user name:	WinNT
#	Creation time:	15. 06. 2019 18:59

#	Modifying user name:	WinNT
#	Modification time:	15. 06. 2019 18:59

#	Program:	/corina/corina34_cracker 3.40 0067  02.08.2006

@<TRIPOS>MOLECULE
ASD01120126
  33   35    0    0    0
SMALL
NO_CHARGES


@<TRIPOS>ATOM
   1 C1            -0.0349     1.2526    -0.6807 C.ar    
   2 C2             1.0742     1.6097    -1.4502 C.ar    
   3 C3             2.2998     0.9787    -1.2338 C.ar    
   4 C4             2.4078     0.0016    -0.2563 C.ar    
   5 C5             1.2972    -0.3465     0.5044 C.ar    
   6 C6             0.0834     0.2785     0.2899 C.ar    
   7 N7             3.6332    -0.6340    -0.0357 N.pl3   
   8 C8             4.8152     0.0815    -0.1478 C.2     
   9 N9             6.0072    -0.4256    -0.0802 N.2     
  10 C10            7.0289     0.4190    -0.2104 C.2     
  11 C11            6.6897     1.7062    -0.3977 C.2     
  12 S12            4.9314     1.8186    -0.4117 S.3     
  13 C13            8.4414    -0.0292    -0.1523 C.ar    
  14 C14            8.7404    -1.3764     0.0441 C.ar    
  15 C15           10.0567    -1.7877     0.0968 C.ar    
  16 C16           11.0784    -0.8659    -0.0447 C.ar    
  17 C17           10.7876     0.4724    -0.2397 C.ar    
  18 C18            9.4750     0.8944    -0.2995 C.ar    
  19 C19            0.9503     2.6517    -2.4902 C.2     
  20 O20            1.9165     2.9607    -3.1585 O.2     
  21 O21           -0.2341     3.2590    -2.6975 O.3     
  22 H22           -0.9842     1.7418    -0.8420 H       
  23 H23            3.1612     1.2504    -1.8260 H       
  24 H24            1.3834    -1.1079     1.2654 H       
  25 H25           -0.7756     0.0041     0.8843 H       
  26 H26            3.6564    -1.5756     0.1958 H       
  27 H27            7.3772     2.5297    -0.5225 H       
  28 H28            7.9436    -2.0969     0.1550 H       
  29 H29           10.2896    -2.8312     0.2492 H       
  30 H30           12.1070    -1.1922    -0.0024 H       
  31 H31           11.5892     1.1877    -0.3496 H       
  32 H32            9.2491     1.9395    -0.4519 H       
  33 H33           -0.2661     3.9344    -3.3889 H       
@<TRIPOS>BOND
   1    1    2 ar
   2    1    6 ar
   3    1   22 1
   4    2    3 ar
   5    2   19 1
   6    3    4 ar
   7    3   23 1
   8    4    5 ar
   9    4    7 1
  10    5    6 ar
  11    5   24 1
  12    6   25 1
  13    7    8 1
  14    7   26 1
  15    8    9 2
  16    8   12 1
  17    9   10 1
  18   10   11 2
  19   10   13 1
  20   11   12 1
  21   11   27 1
  22   13   14 ar
  23   13   18 ar
  24   14   15 ar
  25   14   28 1
  26   15   16 ar
  27   15   29 1
  28   16   17 ar
  29   16   30 1
  30   17   18 ar
  31   17   31 1
  32   18   32 1
  33   19   20 2
  34   19   21 1
  35   21   33 1

#	End of record

