#	Name: ASD03430650
#	Creating user name:	WinNT
#	Creation time:	15. 06. 2019 20:41

#	Modifying user name:	WinNT
#	Modification time:	15. 06. 2019 20:41

#	Program:	/corina/corina34_cracker 3.40 0067  02.08.2006

@<TRIPOS>MOLECULE
ASD03430650
  56   61    0    0    0
SMALL
NO_CHARGES


@<TRIPOS>ATOM
   1 N1            -0.0157     1.4932     0.4901 N.am    
   2 C2             0.0409     0.2263     0.9344 C.2     
   3 C3             1.4805    -0.0488     1.3138 C.3     
   4 C4             2.1944     1.2486     1.0118 C.ar    
   5 C5             3.5068     1.6460     1.1354 C.ar    
   6 C6             3.8770     2.9283     0.7697 C.ar    
   7 C7             2.9262     3.8059     0.2812 C.ar    
   8 C8             1.6107     3.4103     0.1564 C.ar    
   9 C9             1.2302     2.1206     0.5226 C.ar    
  10 O10           -0.8869    -0.5505     1.0164 O.2     
  11 N11            1.8585    -1.2484     6.7949 N.ar    
  12 C12            2.3672    -2.4018     7.1647 C.ar    
  13 C13            2.8104    -3.3233     6.2142 C.ar    
  14 N14            2.7276    -3.0562     4.9307 N.ar    
  15 C15            2.2134    -1.8896     4.5280 C.ar    
  16 C16            2.1123    -1.5750     3.1610 C.ar    
  17 C17            1.5859    -0.3806     2.7800 C.ar    
  18 C18            1.1414     0.5446     3.7305 C.ar    
  19 C19            1.2248     0.2715     5.0663 C.ar    
  20 C20            1.7633    -0.9527     5.4934 C.ar    
  21 O21            0.6204     1.7300     3.3197 O.3     
  22 O22            2.0136    -1.1103     0.5193 O.3     
  23 C23           -1.2434     2.1395     0.0197 C.3     
  24 C24           -0.9991     2.7578    -1.3327 C.ar    
  25 C25           -1.5151     4.0065    -1.6251 C.ar    
  26 C26           -1.2910     4.5737    -2.8657 C.ar    
  27 C27           -0.5507     3.8924    -3.8136 C.ar    
  28 C28           -0.0340     2.6442    -3.5209 C.ar    
  29 C29           -0.2543     2.0788    -2.2788 C.ar    
  30 C30           -2.3417     1.1132    -0.0881 C.ar    
  31 C31           -3.4804     1.2356     0.6860 C.ar    
  32 C32           -4.4879     0.2942     0.5871 C.ar    
  33 C33           -4.3568    -0.7692    -0.2863 C.ar    
  34 C34           -3.2185    -0.8911    -1.0611 C.ar    
  35 C35           -2.2129     0.0526    -0.9653 C.ar    
  36 H36            4.2463     0.9579     1.5176 H       
  37 H37            4.9057     3.2431     0.8658 H       
  38 H38            3.2153     4.8067    -0.0038 H       
  39 H39            0.8740     4.1014    -0.2259 H       
  40 H40            2.4437    -2.6396     8.2154 H       
  41 H41            3.2263    -4.2661     6.5377 H       
  42 H42            2.4522    -2.2795     2.4164 H       
  43 H43            0.8786     0.9941     5.7904 H       
  44 H44           -0.3358     1.7109     3.1768 H       
  45 H45            1.5527    -1.9533     0.6290 H       
  46 H46           -1.5391     2.9153     0.7259 H       
  47 H47           -2.0935     4.5388    -0.8845 H       
  48 H48           -1.6947     5.5490    -3.0944 H       
  49 H49           -0.3762     4.3353    -4.7831 H       
  50 H50            0.5442     2.1118    -4.2616 H       
  51 H51            0.1525     1.1052    -2.0488 H       
  52 H52           -3.5828     2.0665     1.3683 H       
  53 H53           -5.3772     0.3895     1.1924 H       
  54 H54           -5.1436    -1.5051    -0.3630 H       
  55 H55           -3.1159    -1.7221    -1.7431 H       
  56 H56           -1.3252    -0.0405    -1.5733 H       
@<TRIPOS>BOND
   1    1    2 am
   2    1    9 1
   3    1   23 1
   4    2    3 1
   5    2   10 2
   6    3    4 1
   7    3   17 1
   8    3   22 1
   9    4    5 ar
  10    4    9 ar
  11    5    6 ar
  12    5   36 1
  13    6    7 ar
  14    6   37 1
  15    7    8 ar
  16    7   38 1
  17    8    9 ar
  18    8   39 1
  19   11   12 ar
  20   11   20 ar
  21   12   13 ar
  22   12   40 1
  23   13   14 ar
  24   13   41 1
  25   14   15 ar
  26   15   16 ar
  27   15   20 ar
  28   16   17 ar
  29   16   42 1
  30   17   18 ar
  31   18   19 ar
  32   18   21 1
  33   19   20 ar
  34   19   43 1
  35   21   44 1
  36   22   45 1
  37   23   24 1
  38   23   30 1
  39   23   46 1
  40   24   25 ar
  41   24   29 ar
  42   25   26 ar
  43   25   47 1
  44   26   27 ar
  45   26   48 1
  46   27   28 ar
  47   27   49 1
  48   28   29 ar
  49   28   50 1
  50   29   51 1
  51   30   31 ar
  52   30   35 ar
  53   31   32 ar
  54   31   52 1
  55   32   33 ar
  56   32   53 1
  57   33   34 ar
  58   33   54 1
  59   34   35 ar
  60   34   55 1
  61   35   56 1

#	End of record

