#	Name: ASD02198069
#	Creating user name:	WinNT
#	Creation time:	15. 06. 2019 20:18

#	Modifying user name:	WinNT
#	Modification time:	15. 06. 2019 20:18

#	Program:	/corina/corina34_cracker 3.40 0067  02.08.2006

@<TRIPOS>MOLECULE
ASD02198069
  46   48    0    0    0
SMALL
NO_CHARGES


@<TRIPOS>ATOM
   1 C1            -0.0166     1.3754     0.0096 C.2     
   2 C2             0.0021    -0.0041     0.0020 C.2     
   3 C3            -1.1878    -0.8007     0.0087 C.1     
   4 S4             1.5674     2.0057    -0.0021 S.3     
   5 C5             2.2773     0.3993    -0.0175 C.2     
   6 C6             1.2821    -0.5521    -0.0131 C.2     
   7 C7             3.6563     0.1257    -0.0331 C.2     
   8 C8             4.6330     1.2405    -0.0370 C.ar    
   9 O9             4.0487    -1.0286    -0.0434 O.2     
  10 N10            1.5289    -1.9150    -0.0228 N.pl3   
  11 N11           -1.1592     2.1392     0.0194 N.pl3   
  12 N12           -2.1318    -1.4327     0.0139 N.1     
  13 C13            5.9981     0.9628    -0.0524 C.ar    
  14 C14           -1.0631     3.6010     0.0268 C.3     
  15 C15           -2.4689     4.2046     0.0370 C.3     
  16 N16           -2.3725     5.6704     0.0445 N.3     
  17 C17           -3.6863     6.2854    -0.1837 C.3     
  18 C18           -1.3889     6.1381    -0.9405 C.3     
  19 C19           -1.2089     7.6518    -0.8045 C.3     
  20 C20           -2.5558     8.3435    -1.0323 C.3     
  21 C21           -3.5749     7.8035    -0.0251 C.3     
  22 C22            6.8990     2.0155    -0.0558 C.ar    
  23 C23            6.4035     3.3103    -0.0437 C.ar    
  24 C24            5.0334     3.5130    -0.0286 C.ar    
  25 N25            4.1997     2.4952    -0.0311 N.ar    
  26 H26            2.4419    -2.2425    -0.0333 H       
  27 H27            0.7888    -2.5420    -0.0191 H       
  28 H28           -2.0293     1.7104     0.0213 H       
  29 H29            6.3492    -0.0585    -0.0612 H       
  30 H30           -0.5221     3.9250     0.9159 H       
  31 H31           -0.5309     3.9347    -0.8640 H       
  32 H32           -3.0099     3.8806    -0.8521 H       
  33 H33           -3.0011     3.8709     0.9279 H       
  34 H34           -4.0275     6.0496    -1.1918 H       
  35 H35           -4.4006     5.8959     0.5417 H       
  36 H36           -0.4346     5.6417    -0.7647 H       
  37 H37           -1.7409     5.9030    -1.9449 H       
  38 H38           -0.8438     7.8864     0.1954 H       
  39 H39           -0.4905     8.0009    -1.5461 H       
  40 H40           -2.4412     9.4186    -0.8936 H       
  41 H41           -2.9026     8.1409    -2.0456 H       
  42 H42           -4.5468     8.2610    -0.2100 H       
  43 H43           -3.2470     8.0405     0.9870 H       
  44 H44            7.9632     1.8316    -0.0673 H       
  45 H45            7.0793     4.1527    -0.0456 H       
  46 H46            4.6440     4.5204    -0.0191 H       
@<TRIPOS>BOND
   1    1    2 2
   2    1    4 1
   3    1   11 1
   4    2    3 1
   5    2    6 1
   6    3   12 3
   7    4    5 1
   8    5    6 2
   9    5    7 1
  10    6   10 1
  11    7    8 1
  12    7    9 2
  13    8   13 ar
  14    8   25 ar
  15   10   26 1
  16   10   27 1
  17   11   14 1
  18   11   28 1
  19   13   22 ar
  20   13   29 1
  21   14   15 1
  22   14   30 1
  23   14   31 1
  24   15   16 1
  25   15   32 1
  26   15   33 1
  27   16   17 1
  28   16   18 1
  29   17   21 1
  30   17   34 1
  31   17   35 1
  32   18   19 1
  33   18   36 1
  34   18   37 1
  35   19   20 1
  36   19   38 1
  37   19   39 1
  38   20   21 1
  39   20   40 1
  40   20   41 1
  41   21   42 1
  42   21   43 1
  43   22   23 ar
  44   22   44 1
  45   23   24 ar
  46   23   45 1
  47   24   25 ar
  48   24   46 1

#	End of record

