#	Name: ASD05420010
#	Creating user name:	WinNT
#	Creation time:	15. 06. 2019 20:59

#	Modifying user name:	WinNT
#	Modification time:	15. 06. 2019 20:59

#	Program:	/corina/corina34_cracker 3.40 0067  02.08.2006

@<TRIPOS>MOLECULE
ASD05420010
  40   41    0    0    0
SMALL
NO_CHARGES


@<TRIPOS>ATOM
   1 C1            -0.4599     0.8752    -0.3646 C.2     
   2 N2             0.0275    -0.1029     0.4243 N.am    
   3 O3             0.1847     1.2642    -1.3185 O.2     
   4 O4            -1.6635     1.4175    -0.0989 O.3     
   5 C5             1.2337    -0.7377     0.0907 C.ar    
   6 C6             2.4347    -0.0434     0.1870 C.ar    
   7 C7             3.6223    -0.6694    -0.1418 C.ar    
   8 C8             3.6151    -1.9914    -0.5680 C.ar    
   9 C9             2.4153    -2.6835    -0.6636 C.ar    
  10 C10            1.2287    -2.0598    -0.3296 C.ar    
  11 N11           -0.0492    -2.8006    -0.4262 N.pl3   
  12 O12           -0.0460    -3.9871    -0.7012 O.2     
  13 O13           -1.1039    -2.2236    -0.2306 O.2     
  14 N14            4.8169    -2.6254    -0.9013 N.pl3   
  15 C15            6.0828    -1.8950    -0.8009 C.3     
  16 C16            7.2173    -2.7970    -1.2136 C.ar    
  17 C17            7.6159    -2.8442    -2.5365 C.ar    
  18 C18            8.6565    -3.6707    -2.9161 C.ar    
  19 C19            9.2998    -4.4516    -1.9708 C.ar    
  20 C20            8.8997    -4.4034    -0.6462 C.ar    
  21 C21            7.8623    -3.5723    -0.2681 C.ar    
  22 F22           10.3169    -5.2602    -2.3408 F       
  23 F23            2.4406     1.2426     0.6012 F       
  24 C24           -2.1252     2.4663    -0.9906 C.3     
  25 C25           -3.5007     2.9557    -0.5331 C.3     
  26 H26           -0.4555    -0.3681     1.2226 H       
  27 H27            4.5555    -0.1307    -0.0677 H       
  28 H28            2.4101    -3.7114    -0.9951 H       
  29 H29            4.8119    -3.5486    -1.1990 H       
  30 H30            6.0533    -1.0249    -1.4568 H       
  31 H31            6.2336    -1.5691     0.2283 H       
  32 H32            7.1138    -2.2353    -3.2737 H       
  33 H33            8.9675    -3.7077    -3.9496 H       
  34 H34            9.4007    -5.0121     0.0920 H       
  35 H35            7.5527    -3.5315     0.7658 H       
  36 H36           -1.4193     3.2965    -0.9713 H       
  37 H37           -2.1979     2.0747    -2.0052 H       
  38 H38           -4.2067     2.1255    -0.5524 H       
  39 H39           -3.4280     3.3473     0.4816 H       
  40 H40           -3.8474     3.7431    -1.2024 H       
@<TRIPOS>BOND
   1    1    2 am
   2    1    3 2
   3    1    4 1
   4    2    5 1
   5    2   26 1
   6    4   24 1
   7    5    6 ar
   8    5   10 ar
   9    6    7 ar
  10    6   23 1
  11    7    8 ar
  12    7   27 1
  13    8    9 ar
  14    8   14 1
  15    9   10 ar
  16    9   28 1
  17   10   11 1
  18   11   12 2
  19   11   13 2
  20   14   15 1
  21   14   29 1
  22   15   16 1
  23   15   30 1
  24   15   31 1
  25   16   17 ar
  26   16   21 ar
  27   17   18 ar
  28   17   32 1
  29   18   19 ar
  30   18   33 1
  31   19   20 ar
  32   19   22 1
  33   20   21 ar
  34   20   34 1
  35   21   35 1
  36   24   25 1
  37   24   36 1
  38   24   37 1
  39   25   38 1
  40   25   39 1
  41   25   40 1

#	End of record

