#	Name: ASD02198374
#	Creating user name:	WinNT
#	Creation time:	15. 06. 2019 20:19

#	Modifying user name:	WinNT
#	Modification time:	15. 06. 2019 20:19

#	Program:	/corina/corina34_cracker 3.40 0067  02.08.2006

@<TRIPOS>MOLECULE
ASD02198374
  39   42    0    0    0
SMALL
NO_CHARGES


@<TRIPOS>ATOM
   1 C1            -0.0167     1.3811     0.0096 C.2     
   2 C2             0.0021    -0.0041     0.0020 C.2     
   3 S3             1.6545     1.9386    -0.0033 S.3     
   4 C4             2.2111     0.3233    -0.0173 C.2     
   5 N5             1.2118    -0.5119    -0.0123 N.2     
   6 N6            -1.1456    -0.7783     0.0088 N.pl3   
   7 C7            -1.1630     2.1953     0.0197 C.2     
   8 O8            -2.2719     1.6874     0.0225 O.2     
   9 C9            -1.0241     3.6672     0.0270 C.2     
  10 N10            3.5360    -0.0454    -0.0319 N.pl3   
  11 C11            3.9016    -1.4640    -0.0431 C.3     
  12 C12            5.2959    -1.6441    -0.6683 C.3     
  13 C13            6.1873    -2.2805     0.4182 C.3     
  14 C14            5.1857    -2.9861     1.3658 C.3     
  15 C15            3.9942    -1.9972     1.4016 C.3     
  16 S16           -2.3661     4.8036     0.0399 S.3     
  17 C17           -1.2344     6.1539     0.0416 C.ar    
  18 C18            0.0686     5.6366     0.0323 C.ar    
  19 N19            0.0990     4.3021     0.0305 N.2     
  20 C20           -1.4442     7.5329     0.0505 C.ar    
  21 C21           -0.3704     8.3925     0.0503 C.ar    
  22 C22            0.9242     7.8887     0.0407 C.ar    
  23 C23            1.1506     6.5481     0.0319 C.ar    
  24 H24           -2.0174    -0.3531     0.0194 H       
  25 H25           -1.0779    -1.7459     0.0030 H       
  26 H26            4.2285     0.6339    -0.0349 H       
  27 H27            3.1633    -2.0351    -0.6060 H       
  28 H28            5.2345    -2.3034    -1.5342 H       
  29 H29            5.7007    -0.6761    -0.9635 H       
  30 H30            6.8694    -3.0062    -0.0248 H       
  31 H31            6.7428    -1.5113     0.9546 H       
  32 H32            4.8774    -3.9477     0.9554 H       
  33 H33            5.6156    -3.1091     2.3599 H       
  34 H34            4.1956    -1.1822     2.0968 H       
  35 H35            3.0758    -2.5161     1.6763 H       
  36 H36           -2.4502     7.9258     0.0572 H       
  37 H37           -0.5339     9.4600     0.0572 H       
  38 H38            1.7616     8.5707     0.0398 H       
  39 H39            2.1645     6.1760     0.0244 H       
@<TRIPOS>BOND
   1    1    2 2
   2    1    3 1
   3    1    7 1
   4    2    6 1
   5    2    5 1
   6    3    4 1
   7    4    5 2
   8    4   10 1
   9    6   24 1
  10    6   25 1
  11    7    8 2
  12    7    9 1
  13    9   16 1
  14    9   19 2
  15   10   11 1
  16   10   26 1
  17   11   12 1
  18   11   15 1
  19   11   27 1
  20   12   13 1
  21   12   28 1
  22   12   29 1
  23   13   14 1
  24   13   30 1
  25   13   31 1
  26   14   15 1
  27   14   32 1
  28   14   33 1
  29   15   34 1
  30   15   35 1
  31   16   17 1
  32   17   18 ar
  33   17   20 ar
  34   18   19 1
  35   18   23 ar
  36   20   21 ar
  37   20   36 1
  38   21   22 ar
  39   21   37 1
  40   22   23 ar
  41   22   38 1
  42   23   39 1

#	End of record

