#	Name: ASD01140491
#	Creating user name:	WinNT
#	Creation time:	15. 06. 2019 19:01

#	Modifying user name:	WinNT
#	Modification time:	15. 06. 2019 19:01

#	Program:	/corina/corina34_cracker 3.40 0067  02.08.2006

@<TRIPOS>MOLECULE
ASD01140491
  27   28    0    0    0
SMALL
NO_CHARGES


@<TRIPOS>ATOM
   1 C1            -0.0184     1.5053     0.0103 C.3     
   2 C2             0.0021    -0.0041     0.0020 C.2     
   3 C3             1.1500    -0.6374    -0.0753 C.2     
   4 C4             2.4110     0.2063    -0.1444 C.3     
   5 C5             1.4195     2.0421    -0.0005 C.3     
   6 C6             2.2429     1.3817    -1.1252 C.3     
   7 C7             2.3466     1.2844     0.9652 C.3     
   8 C8             3.5487     2.1114    -1.4469 C.3     
   9 C9             1.4246     1.0365    -2.3710 C.3     
  10 C10            1.2136    -2.1429    -0.0942 C.3     
  11 O11           -0.1098    -2.6766    -0.0177 O.3     
  12 H12           -0.5467     1.8657    -0.8723 H       
  13 H13           -0.5298     1.8561     0.9067 H       
  14 H14           -0.9220    -0.5600     0.0597 H       
  15 H15            3.3380    -0.3607    -0.2293 H       
  16 H16            1.4842     3.1295     0.0389 H       
  17 H17            1.8545     0.9495     1.8783 H       
  18 H18            3.2969     1.7856     1.1495 H       
  19 H19            4.2536     1.4129    -1.8978 H       
  20 H20            3.3479     2.9254    -2.1434 H       
  21 H21            3.9748     2.5156    -0.5286 H       
  22 H22            0.4252     0.7194    -2.0729 H       
  23 H23            1.3509     1.9149    -3.0122 H       
  24 H24            1.9146     0.2293    -2.9154 H       
  25 H25            1.6864    -2.4750    -1.0185 H       
  26 H26            1.7963    -2.4927     0.7580 H       
  27 H27           -0.1453    -3.6429    -0.0251 H       
@<TRIPOS>BOND
   1    1    2 1
   2    1    5 1
   3    1   12 1
   4    1   13 1
   5    2    3 2
   6    2   14 1
   7    3    4 1
   8    3   10 1
   9    4    6 1
  10    4    7 1
  11    4   15 1
  12    5    6 1
  13    5    7 1
  14    5   16 1
  15    6    8 1
  16    6    9 1
  17    7   17 1
  18    7   18 1
  19    8   19 1
  20    8   20 1
  21    8   21 1
  22    9   22 1
  23    9   23 1
  24    9   24 1
  25   10   11 1
  26   10   25 1
  27   10   26 1
  28   11   27 1

#	End of record

