#	Name: ASD01410652
#	Creating user name:	WinNT
#	Creation time:	15. 06. 2019 19:18

#	Modifying user name:	WinNT
#	Modification time:	15. 06. 2019 19:18

#	Program:	/corina/corina34_cracker 3.40 0067  02.08.2006

@<TRIPOS>MOLECULE
ASD01410652
  82   85    0    0    0
SMALL
NO_CHARGES


@<TRIPOS>ATOM
   1 C1             3.8200     5.7654    -3.5260 C.ar    
   2 C2             4.3422     5.0414    -4.5887 C.ar    
   3 C3             5.1223     3.9313    -4.3315 C.ar    
   4 N4             5.3747     3.5545    -3.0926 N.ar    
   5 C5             4.8951     4.2186    -2.0537 C.ar    
   6 C6             4.1029     5.3446    -2.2381 C.ar    
   7 O7             5.1793     3.7956    -0.7965 O.3     
   8 C8             5.8705     2.6328    -0.6549 C.ar    
   9 C9             7.2580     2.6312    -0.7736 C.ar    
  10 C10            7.9694     1.4542    -0.6313 C.ar    
  11 C11            7.3035     0.2659    -0.3696 C.ar    
  12 C12            5.9049     0.2619    -0.2491 C.ar    
  13 C13            5.1946     1.4581    -0.3884 C.ar    
  14 F14            7.9122     3.7853    -1.0293 F       
  15 N15            8.0209    -0.9208    -0.2271 N.am    
  16 C16            8.4790    -1.2899     0.9855 C.2     
  17 C17            8.2770    -1.7667    -1.3955 C.3     
  18 O18            9.1764    -2.2760     1.0959 O.2     
  19 C19            8.1245    -0.4774     2.2042 C.3     
  20 C20            9.2640    -0.5607     3.2218 C.3     
  21 C21            8.9041     0.2642     4.4591 C.3     
  22 C22            7.6209    -0.2871     5.0840 C.3     
  23 C23            6.4814    -0.2038     4.0664 C.3     
  24 C24            6.8413    -1.0287     2.8291 C.3     
  25 C25            7.2610     0.5378     6.3214 C.3     
  26 C26            7.7667    -3.1828    -1.1215 C.3     
  27 C27            9.7810    -1.8114    -1.6730 C.3     
  28 C28            4.0604     5.4618    -6.0082 C.3     
  29 O29           10.2250    -0.5221    -2.1005 O.3     
  30 N30            5.1004     6.3969    -6.4575 N.3     
  31 C31           11.6232    -0.4545    -2.3874 C.3     
  32 C32            4.9972     6.6448    -7.9012 C.3     
  33 C33            5.9978     7.7293    -8.3069 C.3     
  34 C34            7.4139     7.2700    -7.9489 C.3     
  35 C35            7.4815     6.9722    -6.4485 C.3     
  36 C36            6.4379     5.9096    -6.0967 C.3     
  37 F37            8.7574     6.4995    -6.1231 F       
  38 F38            7.2182     8.1420    -5.7278 F       
  39 C39            3.5592     6.0983    -1.0517 C.3     
  40 F40            2.7981     7.1840    -1.4980 F       
  41 F41            2.7538     5.2469    -0.2876 F       
  42 F42            4.6208     6.5635    -0.2683 F       
  43 C43            5.1899    -0.9951     0.0288 C.2     
  44 O44            5.8149    -2.0096     0.2679 O.2     
  45 O45            3.8425    -1.0205     0.0179 O.3     
  46 H46            3.2106     6.6399    -3.7000 H       
  47 H47            5.5308     3.3642    -5.1549 H       
  48 H48            9.0453     1.4600    -0.7245 H       
  49 H49            4.1185     1.4620    -0.2968 H       
  50 H50            7.7597    -1.3554    -2.2622 H       
  51 H51            7.9704     0.5623     1.9155 H       
  52 H52            9.4180    -1.6004     3.5105 H       
  53 H53           10.1781    -0.1680     2.7766 H       
  54 H54            9.7159     0.2048     5.1841 H       
  55 H55            8.7500     1.3039     4.1704 H       
  56 H56            7.7750    -1.3268     5.3727 H       
  57 H57            5.5673    -0.5966     4.5116 H       
  58 H58            6.3274     0.8359     3.7777 H       
  59 H59            6.0295    -0.9694     2.1042 H       
  60 H60            6.9954    -2.0684     3.1178 H       
  61 H61            7.1069     1.5775     6.0327 H       
  62 H62            6.3469     0.1450     6.7666 H       
  63 H63            8.0728     0.4784     7.0463 H       
  64 H64            6.6768    -3.1794    -1.1047 H       
  65 H65            8.1158    -3.8531    -1.9070 H       
  66 H66            8.1439    -3.5249    -0.1578 H       
  67 H67           10.3101    -2.0946    -0.7631 H       
  68 H68            9.9846    -2.5433    -2.4546 H       
  69 H69            4.0582     4.5834    -6.6536 H       
  70 H70            3.0872     5.9504    -6.0561 H       
  71 H71           11.8651    -1.1584    -3.1838 H       
  72 H72           11.8805     0.5559    -2.7050 H       
  73 H73           12.1906    -0.7097    -1.4924 H       
  74 H74            5.2178     5.7257    -8.4442 H       
  75 H75            3.9865     6.9748    -8.1417 H       
  76 H76            5.9318     7.9019    -9.3811 H       
  77 H77            5.7693     8.6527    -7.7746 H       
  78 H78            7.6572     6.3681    -8.5106 H       
  79 H79            8.1258     8.0575    -8.1964 H       
  80 H80            6.4736     5.7056    -5.0266 H       
  81 H81            6.6517     4.9940    -6.6481 H       
  82 H82            3.4178    -1.8686     0.2061 H       
@<TRIPOS>BOND
   1    1    2 ar
   2    1    6 ar
   3    1   46 1
   4    2    3 ar
   5    2   28 1
   6    3    4 ar
   7    3   47 1
   8    4    5 ar
   9    5    6 ar
  10    5    7 1
  11    6   39 1
  12    7    8 1
  13    8    9 ar
  14    8   13 ar
  15    9   10 ar
  16    9   14 1
  17   10   11 ar
  18   10   48 1
  19   11   12 ar
  20   11   15 1
  21   12   13 ar
  22   12   43 1
  23   13   49 1
  24   15   16 am
  25   15   17 1
  26   16   18 2
  27   16   19 1
  28   17   26 1
  29   17   27 1
  30   17   50 1
  31   19   20 1
  32   19   24 1
  33   19   51 1
  34   20   21 1
  35   20   52 1
  36   20   53 1
  37   21   22 1
  38   21   54 1
  39   21   55 1
  40   22   23 1
  41   22   25 1
  42   22   56 1
  43   23   24 1
  44   23   57 1
  45   23   58 1
  46   24   59 1
  47   24   60 1
  48   25   61 1
  49   25   62 1
  50   25   63 1
  51   26   64 1
  52   26   65 1
  53   26   66 1
  54   27   29 1
  55   27   67 1
  56   27   68 1
  57   28   30 1
  58   28   69 1
  59   28   70 1
  60   29   31 1
  61   30   32 1
  62   30   36 1
  63   31   71 1
  64   31   72 1
  65   31   73 1
  66   32   33 1
  67   32   74 1
  68   32   75 1
  69   33   34 1
  70   33   76 1
  71   33   77 1
  72   34   35 1
  73   34   78 1
  74   34   79 1
  75   35   36 1
  76   35   37 1
  77   35   38 1
  78   36   80 1
  79   36   81 1
  80   39   40 1
  81   39   41 1
  82   39   42 1
  83   43   44 2
  84   43   45 1
  85   45   82 1

#	End of record

