#	Name: ASD02030735
#	Creating user name:	WinNT
#	Creation time:	15. 06. 2019 20:16

#	Modifying user name:	WinNT
#	Modification time:	15. 06. 2019 20:16

#	Program:	/corina/corina34_cracker 3.40 0067  02.08.2006

@<TRIPOS>MOLECULE
ASD02030735
  31   33    0    0    0
SMALL
NO_CHARGES


@<TRIPOS>ATOM
   1 N1            -0.0169     1.3957     0.0097 N.2     
   2 N2             0.0021    -0.0041     0.0020 N.am    
   3 C3             1.1646    -0.6797    -0.0123 C.2     
   4 N4             2.3448    -0.0325    -0.0200 N.am    
   5 C5             2.3757     1.3164    -0.0131 C.2     
   6 C6             1.1074     2.0610     0.0026 C.2     
   7 O7             1.1494    -1.8958    -0.0178 O.2     
   8 O8             3.4386     1.9089    -0.0192 O.2     
   9 O9             1.1051     3.4197     0.0094 O.3     
  10 C10           -1.2627    -0.7434     0.0101 C.3     
  11 C11           -1.6828    -1.0045     1.4336 C.ar    
  12 C12           -1.4557    -2.2205     2.0019 C.ar    
  13 C13           -1.8371    -2.4802     3.3166 C.ar    
  14 C14           -2.4474    -1.5253     4.0709 C.ar    
  15 C15           -2.6979    -0.2584     3.5188 C.ar    
  16 C16           -3.3263     0.7543     4.2676 C.ar    
  17 C17           -3.5522     1.9718     3.6974 C.ar    
  18 C18           -3.1705     2.2294     2.3825 C.ar    
  19 C19           -2.5607     1.2740     1.6291 C.ar    
  20 C20           -2.3056     0.0076     2.1831 C.ar    
  21 F21           -3.7037     0.5210     5.5437 F       
  22 H22            3.1737    -0.5362    -0.0303 H       
  23 H23            0.2211     3.8114     0.0197 H       
  24 H24           -2.0303    -0.1556    -0.4933 H       
  25 H25           -1.1322    -1.6923    -0.5101 H       
  26 H26           -0.9730    -2.9955     1.4251 H       
  27 H27           -1.6459    -3.4537     3.7435 H       
  28 H28           -2.7379    -1.7409     5.0886 H       
  29 H29           -4.0345     2.7478     4.2733 H       
  30 H30           -3.3617     3.2023     1.9544 H       
  31 H31           -2.2707     1.4891     0.6112 H       
@<TRIPOS>BOND
   1    1    2 1
   2    1    6 2
   3    2    3 am
   4    2   10 1
   5    3    4 am
   6    3    7 2
   7    4    5 am
   8    4   22 1
   9    5    6 1
  10    5    8 2
  11    6    9 1
  12    9   23 1
  13   10   11 1
  14   10   24 1
  15   10   25 1
  16   11   12 ar
  17   11   20 ar
  18   12   13 ar
  19   12   26 1
  20   13   14 ar
  21   13   27 1
  22   14   15 ar
  23   14   28 1
  24   15   16 ar
  25   15   20 ar
  26   16   17 ar
  27   16   21 1
  28   17   18 ar
  29   17   29 1
  30   18   19 ar
  31   18   30 1
  32   19   20 ar
  33   19   31 1

#	End of record

