#	Name: ASD01120046
#	Creating user name:	WinNT
#	Creation time:	15. 06. 2019 18:58

#	Modifying user name:	WinNT
#	Modification time:	15. 06. 2019 18:58

#	Program:	/corina/corina34_cracker 3.40 0067  02.08.2006

@<TRIPOS>MOLECULE
ASD01120046
  51   54    0    0    0
SMALL
NO_CHARGES


@<TRIPOS>ATOM
   1 C1            -0.0888     1.3617     0.6787 C.ar    
   2 C2            -0.0579    -0.0339     0.5504 C.ar    
   3 C3            -1.1977    -0.7360     0.2265 C.ar    
   4 C4            -2.3988    -0.0457     0.0236 C.ar    
   5 C5            -2.4224     1.3649     0.1550 C.ar    
   6 C6            -1.2510     2.0544     0.4902 C.ar    
   7 N7            -3.5368    -0.6828    -0.2941 N.ar    
   8 C8            -4.6471    -0.0089    -0.4785 C.ar    
   9 N9            -4.7166     1.3081    -0.3670 N.ar    
  10 C10           -3.6510     2.0348    -0.0564 C.ar    
  11 N11           -3.7383     3.4077     0.0570 N.pl3   
  12 C12           -4.9834     4.0395    -0.0337 C.ar    
  13 C13           -6.1288     3.3770     0.3787 C.ar    
  14 C14           -7.3664     4.0099     0.2865 C.ar    
  15 C15           -7.4472     5.3057    -0.2198 C.ar    
  16 C16           -6.3023     5.9605    -0.6292 C.ar    
  17 C17           -5.0718     5.3358    -0.5330 C.ar    
  18 C18           -8.5960     3.3055     0.7260 C.2     
  19 O19            1.0495     2.0328     0.9998 O.3     
  20 O20            1.1090    -0.7010     0.7474 O.3     
  21 C21            0.9539     3.4539     1.1159 C.3     
  22 C22            2.3241     4.0291     1.4799 C.3     
  23 C23            1.0762    -2.1223     0.6023 C.3     
  24 C24            2.4720    -2.6935     0.8599 C.3     
  25 C25           -9.8224     3.8620     0.6628 C.2     
  26 S26          -10.9817     2.6874     1.2794 S.3     
  27 C27           -9.7195     1.5700     1.5611 C.2     
  28 N28           -8.5863     2.0720     1.2101 N.2     
  29 C29           -9.9067     0.1890     2.1345 C.3     
  30 F30           -3.9549     5.9812    -0.9345 F       
  31 H31           -1.1651    -1.8111     0.1293 H       
  32 H32           -1.2644     3.1295     0.5918 H       
  33 H33           -5.5445    -0.5531    -0.7331 H       
  34 H34           -2.9363     3.9344     0.1997 H       
  35 H35           -6.0621     2.3727     0.7702 H       
  36 H36           -8.4057     5.7979    -0.2925 H       
  37 H37           -6.3672     6.9648    -1.0213 H       
  38 H38            0.6238     3.8747     0.1662 H       
  39 H39            0.2349     3.7072     1.8950 H       
  40 H40            2.6542     3.6083     2.4297 H       
  41 H41            3.0431     3.7758     0.7008 H       
  42 H42            2.2511     5.1131     1.5685 H       
  43 H43            0.3727    -2.5446     1.3199 H       
  44 H44            0.7603    -2.3770    -0.4093 H       
  45 H45            2.4470    -3.7776     0.7492 H       
  46 H46            3.1755    -2.2712     0.1423 H       
  47 H47            2.7879    -2.4387     1.8715 H       
  48 H48          -10.0532     4.8524     0.2990 H       
  49 H49          -10.9642     0.0202     2.3375 H       
  50 H50           -9.5511    -0.5527     1.4192 H       
  51 H51           -9.3401     0.1006     3.0615 H       
@<TRIPOS>BOND
   1    1    2 ar
   2    1   19 1
   3    1    6 ar
   4    2    3 ar
   5    2   20 1
   6    3    4 ar
   7    3   31 1
   8    4    5 ar
   9    4    7 ar
  10    5    6 ar
  11    5   10 ar
  12    6   32 1
  13    7    8 ar
  14    8    9 ar
  15    8   33 1
  16    9   10 ar
  17   10   11 1
  18   11   12 1
  19   11   34 1
  20   12   13 ar
  21   12   17 ar
  22   13   14 ar
  23   13   35 1
  24   14   15 ar
  25   14   18 1
  26   15   16 ar
  27   15   36 1
  28   16   17 ar
  29   16   37 1
  30   17   30 1
  31   18   25 2
  32   18   28 1
  33   19   21 1
  34   20   23 1
  35   21   22 1
  36   21   38 1
  37   21   39 1
  38   22   40 1
  39   22   41 1
  40   22   42 1
  41   23   24 1
  42   23   43 1
  43   23   44 1
  44   24   45 1
  45   24   46 1
  46   24   47 1
  47   25   26 1
  48   25   48 1
  49   26   27 1
  50   27   28 2
  51   27   29 1
  52   29   49 1
  53   29   50 1
  54   29   51 1

#	End of record

