#	Name: ASD08390039
#	Creating user name:	WinNT
#	Creation time:	15. 06. 2019 21:19

#	Modifying user name:	WinNT
#	Modification time:	15. 06. 2019 21:19

#	Program:	/corina/corina34_cracker 3.40 0067  02.08.2006

@<TRIPOS>MOLECULE
ASD08390039
  37   39    0    0    0
SMALL
NO_CHARGES


@<TRIPOS>ATOM
   1 C1            -0.1650     1.5255     0.0967 C.3     
   2 C2             0.0021    -0.0041     0.0020 C.3     
   3 N3             1.2209     2.0206     0.0493 N.pl3   
   4 C4             2.0605     0.9419    -0.0565 C.2     
   5 N5             1.4556    -0.1993    -0.0876 N.2     
   6 C6             3.5337     1.0735    -0.1285 C.ar    
   7 C7             4.3338    -0.0637    -0.2355 C.ar    
   8 C8             5.7060     0.0653    -0.3021 C.ar    
   9 C9             6.2883     1.3195    -0.2625 C.ar    
  10 C10            5.5000     2.4513    -0.1559 C.ar    
  11 C11            4.1263     2.3355    -0.0953 C.ar    
  12 C12           -0.9563     2.0474    -1.0749 C.ar    
  13 C13           -2.3009     2.3333    -0.9285 C.ar    
  14 C14           -3.0267     2.8120    -2.0031 C.ar    
  15 C15           -2.4080     3.0052    -3.2240 C.ar    
  16 C16           -1.0632     2.7202    -3.3702 C.ar    
  17 C17           -0.3364     2.2456    -2.2944 C.ar    
  18 C18           -0.5537    -0.6827     1.2556 C.3     
  19 C19           -0.6820    -0.5347    -1.2315 C.2     
  20 O20           -1.8211    -0.9324    -1.1667 O.2     
  21 O21           -0.0259    -0.5655    -2.4021 O.3     
  22 H22           -0.6405     1.8030     1.0374 H       
  23 H23            1.4933     2.9509     0.0861 H       
  24 H24            3.8803    -1.0435    -0.2658 H       
  25 H25            6.3266    -0.8147    -0.3850 H       
  26 H26            7.3628     1.4154    -0.3146 H       
  27 H27            5.9604     3.4278    -0.1251 H       
  28 H28            3.5119     3.2198    -0.0124 H       
  29 H29           -2.7843     2.1823     0.0254 H       
  30 H30           -4.0773     3.0346    -1.8889 H       
  31 H31           -2.9752     3.3785    -4.0638 H       
  32 H32           -0.5799     2.8709    -4.3242 H       
  33 H33            0.7142     2.0230    -2.4086 H       
  34 H34           -1.6134    -0.4480     1.3563 H       
  35 H35           -0.4271    -1.7620     1.1709 H       
  36 H36           -0.0167    -0.3216     2.1327 H       
  37 H37           -0.5061    -0.9145    -3.1654 H       
@<TRIPOS>BOND
   1    1    2 1
   2    1    3 1
   3    1   12 1
   4    1   22 1
   5    2   18 1
   6    2   19 1
   7    2    5 1
   8    3    4 1
   9    3   23 1
  10    4    5 2
  11    4    6 1
  12    6    7 ar
  13    6   11 ar
  14    7    8 ar
  15    7   24 1
  16    8    9 ar
  17    8   25 1
  18    9   10 ar
  19    9   26 1
  20   10   11 ar
  21   10   27 1
  22   11   28 1
  23   12   13 ar
  24   12   17 ar
  25   13   14 ar
  26   13   29 1
  27   14   15 ar
  28   14   30 1
  29   15   16 ar
  30   15   31 1
  31   16   17 ar
  32   16   32 1
  33   17   33 1
  34   18   34 1
  35   18   35 1
  36   18   36 1
  37   19   20 2
  38   19   21 1
  39   21   37 1

#	End of record

