#	Name: ASD03330282
#	Creating user name:	WinNT
#	Creation time:	15. 06. 2019 20:36

#	Modifying user name:	WinNT
#	Modification time:	15. 06. 2019 20:36

#	Program:	/corina/corina34_cracker 3.40 0067  02.08.2006

@<TRIPOS>MOLECULE
ASD03330282
  55   58    0    0    0
SMALL
NO_CHARGES


@<TRIPOS>ATOM
   1 C1            -0.2515     1.6633     0.3977 C.3     
   2 N2            -0.1908     0.1981     0.3013 N.3     
   3 C3             0.4722    -0.2263    -0.9450 C.3     
   4 C4             1.7698     0.5309    -1.0634 C.2     
   5 N5             2.0662     1.6377    -0.3330 N.pl3   
   6 C6             1.1530     2.2259     0.6511 C.3     
   7 C7             2.8343     0.2817    -1.8663 C.2     
   8 N8             3.7661     1.2306    -1.6186 N.2     
   9 C9             3.3095     2.0483    -0.6965 C.2     
  10 C10            4.0283     3.2188    -0.1468 C.ar    
  11 C11            5.1506     3.7237    -0.8041 C.ar    
  12 C12            2.9541    -0.8234    -2.8338 C.2     
  13 O13            2.0929    -1.6804    -2.8879 O.2     
  14 N14            4.0181    -0.8843    -3.6588 N.am    
  15 C15            5.8163     4.8159    -0.2866 C.ar    
  16 C16            5.3730     5.4101     0.8814 C.ar    
  17 C17            4.2608     4.9142     1.5379 C.ar    
  18 C18            3.5833     3.8259     1.0278 C.ar    
  19 C19           -1.5312    -0.3928     0.4121 C.3     
  20 C20            5.0118     0.2005    -3.6949 C.3     
  21 C21            6.4074    -0.4172    -3.5505 C.3     
  22 O22            6.5653    -1.4554    -4.5205 O.3     
  23 C23            5.6549    -2.5464    -4.3636 C.3     
  24 C24            4.2238    -2.0404    -4.5457 C.3     
  25 C25           -1.4800    -1.8585    -0.0240 C.3     
  26 C26           -0.6065    -2.6505     0.9509 C.3     
  27 C27           -2.8956    -2.4391    -0.0278 C.3     
  28 H28           -0.6429     2.0719    -0.5340 H       
  29 H29           -0.9087     1.9454     1.2203 H       
  30 H30            0.6724    -1.2971    -0.9096 H       
  31 H31           -0.1666     0.0018    -1.7982 H       
  32 H32            1.1406     3.3101     0.5393 H       
  33 H33            1.4783     1.9631     1.6577 H       
  34 H34            5.4978     3.2604    -1.7158 H       
  35 H35            6.6854     5.2075    -0.7943 H       
  36 H36            5.8977     6.2646     1.2827 H       
  37 H37            3.9197     5.3825     2.4494 H       
  38 H38            2.7151     3.4396     1.5412 H       
  39 H39           -1.8702    -0.3331     1.4463 H       
  40 H40           -2.2230     0.1532    -0.2292 H       
  41 H41            4.9417     0.7311    -4.6445 H       
  42 H42            4.8298     0.8926    -2.8728 H       
  43 H43            7.1639     0.3506    -3.7125 H       
  44 H44            6.5191    -0.8341    -2.5495 H       
  45 H45            5.8700    -3.3104    -5.1107 H       
  46 H46            5.7639    -2.9710    -3.3657 H       
  47 H47            3.5192    -2.8316    -4.2893 H       
  48 H48            4.0717    -1.7339    -5.5806 H       
  49 H49           -1.0575    -1.9247    -1.0266 H       
  50 H50            0.3759    -2.1834     1.0204 H       
  51 H51           -1.0755    -2.6584     1.9349 H       
  52 H52           -0.4976    -3.6740     0.5921 H       
  53 H53           -3.5179    -1.8748    -0.7224 H       
  54 H54           -2.8592    -3.4832    -0.3385 H       
  55 H55           -3.3181    -2.3729     0.9748 H       
@<TRIPOS>BOND
   1    1    2 1
   2    1    6 1
   3    1   28 1
   4    1   29 1
   5    2    3 1
   6    2   19 1
   7    3    4 1
   8    3   30 1
   9    3   31 1
  10    4    5 1
  11    4    7 2
  12    5    6 1
  13    5    9 1
  14    6   32 1
  15    6   33 1
  16    7    8 1
  17    7   12 1
  18    8    9 2
  19    9   10 1
  20   10   11 ar
  21   10   18 ar
  22   11   15 ar
  23   11   34 1
  24   12   13 2
  25   12   14 am
  26   14   20 1
  27   14   24 1
  28   15   16 ar
  29   15   35 1
  30   16   17 ar
  31   16   36 1
  32   17   18 ar
  33   17   37 1
  34   18   38 1
  35   19   25 1
  36   19   39 1
  37   19   40 1
  38   20   21 1
  39   20   41 1
  40   20   42 1
  41   21   22 1
  42   21   43 1
  43   21   44 1
  44   22   23 1
  45   23   24 1
  46   23   45 1
  47   23   46 1
  48   24   47 1
  49   24   48 1
  50   25   26 1
  51   25   27 1
  52   25   49 1
  53   26   50 1
  54   26   51 1
  55   26   52 1
  56   27   53 1
  57   27   54 1
  58   27   55 1

#	End of record

