#	Name: ASD00191027
#	Creating user name:	WinNT
#	Creation time:	15. 06. 2019 18:33

#	Modifying user name:	WinNT
#	Modification time:	15. 06. 2019 18:33

#	Program:	/corina/corina34_cracker 3.40 0067  02.08.2006

@<TRIPOS>MOLECULE
ASD00191027
  56   60    0    0    0
SMALL
NO_CHARGES


@<TRIPOS>ATOM
   1 C1            -0.0142     1.3576     0.0078 C.ar    
   2 C2             0.0049    -0.0052    -0.0069 C.ar    
   3 C3             1.2068    -0.7047    -0.0364 C.ar    
   4 C4             2.3990    -0.0413    -0.0509 C.ar    
   5 C5             2.4137     1.3571    -0.0365 C.ar    
   6 C6             1.1925     2.0734    -0.0069 C.ar    
   7 C7             3.6589     2.1125    -0.0515 C.ar    
   8 C8             3.5790     3.5085    -0.0357 C.ar    
   9 C9             2.3057     4.1211    -0.0062 C.ar    
  10 N10            1.1983     3.4147     0.0077 N.ar    
  11 N11            4.9900     1.8001    -0.0794 N.pl3   
  12 C12            5.6815     2.9725    -0.0802 C.2     
  13 N13            4.8505     3.9749    -0.0546 N.2     
  14 C14            7.1835     3.0926    -0.1065 C.3     
  15 C15            7.7280     2.9935     1.3199 C.3     
  16 C16            9.2530     3.1154     1.2933 C.3     
  17 C17            9.8401     1.9865     0.4437 C.3     
  18 C18            9.2955     2.0856    -0.9827 C.3     
  19 C19            7.7706     1.9637    -0.9561 C.3     
  20 N20            2.2233     5.5038     0.0095 N.pl3   
  21 C21            0.9755     6.1316    -0.0813 C.ar    
  22 C22            0.7428     7.3162     0.6045 C.ar    
  23 C23           -0.4924     7.9361     0.5136 C.ar    
  24 C24           -1.4976     7.3703    -0.2648 C.ar    
  25 C25           -1.2624     6.1879    -0.9475 C.ar    
  26 C26           -0.0279     5.5726    -0.8618 C.ar    
  27 O27           -0.7228     9.0962     1.1848 O.3     
  28 C28            0.3542     9.6194     1.9647 C.3     
  29 O29           -2.7117     7.9782    -0.3550 O.3     
  30 C30           -3.6966     7.3418    -1.1717 C.3     
  31 H31           -0.9563     1.8854     0.0262 H       
  32 H32           -0.9274    -0.5502     0.0048 H       
  33 H33            1.1962    -1.7846    -0.0476 H       
  34 H34            3.3269    -0.5934    -0.0731 H       
  35 H35            5.3708     0.9081    -0.0953 H       
  36 H36            7.4637     4.0543    -0.5363 H       
  37 H37            7.3098     3.7977     1.9252 H       
  38 H38            7.4479     2.0318     1.7498 H       
  39 H39            9.5331     4.0771     0.8634 H       
  40 H40            9.6409     3.0448     2.3095 H       
  41 H41           10.9264     2.0733     0.4247 H       
  42 H42            9.5599     1.0248     0.8736 H       
  43 H43            9.5757     3.0473    -1.4126 H       
  44 H44            9.7138     1.2814    -1.5880 H       
  45 H45            7.4905     1.0020    -0.5262 H       
  46 H46            7.3827     2.0343    -1.9722 H       
  47 H47            3.0302     6.0370     0.0834 H       
  48 H48            1.5241     7.7537     1.2084 H       
  49 H49           -2.0430     5.7491    -1.5512 H       
  50 H50            0.1535     4.6509    -1.3948 H       
  51 H51            0.6385     8.8924     2.7255 H       
  52 H52            1.2077     9.8202     1.3171 H       
  53 H53            0.0380    10.5446     2.4464 H       
  54 H54           -3.3285     7.2695    -2.1951 H       
  55 H55           -3.8975     6.3422    -0.7863 H       
  56 H56           -4.6152     7.9284    -1.1566 H       
@<TRIPOS>BOND
   1    1    2 ar
   2    1    6 ar
   3    1   31 1
   4    2    3 ar
   5    2   32 1
   6    3    4 ar
   7    3   33 1
   8    4    5 ar
   9    4   34 1
  10    5    6 ar
  11    5    7 ar
  12    6   10 ar
  13    7    8 ar
  14    7   11 1
  15    8    9 ar
  16    8   13 1
  17    9   10 ar
  18    9   20 1
  19   11   12 1
  20   11   35 1
  21   12   13 2
  22   12   14 1
  23   14   15 1
  24   14   19 1
  25   14   36 1
  26   15   16 1
  27   15   37 1
  28   15   38 1
  29   16   17 1
  30   16   39 1
  31   16   40 1
  32   17   18 1
  33   17   41 1
  34   17   42 1
  35   18   19 1
  36   18   43 1
  37   18   44 1
  38   19   45 1
  39   19   46 1
  40   20   21 1
  41   20   47 1
  42   21   22 ar
  43   21   26 ar
  44   22   23 ar
  45   22   48 1
  46   23   24 ar
  47   23   27 1
  48   24   25 ar
  49   24   29 1
  50   25   26 ar
  51   25   49 1
  52   26   50 1
  53   27   28 1
  54   28   51 1
  55   28   52 1
  56   28   53 1
  57   29   30 1
  58   30   54 1
  59   30   55 1
  60   30   56 1

#	End of record

