#	Name: ASD01916792
#	Creating user name:	WinNT
#	Creation time:	15. 06. 2019 20:08

#	Modifying user name:	WinNT
#	Modification time:	15. 06. 2019 20:08

#	Program:	/corina/corina34_cracker 3.40 0067  02.08.2006

@<TRIPOS>MOLECULE
ASD01916792
  59   63    0    0    0
SMALL
NO_CHARGES


@<TRIPOS>ATOM
   1 C1            -0.0169     1.3085     0.0936 C.2     
   2 N2             0.0002     0.0194    -0.1694 N.2     
   3 N3            -1.3358    -0.4129    -0.1802 N.pl3   
   4 C4            -2.0928     0.6770     0.0851 C.2     
   5 N5            -1.2850     1.7025     0.2528 N.2     
   6 C6             1.1777     2.1823     0.2022 C.ar    
   7 C7             1.0281     3.5381     0.4864 C.ar    
   8 C8             2.4525     1.6480     0.0259 C.ar    
   9 C9             3.5605     2.4639     0.1277 C.ar    
  10 C10            3.4069     3.8126     0.4053 C.ar    
  11 C11           -1.8154    -1.7745    -0.4299 C.3     
  12 C12           -1.8523    -2.5400     0.8676 C.2     
  13 N13           -2.2639    -3.8233     0.8814 N.am    
  14 O14           -1.5116    -2.0013     1.8994 O.2     
  15 C15           -2.3076    -4.5886     2.1367 C.3     
  16 C16           -3.6949    -5.2255     2.2705 C.3     
  17 N17           -3.9929    -6.0015     1.0592 N.3     
  18 C18           -4.0539    -5.1362    -0.1263 C.3     
  19 C19           -2.6871    -4.4937    -0.3574 C.3     
  20 C20           -5.1666    -6.7236     1.2081 C.ar    
  21 N21           -5.8624    -6.6560     2.3413 N.ar    
  22 C22           -6.9789    -7.3391     2.4898 C.ar    
  23 N23           -7.4538    -8.1130     1.5348 N.ar    
  24 C24           -6.8171    -8.2339     0.3734 C.ar    
  25 C25           -5.6386    -7.5261     0.1728 C.ar    
  26 C26           -3.5696     0.7091     0.1763 C.ar    
  27 C27           -4.2537     1.9169     0.0385 C.ar    
  28 C28           -5.6307     1.9401     0.1241 C.ar    
  29 C29           -6.3327     0.7689     0.3462 C.ar    
  30 C30           -5.6599    -0.4320     0.4842 C.ar    
  31 C31           -4.2835    -0.4693     0.3948 C.ar    
  32 C32            2.1414     4.3469     0.5865 C.ar    
  33 O33           -7.3138    -9.0324    -0.6028 O.3     
  34 C34           -8.5331    -9.7216    -0.3194 C.3     
  35 F35            4.4944     4.6080     0.5045 F       
  36 H36            0.0421     3.9554     0.6278 H       
  37 H37            2.5731     0.5966    -0.1897 H       
  38 H38            4.5489     2.0507    -0.0088 H       
  39 H39           -2.8176    -1.7342    -0.8566 H       
  40 H40           -1.1433    -2.2742    -1.1276 H       
  41 H41           -1.5468    -5.3690     2.1164 H       
  42 H42           -2.1286    -3.9206     2.9792 H       
  43 H43           -3.7101    -5.8853     3.1380 H       
  44 H44           -4.4438    -4.4433     2.3947 H       
  45 H45           -4.3295    -5.7312    -0.9970 H       
  46 H46           -4.7978    -4.3552     0.0313 H       
  47 H47           -2.7570    -3.7647    -1.1647 H       
  48 H48           -1.9601    -5.2632    -0.6170 H       
  49 H49           -7.5203    -7.2630     3.4212 H       
  50 H50           -5.0981    -7.6029    -0.7590 H       
  51 H51           -3.7068     2.8319    -0.1346 H       
  52 H52           -6.1615     2.8746     0.0179 H       
  53 H53           -7.4104     0.7922     0.4124 H       
  54 H54           -6.2135    -1.3430     0.6578 H       
  55 H55           -3.7594    -1.4074     0.5024 H       
  56 H56            2.0261     5.3988     0.8027 H       
  57 H57           -9.3188    -8.9969    -0.1057 H       
  58 H58           -8.8190   -10.3238    -1.1818 H       
  59 H59           -8.3916   -10.3697     0.5455 H       
@<TRIPOS>BOND
   1    1    2 2
   2    1    6 1
   3    1    5 1
   4    2    3 1
   5    3    4 1
   6    3   11 1
   7    4    5 2
   8    4   26 1
   9    6    7 ar
  10    6    8 ar
  11    7   32 ar
  12    7   36 1
  13    8    9 ar
  14    8   37 1
  15    9   10 ar
  16    9   38 1
  17   10   32 ar
  18   10   35 1
  19   11   12 1
  20   11   39 1
  21   11   40 1
  22   12   13 am
  23   12   14 2
  24   13   15 1
  25   13   19 1
  26   15   16 1
  27   15   41 1
  28   15   42 1
  29   16   17 1
  30   16   43 1
  31   16   44 1
  32   17   18 1
  33   17   20 1
  34   18   19 1
  35   18   45 1
  36   18   46 1
  37   19   47 1
  38   19   48 1
  39   20   21 ar
  40   20   25 ar
  41   21   22 ar
  42   22   23 ar
  43   22   49 1
  44   23   24 ar
  45   24   25 ar
  46   24   33 1
  47   25   50 1
  48   26   27 ar
  49   26   31 ar
  50   27   28 ar
  51   27   51 1
  52   28   29 ar
  53   28   52 1
  54   29   30 ar
  55   29   53 1
  56   30   31 ar
  57   30   54 1
  58   31   55 1
  59   32   56 1
  60   33   34 1
  61   34   57 1
  62   34   58 1
  63   34   59 1

#	End of record

