#	Name: ASD01812638
#	Creating user name:	WinNT
#	Creation time:	15. 06. 2019 19:28

#	Modifying user name:	WinNT
#	Modification time:	15. 06. 2019 19:28

#	Program:	/corina/corina34_cracker 3.40 0067  02.08.2006

@<TRIPOS>MOLECULE
ASD01812638
  48   52    0    0    0
SMALL
NO_CHARGES


@<TRIPOS>ATOM
   1 O1            -0.0163     1.3521     0.0095 O.3     
   2 C2             0.0021    -0.0041     0.0020 C.ar    
   3 C3             1.2105    -0.6847    -0.0132 C.ar    
   4 C4             1.2312    -2.0655    -0.0208 C.ar    
   5 C5             0.0448    -2.7828    -0.0133 C.ar    
   6 C6            -1.1603    -2.1224     0.0018 C.ar    
   7 C7            -1.2004    -0.7252     0.0155 C.ar    
   8 C8            -2.5947    -2.5892     0.0126 C.3     
   9 N9            -3.4200    -1.3760     0.0273 N.am    
  10 C10           -2.6104    -0.3029     0.0371 C.2     
  11 C11           -4.8845    -1.3402     0.0412 C.3     
  12 C12           -5.3733    -1.3360     1.4667 C.ar    
  13 O13           -2.9891     0.8525     0.0481 O.2     
  14 C14           -5.5678    -0.1362     2.1260 C.ar    
  15 C15           -6.0157    -0.1291     3.4325 C.ar    
  16 C16           -6.2707    -1.3284     4.0839 C.ar    
  17 C17           -6.0745    -2.5315     3.4194 C.ar    
  18 C18           -5.6318    -2.5319     2.1110 C.ar    
  19 N19           -6.7250    -1.3245     5.4101 N.pl3   
  20 C20           -7.0047    -2.4154     6.1587 C.2     
  21 N21           -6.9638    -0.1901     6.1965 N.2     
  22 C22           -7.3768    -0.5874     7.3731 C.2     
  23 C23           -7.4116    -1.9861     7.3758 C.2     
  24 C24            1.1753     2.0067     0.0016 C.ar    
  25 C25            1.7733     2.3479    -1.2035 C.ar    
  26 C26            2.9852     3.0135    -1.2085 C.ar    
  27 C27            3.6021     3.3391    -0.0147 C.ar    
  28 C28            3.0096     3.0009     1.1877 C.ar    
  29 C29            1.7939     2.3403     1.1995 C.ar    
  30 F30            1.2124     2.0148     2.3747 F       
  31 Cl31           1.0007     1.9389    -2.7033 Cl      
  32 H32            2.1388    -0.1328    -0.0195 H       
  33 H33            2.1759    -2.5889    -0.0330 H       
  34 H34            0.0677    -3.8626    -0.0196 H       
  35 H35           -2.8049    -3.1747    -0.8824 H       
  36 H36           -2.7881    -3.1849     0.9047 H       
  37 H37           -5.2307    -0.4387    -0.4642 H       
  38 H38           -5.2743    -2.2181    -0.4740 H       
  39 H39           -5.3689     0.7964     1.6188 H       
  40 H40           -6.1671     0.8083     3.9470 H       
  41 H41           -6.2720    -3.4660     3.9235 H       
  42 H42           -5.4835    -3.4674     1.5920 H       
  43 H43           -6.9190    -3.4443     5.8420 H       
  44 H44           -7.6422     0.0540     8.2005 H       
  45 H45           -7.7084    -2.6127     8.2039 H       
  46 H46            3.4507     3.2791    -2.1461 H       
  47 H47            4.5491     3.8584    -0.0215 H       
  48 H48            3.4938     3.2565     2.1186 H       
@<TRIPOS>BOND
   1    1    2 1
   2    1   24 1
   3    2    3 ar
   4    2    7 ar
   5    3    4 ar
   6    3   32 1
   7    4    5 ar
   8    4   33 1
   9    5    6 ar
  10    5   34 1
  11    6    8 1
  12    6    7 ar
  13    7   10 1
  14    8    9 1
  15    8   35 1
  16    8   36 1
  17    9   10 am
  18    9   11 1
  19   10   13 2
  20   11   12 1
  21   11   37 1
  22   11   38 1
  23   12   14 ar
  24   12   18 ar
  25   14   15 ar
  26   14   39 1
  27   15   16 ar
  28   15   40 1
  29   16   17 ar
  30   16   19 1
  31   17   18 ar
  32   17   41 1
  33   18   42 1
  34   19   21 1
  35   19   20 1
  36   20   23 2
  37   20   43 1
  38   21   22 2
  39   22   23 1
  40   22   44 1
  41   23   45 1
  42   24   25 ar
  43   24   29 ar
  44   25   26 ar
  45   25   31 1
  46   26   27 ar
  47   26   46 1
  48   27   28 ar
  49   27   47 1
  50   28   29 ar
  51   28   48 1
  52   29   30 1

#	End of record

