#	Name: ASD05420029
#	Creating user name:	WinNT
#	Creation time:	15. 06. 2019 20:59

#	Modifying user name:	WinNT
#	Modification time:	15. 06. 2019 20:59

#	Program:	/corina/corina34_cracker 3.40 0067  02.08.2006

@<TRIPOS>MOLECULE
ASD05420029
  40   41    0    0    0
SMALL
NO_CHARGES


@<TRIPOS>ATOM
   1 C1            -0.0869     1.5014    -0.0929 C.ar    
   2 C2            -0.0843     0.1169    -0.0853 C.ar    
   3 C3             1.1166    -0.5721    -0.0736 C.ar    
   4 C4             2.3112     0.1228    -0.0694 C.ar    
   5 C5             2.3074     1.5052    -0.0770 C.ar    
   6 C6             1.1089     2.1941    -0.0887 C.ar    
   7 F7            -1.2527    -0.5613    -0.0889 F       
   8 C8             3.6108     2.2617    -0.0719 C.3     
   9 N9             4.0440     2.5000    -1.4552 N.3     
  10 C10            5.2567     3.2036    -1.4880 C.ar    
  11 C11            6.3703     2.6396    -2.0968 C.ar    
  12 C12            7.5698     3.3371    -2.1285 C.ar    
  13 C13            7.6537     4.6015    -1.5492 C.ar    
  14 C14            6.5389     5.1611    -0.9420 C.ar    
  15 C15            5.3423     4.4676    -0.9160 C.ar    
  16 N16            8.6959     2.7699    -2.7422 N.pl3   
  17 F17            4.2582     5.0149    -0.3240 F       
  18 F18            6.2861     1.4133    -2.6573 F       
  19 N19            8.8664     5.3090    -1.5795 N.am    
  20 C20            9.1292     6.2365    -0.6377 C.2     
  21 O21            8.2877     6.5130     0.1944 O.2     
  22 O22           10.3242     6.8570    -0.6187 O.3     
  23 C23           11.9413     8.4376     0.2852 C.3     
  24 C24           10.5377     7.8447     0.4240 C.3     
  25 H25           -1.0230     2.0399    -0.1065 H       
  26 H26            1.1198    -1.6520    -0.0673 H       
  27 H27            3.2481    -0.4144    -0.0599 H       
  28 H28            1.1072     3.2741    -0.0946 H       
  29 H29            3.4746     3.2166     0.4358 H       
  30 H30            4.3681     1.6772     0.4504 H       
  31 H31            4.1151     1.6329    -1.9663 H       
  32 H32            6.6042     6.1412    -0.4931 H       
  33 H33            8.6369     1.8895    -3.1450 H       
  34 H34            9.5339     3.2580    -2.7639 H       
  35 H35            9.5149     5.1300    -2.2783 H       
  36 H36           12.6820     7.6437     0.3798 H       
  37 H37           12.0402     8.9126    -0.6908 H       
  38 H38           12.1015     9.1791     1.0680 H       
  39 H39            9.7969     8.6387     0.3295 H       
  40 H40           10.4387     7.3698     1.4001 H       
@<TRIPOS>BOND
   1    1    2 ar
   2    1    6 ar
   3    1   25 1
   4    2    3 ar
   5    2    7 1
   6    3    4 ar
   7    3   26 1
   8    4    5 ar
   9    4   27 1
  10    5    6 ar
  11    5    8 1
  12    6   28 1
  13    8    9 1
  14    8   29 1
  15    8   30 1
  16    9   10 1
  17    9   31 1
  18   10   11 ar
  19   10   15 ar
  20   11   12 ar
  21   11   18 1
  22   12   13 ar
  23   12   16 1
  24   13   14 ar
  25   13   19 1
  26   14   15 ar
  27   14   32 1
  28   15   17 1
  29   16   33 1
  30   16   34 1
  31   19   20 am
  32   19   35 1
  33   20   21 2
  34   20   22 1
  35   22   24 1
  36   23   24 1
  37   23   36 1
  38   23   37 1
  39   23   38 1
  40   24   39 1
  41   24   40 1

#	End of record

