#	Name: ASD01884023
#	Creating user name:	WinNT
#	Creation time:	15. 06. 2019 19:47

#	Modifying user name:	WinNT
#	Modification time:	15. 06. 2019 19:47

#	Program:	/corina/corina34_cracker 3.40 0067  02.08.2006

@<TRIPOS>MOLECULE
ASD01884023
  60   63    0    0    0
SMALL
NO_CHARGES


@<TRIPOS>ATOM
   1 C1             2.3692    -1.6037     3.6628 C.2     
   2 C2             1.5984    -2.6449     3.1184 C.2     
   3 C3             1.3018    -2.6269     1.7826 C.2     
   4 C4             1.7737    -1.5666     0.9782 C.2     
   5 C5             2.5113    -0.5785     1.5212 C.2     
   6 N6             2.8074    -0.5841     2.8531 N.pl3   
   7 C7             3.5155     0.2551     3.6624 C.2     
   8 N8             3.4894    -0.2475     4.8686 N.2     
   9 N9             2.8123    -1.3415     4.8829 N.2     
  10 N10            0.5431    -3.6437     1.2223 N.pl3   
  11 C11            4.2027     1.5289     3.2424 C.3     
  12 C12            1.1050    -3.7675     3.9944 C.3     
  13 C13            3.2315     2.7027     3.3832 C.3     
  14 C14           -0.7844    -3.3764     0.6482 C.3     
  15 C15           -0.9079    -4.1637    -0.6584 C.3     
  16 N16           -0.7825    -5.6301    -0.3941 Du      
  17 C17            0.6990    -5.6090    -0.1970 C.3     
  18 C18            1.0368    -5.0285     1.1794 C.3     
  19 C19            3.7770     4.1069     3.1158 C.3     
  20 C20           -1.6993    -5.4767     0.7842 C.ar    
  21 C21           -1.3546    -6.0272     2.0044 C.ar    
  22 C22           -2.1990    -5.8860     3.0897 C.ar    
  23 C23           -3.3880    -5.1939     2.9548 C.ar    
  24 C24           -3.7324    -4.6426     1.7348 C.ar    
  25 C25           -2.8859    -4.7801     0.6507 C.ar    
  26 C26           -0.7715    -7.1142    -0.1657 C.3     
  27 C27            2.8339     3.4477     2.1074 C.3     
  28 F28            1.9522    -4.8725     3.8578 F       
  29 F29            1.0968    -3.3484     5.3291 F       
  30 F30           -0.1919    -4.1239     3.6096 F       
  31 H31            1.5428    -1.5479    -0.0766 H       
  32 H32            2.8677     0.2278     0.8973 H       
  33 H33            5.0724     1.6988     3.8771 H       
  34 H34            4.5219     1.4440     2.2037 H       
  35 H35            2.4750     2.5963     4.1607 H       
  36 H36           -1.5589    -3.6980     1.3440 H       
  37 H37           -0.8926    -2.3115     0.4464 H       
  38 H38           -1.8792    -3.9608    -1.1130 H       
  39 H39           -0.1198    -3.8519    -1.3457 H       
  40 H40           -1.2007    -5.8172    -1.3960 H       
  41 H41            1.0880    -6.6259    -0.2657 H       
  42 H42            1.1594    -4.9949    -0.9718 H       
  43 H43            2.1152    -5.0423     1.3282 H       
  44 H44            0.5500    -5.6189     1.9546 H       
  45 H45            3.3790     4.9244     3.7171 H       
  46 H46            4.8277     4.1945     2.8396 H       
  47 H47           -0.4256    -6.5679     2.1098 H       
  48 H48           -1.9300    -6.3167     4.0429 H       
  49 H49           -4.0481    -5.0842     3.8026 H       
  50 H50           -4.6615    -4.1022     1.6294 H       
  51 H51           -3.1531    -4.3463    -0.3016 H       
  52 H52           -1.7890    -7.4619     0.0129 H       
  53 H53           -0.3659    -7.6141    -1.0453 H       
  54 H54           -0.1516    -7.3438     0.7009 H       
  55 H55            3.2643     3.1015     1.1676 H       
  56 H56            1.8156     3.8314     2.0452 H       
  57 N57           10.6108    10.9333    11.1035 N.3     
  58 H58           10.6245     9.9244    11.0979 H       
  59 H59           11.5478    11.3076    11.0965 H       
  60 H60           10.0724    11.2918    10.3291 H       
@<TRIPOS>BOND
   1    1    2 1
   2    1    9 2
   3    1    6 1
   4    2    3 2
   5    2   12 1
   6    3    4 1
   7    3   10 1
   8    4    5 2
   9    4   31 1
  10    5    6 1
  11    5   32 1
  12    6    7 1
  13    7    8 2
  14    7   11 1
  15    8    9 1
  16   10   14 1
  17   10   18 1
  18   11   13 1
  19   11   33 1
  20   11   34 1
  21   12   28 1
  22   12   29 1
  23   12   30 1
  24   13   19 1
  25   13   27 1
  26   13   35 1
  27   14   15 1
  28   14   36 1
  29   14   37 1
  30   15   16 1
  31   15   38 1
  32   15   39 1
  33   16   17 1
  34   16   20 1
  35   16   26 1
  36   16   40 1
  37   17   18 1
  38   17   41 1
  39   17   42 1
  40   18   43 1
  41   18   44 1
  42   19   27 1
  43   19   45 1
  44   19   46 1
  45   20   21 ar
  46   20   25 ar
  47   21   22 ar
  48   21   47 1
  49   22   23 ar
  50   22   48 1
  51   23   24 ar
  52   23   49 1
  53   24   25 ar
  54   24   50 1
  55   25   51 1
  56   26   52 1
  57   26   53 1
  58   26   54 1
  59   27   55 1
  60   27   56 1
  61   57   58 1
  62   57   59 1
  63   57   60 1

#	End of record

