#	Name: ASD01001169
#	Creating user name:	WinNT
#	Creation time:	15. 06. 2019 18:55

#	Modifying user name:	WinNT
#	Modification time:	15. 06. 2019 18:55

#	Program:	/corina/corina34_cracker 3.40 0067  02.08.2006

@<TRIPOS>MOLECULE
ASD01001169
  42   45    0    0    0
SMALL
NO_CHARGES


@<TRIPOS>ATOM
   1 C1            -0.0167     1.3781     0.0096 C.ar    
   2 C2             0.0021    -0.0041     0.0020 C.ar    
   3 C3             1.1709     2.0855     0.0021 C.ar    
   4 C4             1.2084    -0.6789    -0.0132 C.ar    
   5 C5             2.3773     1.4107    -0.0131 C.ar    
   6 C6             2.3960     0.0285    -0.0212 C.ar    
   7 C7             1.2289    -2.1857    -0.0205 C.3     
   8 C8             1.4718    -2.6893    -1.4441 C.3     
   9 N9             2.3158    -2.6673     0.8358 N.3     
  10 C10            0.5267    -2.0088    -2.4266 C.3     
  11 C11            1.2803    -4.2049    -1.4582 C.3     
  12 C12            2.5347    -4.0419     0.7333 C.ar    
  13 C13           -0.9150    -2.4407    -2.1435 C.3     
  14 C14            2.0765    -4.8076    -0.3230 C.ar    
  15 O15           -0.0982    -4.5267    -1.2554 O.3     
  16 C16            3.2583    -4.6579     1.7592 C.ar    
  17 C17           -0.9915    -3.9692    -2.2188 C.3     
  18 C18            2.3414    -6.1671    -0.3617 C.ar    
  19 C19            3.5168    -6.0126     1.7155 C.ar    
  20 C20            3.0585    -6.7698     0.6529 C.ar    
  21 F21            3.7075    -3.9220     2.7994 F       
  22 C22            3.3423    -8.2490     0.6016 C.3     
  23 F23            4.5519    -8.4689    -0.0658 F       
  24 F24            3.4300    -8.7524     1.9040 F       
  25 F25            2.3082    -8.8988    -0.0808 F       
  26 H26           -0.9592     1.9054     0.0170 H       
  27 H27           -0.9258    -0.5567     0.0083 H       
  28 H28            1.1563     3.1654     0.0077 H       
  29 H29            3.3051     1.9634    -0.0197 H       
  30 H30            3.3385    -0.4987    -0.0327 H       
  31 H31            0.2751    -2.5665     0.3448 H       
  32 H32            2.5003    -2.4671    -1.7285 H       
  33 H33            3.1663    -2.1519     0.6648 H       
  34 H34            0.6088    -0.9273    -2.3185 H       
  35 H35            0.7965    -2.2918    -3.4441 H       
  36 H36            1.6292    -4.6105    -2.4078 H       
  37 H37           -1.2075    -2.1084    -1.1474 H       
  38 H38           -1.5807    -2.0039    -2.8879 H       
  39 H39           -2.0094    -4.2945    -2.0036 H       
  40 H40           -0.7045    -4.3001    -3.2169 H       
  41 H41            1.9843    -6.7596    -1.1911 H       
  42 H42            4.0761    -6.4817     2.5114 H       
@<TRIPOS>BOND
   1    1    2 ar
   2    1    3 ar
   3    1   26 1
   4    2    4 ar
   5    2   27 1
   6    3    5 ar
   7    3   28 1
   8    4    6 ar
   9    4    7 1
  10    5    6 ar
  11    5   29 1
  12    6   30 1
  13    7    8 1
  14    7    9 1
  15    7   31 1
  16    8   10 1
  17    8   11 1
  18    8   32 1
  19    9   12 1
  20    9   33 1
  21   10   13 1
  22   10   34 1
  23   10   35 1
  24   11   14 1
  25   11   15 1
  26   11   36 1
  27   12   14 ar
  28   12   16 ar
  29   13   17 1
  30   13   37 1
  31   13   38 1
  32   14   18 ar
  33   15   17 1
  34   16   21 1
  35   16   19 ar
  36   17   39 1
  37   17   40 1
  38   18   20 ar
  39   18   41 1
  40   19   20 ar
  41   19   42 1
  42   20   22 1
  43   22   23 1
  44   22   24 1
  45   22   25 1

#	End of record

