#	Name: ASD01813157
#	Creating user name:	WinNT
#	Creation time:	15. 06. 2019 19:29

#	Modifying user name:	WinNT
#	Modification time:	15. 06. 2019 19:29

#	Program:	/corina/corina34_cracker 3.40 0067  02.08.2006

@<TRIPOS>MOLECULE
ASD01813157
  62   66    0    0    0
SMALL
NO_CHARGES


@<TRIPOS>ATOM
   1 C1            -0.1304     1.5042     0.0007 C.3     
   2 C2            -0.1123    -0.0027    -0.0084 C.2     
   3 N3            -0.1246    -0.7636    -1.0706 N.2     
   4 N4            -0.1000    -2.1018    -0.6594 N.pl3   
   5 C5            -0.1033    -3.2715    -1.5415 C.3     
   6 C6            -0.0724    -2.1281     0.6883 C.2     
   7 C7            -0.0730    -0.8360     1.1264 C.2     
   8 C8            -0.0414    -0.3896     2.5421 C.ar    
   9 C9             0.8776     0.5742     2.9508 C.ar    
  10 C10            0.9024     0.9860     4.2679 C.ar    
  11 C11            0.0169     0.4434     5.1815 C.ar    
  12 C12            0.0483     0.8973     6.6182 C.3     
  13 N13           -0.8541     2.0385     6.7897 N.pl3   
  14 C14           -0.3679     3.2734     6.6077 C.2     
  15 C15           -1.1508     4.4002     6.7498 C.2     
  16 C16           -0.5786     5.7396     6.5412 C.2     
  17 O17            0.6147     5.8670     6.3425 O.2     
  18 N18           -1.3767     6.8253     6.5703 N.am    
  19 C19           -0.7930     8.1660     6.4812 C.3     
  20 H20            0.1746     8.1858     6.9827 H       
  21 C21           -0.6301     8.5742     5.0024 C.3     
  22 C22           -1.9024     9.4023     4.6946 C.3     
  23 C23           -2.1198    10.1954     6.0072 C.3     
  24 C24           -1.7396     9.1966     7.1211 C.3     
  25 H25           -2.6333     8.6992     7.4980 H       
  26 O26           -1.0730     9.8791     8.1851 O.3     
  27 C27           -2.5678     4.2404     7.1130 C.2     
  28 O28           -3.3008     5.2042     7.2501 O.2     
  29 C29           -3.0633     2.8645     7.3037 C.ar    
  30 C30           -4.3918     2.6173     7.6484 C.ar    
  31 C31           -4.8206     1.3192     7.8181 C.ar    
  32 C32           -3.9377     0.2626     7.6476 C.ar    
  33 C33           -2.6225     0.4921     7.3075 C.ar    
  34 C34           -2.1683     1.7957     7.1257 C.ar    
  35 C35           -0.8977    -0.5139     4.7811 C.ar    
  36 C36           -0.9345    -0.9289     3.4652 C.ar    
  37 H37            0.8925     1.8800    -0.0234 H       
  38 H38           -0.6713     1.8663    -0.8735 H       
  39 H39           -0.6255     1.8561     0.9058 H       
  40 H40            0.9232    -3.5488    -1.7811 H       
  41 H41           -0.5967    -4.1038    -1.0394 H       
  42 H42           -0.6389    -3.0323    -2.4602 H       
  43 H43           -0.0491    -3.0119     1.3086 H       
  44 H44            1.5697     0.9982     2.2383 H       
  45 H45            1.6148     1.7329     4.5859 H       
  46 H46           -0.2724     0.0802     7.2644 H       
  47 H47            1.0632     1.1934     6.8836 H       
  48 H48            0.6721     3.3907     6.3411 H       
  49 H49           -2.3375     6.7189     6.6502 H       
  50 H50            0.2633     9.1847     4.8714 H       
  51 H51           -0.5865     7.6909     4.3654 H       
  52 H52           -1.7296    10.0795     3.8582 H       
  53 H53           -2.7504     8.7474     4.4941 H       
  54 H54           -1.4670    11.0677     6.0384 H       
  55 H55           -3.1634    10.4952     6.1034 H       
  56 H56           -1.6182    10.5428     8.6291 H       
  57 H57           -5.0802     3.4386     7.7819 H       
  58 H58           -5.8484     1.1232     8.0855 H       
  59 H59           -4.2852    -0.7510     7.7833 H       
  60 H60           -1.9450    -0.3390     7.1780 H       
  61 H61           -1.5867    -0.9346     5.4985 H       
  62 H62           -1.6520    -1.6732     3.1526 H       
@<TRIPOS>BOND
   1    1    2 1
   2    1   37 1
   3    1   38 1
   4    1   39 1
   5    2    7 1
   6    2    3 2
   7    3    4 1
   8    4    5 1
   9    4    6 1
  10    5   40 1
  11    5   41 1
  12    5   42 1
  13    6    7 2
  14    6   43 1
  15    7    8 1
  16    8   36 ar
  17    8    9 ar
  18    9   10 ar
  19    9   44 1
  20   10   11 ar
  21   10   45 1
  22   11   12 1
  23   11   35 ar
  24   12   13 1
  25   12   46 1
  26   12   47 1
  27   13   34 1
  28   13   14 1
  29   14   15 2
  30   14   48 1
  31   15   16 1
  32   15   27 1
  33   16   17 2
  34   16   18 am
  35   18   19 1
  36   18   49 1
  37   19   20 1
  38   19   24 1
  39   19   21 1
  40   21   22 1
  41   21   50 1
  42   21   51 1
  43   22   23 1
  44   22   52 1
  45   22   53 1
  46   23   24 1
  47   23   54 1
  48   23   55 1
  49   24   25 1
  50   24   26 1
  51   26   56 1
  52   27   28 2
  53   27   29 1
  54   29   34 ar
  55   29   30 ar
  56   30   31 ar
  57   30   57 1
  58   31   32 ar
  59   31   58 1
  60   32   33 ar
  61   32   59 1
  62   33   34 ar
  63   33   60 1
  64   35   36 ar
  65   35   61 1
  66   36   62 1

#	End of record

