#	Name: ASD05313244
#	Creating user name:	WinNT
#	Creation time:	15. 06. 2019 20:59

#	Modifying user name:	WinNT
#	Modification time:	15. 06. 2019 20:59

#	Program:	/corina/corina34_cracker 3.40 0067  02.08.2006

@<TRIPOS>MOLECULE
ASD05313244
  43   46    0    0    0
SMALL
NO_CHARGES


@<TRIPOS>ATOM
   1 C1            -0.0741     0.8205     1.0229 C.2     
   2 C2             0.1124    -0.6183     0.5951 C.3     
   3 N3             0.9290     1.7311     1.0490 N.pl3   
   4 N4             1.4549    -0.7200    -0.0061 N.am    
   5 C5             2.5696    -0.0403     0.6713 C.3     
   6 C6             2.3169     1.4715     0.6613 C.3     
   7 N7            -1.1738     1.3900     1.4219 N.2     
   8 C8            -0.9294     2.6732     1.7202 C.2     
   9 C9             0.3926     2.9120     1.4948 C.2     
  10 C10           -1.9384     3.6747     2.2199 C.3     
  11 F11           -3.1627     3.0339     2.4387 F       
  12 F12           -1.4848     4.2353     3.4187 F       
  13 F13           -2.1046     4.6848     1.2663 F       
  14 C14            1.1085     4.1909     1.6942 C.ar    
  15 C15            0.5456     5.3859     1.2443 C.ar    
  16 C16            1.2172     6.5758     1.4333 C.ar    
  17 C17            2.4489     6.5859     2.0681 C.ar    
  18 C18            3.0123     5.4021     2.5167 C.ar    
  19 C19            2.3464     4.2073     2.3380 C.ar    
  20 F20            3.1029     7.7539     2.2498 F       
  21 C21            1.6548    -1.4159    -1.1429 C.2     
  22 O22            2.7469    -1.4069    -1.6770 O.2     
  23 C23            0.5471    -2.1894    -1.7398 C.ar    
  24 C24            0.3161    -2.1359    -3.1173 C.ar    
  25 C25           -0.7210    -2.8614    -3.6684 C.ar    
  26 C26           -1.5308    -3.6404    -2.8593 C.ar    
  27 C27           -1.3063    -3.6970    -1.4934 C.ar    
  28 C28           -0.2702    -2.9817    -0.9313 C.ar    
  29 Cl29          -2.8335    -4.5495    -3.5594 Cl      
  30 Cl30           1.3305    -1.1590    -4.1324 Cl      
  31 H31            0.0424    -1.2758     1.4616 H       
  32 H32           -0.6455    -0.8887    -0.1401 H       
  33 H33            2.6387    -0.3914     1.7009 H       
  34 H34            3.5007    -0.2575     0.1479 H       
  35 H35            2.4946     1.8638    -0.3399 H       
  36 H36            2.9893     1.9576     1.3682 H       
  37 H37           -0.4139     5.3790     0.7488 H       
  38 H38            0.7825     7.5012     1.0854 H       
  39 H39            3.9725     5.4154     3.0109 H       
  40 H40            2.7845     3.2857     2.6918 H       
  41 H41           -0.9013    -2.8211    -4.7325 H       
  42 H42           -1.9416    -4.3066    -0.8680 H       
  43 H43           -0.0938    -3.0310     0.1331 H       
@<TRIPOS>BOND
   1    1    2 1
   2    1    3 1
   3    1    7 2
   4    2    4 1
   5    2   31 1
   6    2   32 1
   7    3    6 1
   8    3    9 1
   9    4    5 1
  10    4   21 am
  11    5    6 1
  12    5   33 1
  13    5   34 1
  14    6   35 1
  15    6   36 1
  16    7    8 1
  17    8    9 2
  18    8   10 1
  19    9   14 1
  20   10   11 1
  21   10   12 1
  22   10   13 1
  23   14   15 ar
  24   14   19 ar
  25   15   16 ar
  26   15   37 1
  27   16   17 ar
  28   16   38 1
  29   17   18 ar
  30   17   20 1
  31   18   19 ar
  32   18   39 1
  33   19   40 1
  34   21   22 2
  35   21   23 1
  36   23   24 ar
  37   23   28 ar
  38   24   25 ar
  39   24   30 1
  40   25   26 ar
  41   25   41 1
  42   26   27 ar
  43   26   29 1
  44   27   28 ar
  45   27   42 1
  46   28   43 1

#	End of record

