#	Name: ASD01885645
#	Creating user name:	WinNT
#	Creation time:	15. 06. 2019 19:49

#	Modifying user name:	WinNT
#	Modification time:	15. 06. 2019 19:49

#	Program:	/corina/corina34_cracker 3.40 0067  02.08.2006

@<TRIPOS>MOLECULE
ASD01885645
  41   44    0    0    0
SMALL
NO_CHARGES


@<TRIPOS>ATOM
   1 C1            -0.0170     1.4033     0.0098 C.ar    
   2 C2             1.2132     2.1075     0.0018 C.ar    
   3 C3             1.1957     3.5260     0.0097 C.ar    
   4 C4            -0.0375     4.1606     0.0249 C.ar    
   5 C5            -1.2091     3.3920     0.0319 C.ar    
   6 N6            -1.1713     2.0720     0.0299 N.ar    
   7 C7             0.0021    -0.0041     0.0020 C.ar    
   8 C8             1.1927    -0.6632    -0.0129 C.ar    
   9 C9             2.3990     0.0332    -0.0203 C.ar    
  10 C10            2.4194     1.3961    -0.0132 C.ar    
  11 C11            2.4550     4.3050     0.0024 C.ar    
  12 C12            2.6336     5.3379    -0.9182 C.ar    
  13 C13            3.8081     6.0608    -0.9207 C.ar    
  14 C14            4.8100     5.7627    -0.0107 C.ar    
  15 C15            4.6374     4.7375     0.9059 C.ar    
  16 C16            3.4644     4.0122     0.9198 C.ar    
  17 C17            1.2061    -2.1701    -0.0211 C.3     
  18 F18            5.9589     6.4734    -0.0173 F       
  19 N19            1.2232    -2.6658     1.3573 N.am    
  20 C20            0.1060    -2.9210     2.0493 C.2     
  21 C21            0.4777    -3.4156     3.4302 C.3     
  22 C22            2.0199    -3.4017     3.4161 C.3     
  23 C23            2.3574    -2.9062     2.0268 C.2     
  24 O24           -1.0245    -2.7782     1.6354 O.2     
  25 O25            3.4773    -2.7455     1.5913 O.2     
  26 C26           -2.4786     4.0543     0.0544 C.1     
  27 N27           -3.4857     4.5796     0.0723 N.1     
  28 H28           -0.0943     5.2390     0.0317 H       
  29 H29           -0.9246    -0.5588     0.0083 H       
  30 H30            3.3302    -0.5138    -0.0315 H       
  31 H31            3.3612     1.9248    -0.0187 H       
  32 H32            1.8536     5.5708    -1.6280 H       
  33 H33            3.9475     6.8604    -1.6332 H       
  34 H34            5.4210     4.5089     1.6130 H       
  35 H35            3.3306     3.2137     1.6346 H       
  36 H36            0.3147    -2.5386    -0.5288 H       
  37 H37            2.0945    -2.5227    -0.5451 H       
  38 H38            0.0950    -2.7403     4.1955 H       
  39 H39            0.1046    -4.4274     3.5887 H       
  40 H40            2.4044    -2.7196     4.1743 H       
  41 H41            2.4140    -4.4067     3.5675 H       
@<TRIPOS>BOND
   1    1    7 ar
   2    1    2 ar
   3    1    6 ar
   4    2    3 ar
   5    2   10 ar
   6    3   11 1
   7    3    4 ar
   8    4    5 ar
   9    4   28 1
  10    5    6 ar
  11    5   26 1
  12    7    8 ar
  13    7   29 1
  14    8    9 ar
  15    8   17 1
  16    9   10 ar
  17    9   30 1
  18   10   31 1
  19   11   12 ar
  20   11   16 ar
  21   12   13 ar
  22   12   32 1
  23   13   14 ar
  24   13   33 1
  25   14   15 ar
  26   14   18 1
  27   15   16 ar
  28   15   34 1
  29   16   35 1
  30   17   19 1
  31   17   36 1
  32   17   37 1
  33   19   20 am
  34   19   23 am
  35   20   21 1
  36   20   24 2
  37   21   22 1
  38   21   38 1
  39   21   39 1
  40   22   23 1
  41   22   40 1
  42   22   41 1
  43   23   25 2
  44   26   27 3

#	End of record

