#	Name: ASD03090329
#	Creating user name:	WinNT
#	Creation time:	15. 06. 2019 20:28

#	Modifying user name:	WinNT
#	Modification time:	15. 06. 2019 20:28

#	Program:	/corina/corina34_cracker 3.40 0067  02.08.2006

@<TRIPOS>MOLECULE
ASD03090329
  51   53    0    0    0
SMALL
NO_CHARGES


@<TRIPOS>ATOM
   1 N1             0.4488     1.5145     1.4699 N.ar    
   2 C2             0.4106     0.1962     1.4355 C.ar    
   3 C3             1.5369    -0.5372     1.1242 C.ar    
   4 C4             2.7298     0.1378     0.8429 C.ar    
   5 C5             2.7244     1.5358     0.8911 C.ar    
   6 C6             1.5521     2.1897     1.2115 C.ar    
   7 C7             3.9633    -0.6068     0.5044 C.2     
   8 N8             5.7411    -3.4558    -0.5330 N.pl3   
   9 C9             4.8141    -4.4453    -0.8766 C.ar    
  10 C10            3.5972    -4.0911    -1.4442 C.ar    
  11 C11            2.6832    -5.0699    -1.7827 C.ar    
  12 C12            2.9793    -6.4032    -1.5559 C.ar    
  13 C13            4.1922    -6.7588    -0.9899 C.ar    
  14 C14            5.1115    -5.7841    -0.6557 C.ar    
  15 N15            4.0272    -1.8628     0.1105 N.2     
  16 C16            5.2984    -2.2021    -0.1070 C.2     
  17 N17            6.0671    -1.1671     0.1449 N.2     
  18 N18            5.2225    -0.1167     0.5390 N.pl3   
  19 C19            5.6267     1.2390     0.9198 C.3     
  20 C20            5.7310     2.1110    -0.3330 C.3     
  21 C21            6.1468     3.5055     0.0587 C.2     
  22 N22            6.3032     4.4528    -0.8871 N.am    
  23 C23            6.7074     5.8084    -0.5063 C.3     
  24 O24            6.3406     3.7753     1.2251 O.2     
  25 C25            6.0691     4.1268    -2.2961 C.3     
  26 F26            2.0835    -7.3588    -1.8869 F       
  27 C27           -0.8806    -0.5182     1.7410 C.3     
  28 C28            4.5114    -8.2109    -0.7439 C.3     
  29 H29            1.4984    -1.6162     1.0982 H       
  30 H30            3.6241     2.0950     0.6810 H       
  31 H31            1.5377     3.2688     1.2509 H       
  32 H32            6.6916    -3.6407    -0.5907 H       
  33 H33            3.3655    -3.0510    -1.6206 H       
  34 H34            1.7367    -4.7948    -2.2242 H       
  35 H35            6.0575    -6.0618    -0.2147 H       
  36 H36            4.8848     1.6627     1.5967 H       
  37 H37            6.5951     1.2027     1.4189 H       
  38 H38            6.4729     1.6873    -1.0099 H       
  39 H39            4.7626     2.1472    -0.8321 H       
  40 H40            7.7951     5.8791    -0.5145 H       
  41 H41            6.2915     6.5243    -1.2153 H       
  42 H42            6.3365     6.0306     0.4942 H       
  43 H43            5.0236     4.3115    -2.5429 H       
  44 H44            6.7061     4.7498    -2.9239 H       
  45 H45            6.3033     3.0765    -2.4698 H       
  46 H46           -1.4458    -0.6571     0.8194 H       
  47 H47           -0.6623    -1.4901     2.1834 H       
  48 H48           -1.4678     0.0761     2.4412 H       
  49 H49            5.0058    -8.6279    -1.6213 H       
  50 H50            5.1707    -8.2967     0.1198 H       
  51 H51            3.5886    -8.7584    -0.5524 H       
@<TRIPOS>BOND
   1    1    2 ar
   2    1    6 ar
   3    2    3 ar
   4    2   27 1
   5    3    4 ar
   6    3   29 1
   7    4    5 ar
   8    4    7 1
   9    5    6 ar
  10    5   30 1
  11    6   31 1
  12    7   15 2
  13    7   18 1
  14    8    9 1
  15    8   16 1
  16    8   32 1
  17    9   10 ar
  18    9   14 ar
  19   10   11 ar
  20   10   33 1
  21   11   12 ar
  22   11   34 1
  23   12   13 ar
  24   12   26 1
  25   13   14 ar
  26   13   28 1
  27   14   35 1
  28   15   16 1
  29   16   17 2
  30   17   18 1
  31   18   19 1
  32   19   20 1
  33   19   36 1
  34   19   37 1
  35   20   21 1
  36   20   38 1
  37   20   39 1
  38   21   22 am
  39   21   24 2
  40   22   23 1
  41   22   25 1
  42   23   40 1
  43   23   41 1
  44   23   42 1
  45   25   43 1
  46   25   44 1
  47   25   45 1
  48   27   46 1
  49   27   47 1
  50   27   48 1
  51   28   49 1
  52   28   50 1
  53   28   51 1

#	End of record

