#	Name: ASD01883053
#	Creating user name:	WinNT
#	Creation time:	15. 06. 2019 19:45

#	Modifying user name:	WinNT
#	Modification time:	15. 06. 2019 19:45

#	Program:	/corina/corina34_cracker 3.40 0067  02.08.2006

@<TRIPOS>MOLECULE
ASD01883053
  43   45    0    0    0
SMALL
NO_CHARGES


@<TRIPOS>ATOM
   1 N1            -0.0162     1.3417     0.0094 N.am    
   2 C2             0.0021    -0.0041     0.0020 C.2     
   3 C3            -1.2161    -0.7274     0.0102 C.2     
   4 C4            -2.4261    -0.0112     0.0261 C.2     
   5 C5            -2.3786     1.3968     0.0332 C.2     
   6 C6            -1.1850     2.0325     0.0299 C.2     
   7 O7             1.0657    -0.6000    -0.0122 O.2     
   8 C8            -1.2151    -2.1594     0.0021 C.1     
   9 N9            -1.2144    -3.2953    -0.0044 N.1     
  10 C10            1.2513     2.0764     0.0013 C.3     
  11 C11           -3.7218    -0.7213     0.0347 C.ar    
  12 C12            1.6787     2.3399    -1.4440 C.3     
  13 C13           -4.5708    -0.6162     1.1391 C.ar    
  14 C14           -5.7778    -1.2797     1.1433 C.ar    
  15 C15           -6.1513    -2.0534     0.0510 C.ar    
  16 C16           -5.3094    -2.1609    -1.0494 C.ar    
  17 C17           -4.1037    -1.4950    -1.0640 C.ar    
  18 O18           -7.3417    -2.7063     0.0591 O.3     
  19 C19            2.9420     3.2180    -1.4682 C.3     
  20 C20            4.0386     2.3932    -2.1734 C.3     
  21 C21            3.2523     1.3800    -3.0418 C.3     
  22 C22            2.0516     1.0121    -2.1352 C.3     
  23 C23           -7.6630    -3.4838    -1.0960 C.3     
  24 F24           -6.6920    -4.4747    -1.2761 F       
  25 F25           -8.9146    -4.0837    -0.9209 F       
  26 F26           -7.6970    -2.6541    -2.2219 F       
  27 H27           -3.2949     1.9683     0.0453 H       
  28 H28           -1.1610     3.1122     0.0354 H       
  29 H29            1.1242     3.0258     0.5214 H       
  30 H30            2.0168     1.4859     0.5046 H       
  31 H31            0.8720     2.8312    -1.9880 H       
  32 H32           -4.2809    -0.0157     1.9887 H       
  33 H33           -6.4347    -1.1990     1.9968 H       
  34 H34           -5.6031    -2.7634    -1.8962 H       
  35 H35           -3.4501    -1.5788    -1.9197 H       
  36 H36            2.7487     4.1351    -2.0247 H       
  37 H37            3.2506     3.4565    -0.4504 H       
  38 H38            4.6551     3.0363    -2.8014 H       
  39 H39            4.6537     1.8710    -1.4406 H       
  40 H40            2.9102     1.8467    -3.9655 H       
  41 H41            3.8598     0.5002    -3.2543 H       
  42 H42            2.3458     0.2668    -1.3963 H       
  43 H43            1.2181     0.6473    -2.7354 H       
@<TRIPOS>BOND
   1    1    2 am
   2    1   10 1
   3    1    6 1
   4    2    3 1
   5    2    7 2
   6    3    4 2
   7    3    8 1
   8    4    5 1
   9    4   11 1
  10    5    6 2
  11    5   27 1
  12    6   28 1
  13    8    9 3
  14   10   12 1
  15   10   29 1
  16   10   30 1
  17   11   13 ar
  18   11   17 ar
  19   12   19 1
  20   12   22 1
  21   12   31 1
  22   13   14 ar
  23   13   32 1
  24   14   15 ar
  25   14   33 1
  26   15   16 ar
  27   15   18 1
  28   16   17 ar
  29   16   34 1
  30   17   35 1
  31   18   23 1
  32   19   20 1
  33   19   36 1
  34   19   37 1
  35   20   21 1
  36   20   38 1
  37   20   39 1
  38   21   22 1
  39   21   40 1
  40   21   41 1
  41   22   42 1
  42   22   43 1
  43   23   24 1
  44   23   25 1
  45   23   26 1

#	End of record

