#	Name: ASD01884306
#	Creating user name:	WinNT
#	Creation time:	15. 06. 2019 19:47

#	Modifying user name:	WinNT
#	Modification time:	15. 06. 2019 19:47

#	Program:	/corina/corina34_cracker 3.40 0067  02.08.2006

@<TRIPOS>MOLECULE
ASD01884306
  28   29    0    0    0
SMALL
NO_CHARGES


@<TRIPOS>ATOM
   1 C1            -0.0412     1.3276    -0.3150 C.ar    
   2 N2            -0.0313     0.0135    -0.4216 N.ar    
   3 C3            -1.1344    -0.7003    -0.3130 C.ar    
   4 C4            -2.3558    -0.0848    -0.0807 C.ar    
   5 C5            -2.4025     1.3010     0.0372 C.ar    
   6 C6            -1.2190     2.0117    -0.0775 C.ar    
   7 C7            -5.1730     0.1431     1.4050 C.ar    
   8 C8            -4.6728    -0.1654     0.1481 C.ar    
   9 C9            -5.3809     0.2003    -0.9875 C.ar    
  10 C10           -6.5840     0.8717    -0.8643 C.ar    
  11 C11           -7.0809     1.1783     0.3927 C.ar    
  12 C12           -6.3749     0.8142     1.5246 C.ar    
  13 C13           -1.0679    -2.2002    -0.4431 C.3     
  14 O14           -3.4904    -0.8246     0.0296 O.3     
  15 C15            1.2497     2.0939    -0.4476 C.3     
  16 F16           -7.2745     1.2289    -1.9692 F       
  17 Br17          -8.7257     2.0961     0.5600 Br      
  18 H18           -3.3380     1.8097     0.2177 H       
  19 H19           -1.2176     3.0882     0.0090 H       
  20 H20           -4.6249    -0.1450     2.2899 H       
  21 H21           -4.9930    -0.0386    -1.9667 H       
  22 H22           -6.7637     1.0540     2.5032 H       
  23 H23           -0.8996    -2.6429     0.5387 H       
  24 H24           -2.0072    -2.5714    -0.8529 H       
  25 H25           -0.2486    -2.4712    -1.1090 H       
  26 H26            1.4087     2.3597    -1.4926 H       
  27 H27            1.1971     3.0012     0.1542 H       
  28 H28            2.0770     1.4749    -0.1002 H       
@<TRIPOS>BOND
   1    1    2 ar
   2    1   15 1
   3    1    6 ar
   4    2    3 ar
   5    3    4 ar
   6    3   13 1
   7    4    5 ar
   8    4   14 1
   9    5    6 ar
  10    5   18 1
  11    6   19 1
  12    7    8 ar
  13    7   12 ar
  14    7   20 1
  15    8    9 ar
  16    8   14 1
  17    9   10 ar
  18    9   21 1
  19   10   11 ar
  20   10   16 1
  21   11   12 ar
  22   11   17 1
  23   12   22 1
  24   13   23 1
  25   13   24 1
  26   13   25 1
  27   15   26 1
  28   15   27 1
  29   15   28 1

#	End of record

