#	Name: ASD01208900
#	Creating user name:	WinNT
#	Creation time:	15. 06. 2019 19:10

#	Modifying user name:	WinNT
#	Modification time:	15. 06. 2019 19:10

#	Program:	/corina/corina34_cracker 3.40 0067  02.08.2006

@<TRIPOS>MOLECULE
ASD01208900
  55   58    0    0    0
SMALL
NO_CHARGES


@<TRIPOS>ATOM
   1 C1            -0.2606     1.7871     0.5546 C.2     
   2 C2            -0.2297     0.3269     0.3265 C.ar    
   3 C3             0.9380    -0.2852    -0.1312 C.ar    
   4 C4             0.9629    -1.6536    -0.3432 C.ar    
   5 C5            -0.1710    -2.4159    -0.1015 C.ar    
   6 C6            -1.3340    -1.8115     0.3537 C.ar    
   7 C7            -1.3659    -0.4439     0.5738 C.ar    
   8 O8             0.7319     2.4565     0.3434 O.2     
   9 N9            -1.3909     2.3771     0.9915 N.am    
  10 O10           -2.4419    -2.5625     0.5884 O.3     
  11 C11           -3.4408    -2.5300    -0.3312 C.ar    
  12 C12           -4.6125    -3.2417    -0.1068 C.ar    
  13 C13           -5.6284    -3.2112    -1.0375 C.ar    
  14 C14           -5.4790    -2.4633    -2.2071 C.ar    
  15 C15           -4.3000    -1.7489    -2.4289 C.ar    
  16 C16           -3.2906    -1.7805    -1.4912 C.ar    
  17 O17           -6.5572    -1.7524    -4.3742 O.3     
  18 C18           -6.5657    -2.4283    -3.2078 C.2     
  19 N19           -7.7193    -3.0496    -3.1268 N.2     
  20 N20           -8.4151    -2.7910    -4.1777 N.2     
  21 C21           -7.7394    -2.0014    -4.9645 C.2     
  22 C22           -8.1999    -1.4646    -6.2952 C.3     
  23 O23            2.0995    -2.2506    -0.7890 O.3     
  24 C24            3.1030    -3.9982    -2.1229 C.3     
  25 C25            2.0217    -3.6431    -1.1004 C.3     
  26 C26            2.2352    -4.4633     0.1734 C.3     
  27 O27            4.3927    -3.8136    -1.5358 O.3     
  28 C28            5.4793    -4.1196    -2.4120 C.3     
  29 S29           -2.7808     4.6256     1.7566 S.3     
  30 C30           -1.4200     3.7494     1.2058 C.2     
  31 N31           -0.4193     4.5514     1.0177 N.2     
  32 C32           -0.6227     5.8309     1.2723 C.2     
  33 C33           -1.8548     6.1231     1.6958 C.2     
  34 Br34          -2.4941     7.8436     2.1509 Br      
  35 H35            1.8209     0.3074    -0.3203 H       
  36 H36           -0.1483    -3.4826    -0.2685 H       
  37 H37           -2.2703     0.0252     0.9320 H       
  38 H38           -2.1841     1.8436     1.1562 H       
  39 H39           -4.7274    -3.8200     0.7981 H       
  40 H40           -6.5388    -3.7653    -0.8626 H       
  41 H41           -4.1806    -1.1697    -3.3325 H       
  42 H42           -2.3798    -1.2253    -1.6602 H       
  43 H43           -7.9037    -2.1528    -7.0868 H       
  44 H44           -9.2851    -1.3623    -6.2898 H       
  45 H45           -7.7441    -0.4903    -6.4714 H       
  46 H46            2.9878    -5.0386    -2.4271 H       
  47 H47            3.0048    -3.3517    -2.9949 H       
  48 H48            1.0399    -3.8679    -1.5170 H       
  49 H49            3.2171    -4.2384     0.5900 H       
  50 H50            1.4649    -4.2103     0.9019 H       
  51 H51            2.1759    -5.5254    -0.0641 H       
  52 H52            6.4230    -3.9541    -1.8922 H       
  53 H53            5.4134    -5.1624    -2.7222 H       
  54 H54            5.4305    -3.4756    -3.2901 H       
  55 H55            0.1453     6.5801     1.1488 H       
@<TRIPOS>BOND
   1    1    2 1
   2    1    8 2
   3    1    9 am
   4    2    3 ar
   5    2    7 ar
   6    3    4 ar
   7    3   35 1
   8    4    5 ar
   9    4   23 1
  10    5    6 ar
  11    5   36 1
  12    6    7 ar
  13    6   10 1
  14    7   37 1
  15    9   30 1
  16    9   38 1
  17   10   11 1
  18   11   12 ar
  19   11   16 ar
  20   12   13 ar
  21   12   39 1
  22   13   14 ar
  23   13   40 1
  24   14   15 ar
  25   14   18 1
  26   15   16 ar
  27   15   41 1
  28   16   42 1
  29   17   18 1
  30   17   21 1
  31   18   19 2
  32   19   20 1
  33   20   21 2
  34   21   22 1
  35   22   43 1
  36   22   44 1
  37   22   45 1
  38   23   25 1
  39   24   25 1
  40   24   27 1
  41   24   46 1
  42   24   47 1
  43   25   26 1
  44   25   48 1
  45   26   49 1
  46   26   50 1
  47   26   51 1
  48   27   28 1
  49   28   52 1
  50   28   53 1
  51   28   54 1
  52   29   30 1
  53   29   33 1
  54   30   31 2
  55   31   32 1
  56   32   33 2
  57   32   55 1
  58   33   34 1

#	End of record

