#	Name: ASD00020003
#	Creating user name:	WinNT
#	Creation time:	15. 06. 2019 18:28

#	Modifying user name:	WinNT
#	Modification time:	15. 06. 2019 18:28

#	Program:	/corina/corina34_cracker 3.40 0067  02.08.2006

@<TRIPOS>MOLECULE
ASD00020003
  24   24    0    0    0
SMALL
NO_CHARGES


@<TRIPOS>ATOM
   1 N1            -0.0178     1.4648     0.0101 N.3     
   2 C2             0.0021    -0.0041     0.0020 C.3     
   3 C3            -1.4074    -0.5262     0.1106 C.2     
   4 O4            -2.3398     0.1885    -0.1718 O.2     
   5 C5             0.6299    -0.4984    -1.3027 C.3     
   6 C6             2.0767    -0.0798    -1.3542 C.2     
   7 C7             3.0177    -0.9346    -0.9447 C.2     
   8 C8             2.4157     1.2437    -1.8544 C.2     
   9 C9             4.4672    -0.5054    -1.0006 C.3     
  10 C10            3.6884     1.6916    -1.9319 C.2     
  11 C11            4.7683     0.8829    -1.5233 C.2     
  12 O12            5.9114     1.2879    -1.5932 O.2     
  13 O13           -1.6270    -1.7851     0.5212 O.3     
  14 H14            0.9191     1.8392     0.0032 H       
  15 H15           -0.5563     1.8234    -0.7642 H       
  16 H16            0.5890    -0.3641     0.8470 H       
  17 H17            0.5644    -1.5855    -1.3484 H       
  18 H18            0.0963    -0.0663    -2.1493 H       
  19 H19            2.7485    -1.9147    -0.5797 H       
  20 H20            1.6172     1.8951    -2.1775 H       
  21 H21            4.8757    -0.5781     0.0073 H       
  22 H22            5.0028    -1.2203    -1.6252 H       
  23 H23            3.8810     2.6839    -2.3123 H       
  24 H24           -2.5480    -2.0750     0.5750 H       
@<TRIPOS>BOND
   1    1    2 1
   2    1   14 1
   3    1   15 1
   4    2    3 1
   5    2    5 1
   6    2   16 1
   7    3    4 2
   8    3   13 1
   9    5    6 1
  10    5   17 1
  11    5   18 1
  12    6    7 2
  13    6    8 1
  14    7    9 1
  15    7   19 1
  16    8   10 2
  17    8   20 1
  18    9   11 1
  19    9   21 1
  20    9   22 1
  21   10   11 1
  22   10   23 1
  23   11   12 2
  24   13   24 1

#	End of record

