#	Name: ASD08070634
#	Creating user name:	WinNT
#	Creation time:	15. 06. 2019 21:15

#	Modifying user name:	WinNT
#	Modification time:	15. 06. 2019 21:15

#	Program:	/corina/corina34_cracker 3.40 0067  02.08.2006

@<TRIPOS>MOLECULE
ASD08070634
  44   44    0    0    0
SMALL
NO_CHARGES


@<TRIPOS>ATOM
   1 C1            -0.0180     1.4744     0.0101 C.2     
   2 C2             0.0021    -0.0041     0.0020 C.ar    
   3 C3             1.2180    -0.6872    -0.0133 C.ar    
   4 C4             1.2286    -2.0741    -0.0203 C.ar    
   5 C5             0.0293    -2.7784    -0.0122 C.ar    
   6 C6            -1.1749    -2.1009     0.0030 C.ar    
   7 C7            -1.1958    -0.7207     0.0154 C.ar    
   8 O8             1.0263     2.0964     0.0035 O.2     
   9 N9            -1.1942     2.1323     0.0193 N.am    
  10 C10           -1.2141     3.5972     0.0274 C.3     
  11 C11           -2.5311     4.0927    -0.5733 C.3     
  12 C12           -2.6000     3.6951    -2.0492 C.3     
  13 C13           -3.9170     4.1905    -2.6499 C.3     
  14 C14           -1.0885     4.1010     1.4665 C.3     
  15 C15            0.2816     3.7117     2.0254 C.3     
  16 C16            0.4072     4.2156     3.4646 C.3     
  17 S17            2.7610    -2.9436    -0.0402 S.3     
  18 C18            3.9881    -1.6076    -0.0459 C.3     
  19 C19            0.0431    -4.2853    -0.0204 C.3     
  20 H20            2.1479    -0.1381    -0.0199 H       
  21 H21           -2.1030    -2.6531     0.0092 H       
  22 H22           -2.1391    -0.1951     0.0318 H       
  23 H23           -2.0276     1.6360     0.0206 H       
  24 H24           -0.3801     3.9751    -0.5640 H       
  25 H25           -3.3669     3.6437    -0.0367 H       
  26 H26           -2.5845     5.1779    -0.4866 H       
  27 H27           -1.7643     4.1440    -2.5858 H       
  28 H28           -2.5466     2.6098    -2.1359 H       
  29 H29           -4.7528     3.7416    -2.1132 H       
  30 H30           -3.9704     5.2758    -2.5631 H       
  31 H31           -3.9662     3.9073    -3.7013 H       
  32 H32           -1.1923     5.1860     1.4820 H       
  33 H33           -1.8712     3.6524     2.0782 H       
  34 H34            0.3854     2.6268     2.0100 H       
  35 H35            1.0643     4.1604     1.4138 H       
  36 H36            0.3034     5.3005     3.4801 H       
  37 H37           -0.3756     3.7669     4.0763 H       
  38 H38            1.3832     3.9382     3.8628 H       
  39 H39            3.8465    -0.9880    -0.9314 H       
  40 H40            3.8645    -0.9969     0.8484 H       
  41 H41            4.9907    -2.0352    -0.0582 H       
  42 H42            0.0567    -4.6541     1.0052 H       
  43 H43           -0.8485    -4.6541    -0.5274 H       
  44 H44            0.9313    -4.6377    -0.5450 H       
@<TRIPOS>BOND
   1    1    2 1
   2    1    8 2
   3    1    9 am
   4    2    3 ar
   5    2    7 ar
   6    3    4 ar
   7    3   20 1
   8    4    5 ar
   9    4   17 1
  10    5    6 ar
  11    5   19 1
  12    6    7 ar
  13    6   21 1
  14    7   22 1
  15    9   10 1
  16    9   23 1
  17   10   11 1
  18   10   14 1
  19   10   24 1
  20   11   12 1
  21   11   25 1
  22   11   26 1
  23   12   13 1
  24   12   27 1
  25   12   28 1
  26   13   29 1
  27   13   30 1
  28   13   31 1
  29   14   15 1
  30   14   32 1
  31   14   33 1
  32   15   16 1
  33   15   34 1
  34   15   35 1
  35   16   36 1
  36   16   37 1
  37   16   38 1
  38   17   18 1
  39   18   39 1
  40   18   40 1
  41   18   41 1
  42   19   42 1
  43   19   43 1
  44   19   44 1

#	End of record

