#	Name: ASD09116192
#	Creating user name:	WinNT
#	Creation time:	15. 06. 2019 21:21

#	Modifying user name:	WinNT
#	Modification time:	15. 06. 2019 21:21

#	Program:	/corina/corina34_cracker 3.40 0067  02.08.2006

@<TRIPOS>MOLECULE
ASD09116192
  74   80    0    0    0
SMALL
NO_CHARGES


@<TRIPOS>ATOM
   1 N1            -0.0613     1.6026    -0.5383 N.2     
   2 C2            -0.0898     0.2763    -1.1799 C.3     
   3 C3             1.1886     1.9781    -0.5233 C.2     
   4 N4             2.0150     1.0677    -1.0772 N.2     
   5 C5             1.3683     0.0141    -1.5032 C.2     
   6 N6             1.6189     3.1796     0.0037 N.pl3   
   7 C7             2.9869     3.4576     0.0847 C.ar    
   8 C8             3.4384     4.7668    -0.0217 C.ar    
   9 C9             3.8965     2.4255     0.2774 C.ar    
  10 C10            5.2470     2.7030     0.3576 C.ar    
  11 C11            5.6965     4.0034     0.2472 C.ar    
  12 C12            4.7870     5.0406     0.0583 C.ar    
  13 N13            1.8928    -1.0852    -2.1085 N.pl3   
  14 C14           -0.6184    -0.7642    -0.2265 C.ar    
  15 C15           -1.5459    -1.7279    -0.6553 C.ar    
  16 N16           -0.2172    -0.7956     1.0294 N.ar    
  17 C17           -0.6707    -1.7030     1.8810 C.ar    
  18 N18           -1.5402    -2.6250     1.5421 N.ar    
  19 C19           -2.0076    -2.6832     0.2886 C.ar    
  20 C20           -2.9373    -3.6525    -0.1117 C.ar    
  21 C21           -3.3830    -3.6683    -1.4029 C.ar    
  22 C22           -2.9230    -2.7262    -2.3365 C.ar    
  23 C23           -2.0201    -1.7689    -1.9758 C.ar    
  24 O24           -3.3846    -2.7666    -3.6146 O.3     
  25 C25           -2.8793    -1.7817    -4.5183 C.3     
  26 O26           -4.2837    -4.6089    -1.7889 O.3     
  27 C27           -4.7147    -5.5409    -0.7951 C.3     
  28 C28            7.1630     4.3230     0.3347 C.3     
  29 C29            7.4465     5.1098     1.6149 C.3     
  30 C30            7.3825     6.6171     1.3006 C.3     
  31 C31            5.8696     6.9097     1.2749 C.3     
  32 C32            5.2968     6.4499    -0.0612 C.3     
  33 C33            6.2857     4.8696     2.6033 C.3     
  34 C34            5.2825     6.0158     2.3879 C.3     
  35 N35            8.0429     7.3953     2.3571 N.3     
  36 C36            9.4698     7.0390     2.4622 C.3     
  37 C37           10.2805     8.3388     2.2752 C.3     
  38 C38            9.2564     9.4451     2.6412 C.3     
  39 C39            7.9382     8.8458     2.0910 C.3     
  40 H40           -0.6893     0.3021    -2.0899 H       
  41 H41            0.9723     3.8309     0.3177 H       
  42 H42            2.7324     5.5709    -0.1676 H       
  43 H43            3.5479     1.4071     0.3647 H       
  44 H44            5.9536     1.9001     0.5074 H       
  45 H45            2.8483    -1.1430    -2.2652 H       
  46 H46            1.3114    -1.8113    -2.3834 H       
  47 H47           -0.3087    -1.6833     2.8984 H       
  48 H48           -3.2989    -4.3832     0.5966 H       
  49 H49           -1.6723    -1.0483    -2.7012 H       
  50 H50           -3.1285    -0.7872    -4.1482 H       
  51 H51           -1.7964    -1.8802    -4.5947 H       
  52 H52           -3.3276    -1.9265    -5.5012 H       
  53 H53           -3.8546    -6.0955    -0.4198 H       
  54 H54           -5.1870    -5.0030     0.0269 H       
  55 H55           -5.4311    -6.2351    -1.2343 H       
  56 H56            7.7359     3.3957     0.3450 H       
  57 H57            7.4562     4.9192    -0.5294 H       
  58 H58            8.4107     4.8347     2.0423 H       
  59 H59            7.8312     6.8268     0.3296 H       
  60 H60            5.6670     7.9664     1.4494 H       
  61 H61            6.0763     6.4886    -0.8220 H       
  62 H62            4.4775     7.1083    -0.3498 H       
  63 H63            5.8092     3.9118     2.3942 H       
  64 H64            6.6578     4.8865     3.6277 H       
  65 H65            5.1684     6.5902     3.3072 H       
  66 H66            4.3184     5.6146     2.0753 H       
  67 H67            9.6742     6.6126     3.4443 H       
  68 H68            9.7317     6.3233     1.6830 H       
  69 H69           11.1327     8.3625     2.9544 H       
  70 H70           10.6077     8.4434     1.2408 H       
  71 H71            9.2012     9.5844     3.7209 H       
  72 H72            9.4983    10.3824     2.1401 H       
  73 H73            7.8556     9.0300     1.0198 H       
  74 H74            7.0813     9.2671     2.6165 H       
@<TRIPOS>BOND
   1    1    2 1
   2    1    3 2
   3    2   14 1
   4    2    5 1
   5    2   40 1
   6    3    4 1
   7    3    6 1
   8    4    5 2
   9    5   13 1
  10    6    7 1
  11    6   41 1
  12    7    8 ar
  13    7    9 ar
  14    8   12 ar
  15    8   42 1
  16    9   10 ar
  17    9   43 1
  18   10   11 ar
  19   10   44 1
  20   11   12 ar
  21   11   28 1
  22   12   32 1
  23   13   45 1
  24   13   46 1
  25   14   15 ar
  26   14   16 ar
  27   15   19 ar
  28   15   23 ar
  29   16   17 ar
  30   17   18 ar
  31   17   47 1
  32   18   19 ar
  33   19   20 ar
  34   20   21 ar
  35   20   48 1
  36   21   22 ar
  37   21   26 1
  38   22   23 ar
  39   22   24 1
  40   23   49 1
  41   24   25 1
  42   25   50 1
  43   25   51 1
  44   25   52 1
  45   26   27 1
  46   27   53 1
  47   27   54 1
  48   27   55 1
  49   28   29 1
  50   28   56 1
  51   28   57 1
  52   29   30 1
  53   29   33 1
  54   29   58 1
  55   30   31 1
  56   30   35 1
  57   30   59 1
  58   31   32 1
  59   31   34 1
  60   31   60 1
  61   32   61 1
  62   32   62 1
  63   33   34 1
  64   33   63 1
  65   33   64 1
  66   34   65 1
  67   34   66 1
  68   35   36 1
  69   35   39 1
  70   36   37 1
  71   36   67 1
  72   36   68 1
  73   37   38 1
  74   37   69 1
  75   37   70 1
  76   38   39 1
  77   38   71 1
  78   38   72 1
  79   39   73 1
  80   39   74 1

#	End of record

