#	Name: ASD01884073
#	Creating user name:	WinNT
#	Creation time:	15. 06. 2019 19:47

#	Modifying user name:	WinNT
#	Modification time:	15. 06. 2019 19:47

#	Program:	/corina/corina34_cracker 3.40 0067  02.08.2006

@<TRIPOS>MOLECULE
ASD01884073
  42   45    0    0    0
SMALL
NO_CHARGES


@<TRIPOS>ATOM
   1 C1            -0.0178     1.4602     0.0101 C.2     
   2 C2             0.0021    -0.0041     0.0020 C.2     
   3 C3             1.2464    -0.6488    -0.0133 C.2     
   4 C4             2.4209     0.1313    -0.0204 C.2     
   5 C5             2.3601     1.4765    -0.0125 C.2     
   6 N6             1.1706     2.1448     0.0024 N.pl3   
   7 N7            -1.0020     2.3408     0.0295 N.2     
   8 C8            -0.4870     3.5744     0.0283 C.2     
   9 C9             0.8596     3.4792     0.0125 C.2     
  10 C10           -1.2163    -0.7564     0.0101 C.1     
  11 N11           -2.1829    -1.3533     0.0165 N.1     
  12 C12            1.8376     4.6257     0.0098 C.3     
  13 C13            2.0860     5.0875     1.4472 C.3     
  14 F14            2.6123     4.0274     2.1932 F       
  15 F15            2.9939     6.1519     1.4447 F       
  16 F16            0.8791     5.5054     2.0179 F       
  17 O17            2.4323    -4.8300    -2.2060 O.3     
  18 C18            1.4733    -5.5798    -2.9626 C.3     
  19 C19            1.2853    -6.9595    -2.3691 C.3     
  20 N20            0.7025    -6.9460    -1.0305 N.3     
  21 C21            1.6160    -6.3981    -0.0223 C.3     
  22 C22            1.4931    -4.8854    -0.0214 C.ar    
  23 C23            1.9349    -4.1739    -1.1232 C.ar    
  24 C24            1.8632    -2.7902    -1.1251 C.ar    
  25 C25            1.3263    -2.1262    -0.0215 C.ar    
  26 C26            0.8652    -2.8566     1.0747 C.ar    
  27 C27            0.9521    -4.2354     1.0695 C.ar    
  28 H28            3.3839    -0.3574    -0.0318 H       
  29 H29            3.2796     2.0429    -0.0183 H       
  30 H30           -1.0536     4.4938     0.0416 H       
  31 H31            2.7779     4.3001    -0.4349 H       
  32 H32            1.4275     5.4517    -0.5714 H       
  33 H33            0.5191    -5.0529    -2.9557 H       
  34 H34            1.8225    -5.6756    -3.9907 H       
  35 H35            0.6350    -7.5363    -3.0267 H       
  36 H36            2.2556    -7.4539    -2.3219 H       
  37 H37           -0.1789    -6.4548    -1.0248 H       
  38 H38            1.3505    -6.7868     0.9608 H       
  39 H39            2.6402    -6.6813    -0.2649 H       
  40 H40            2.2212    -2.2290    -1.9755 H       
  41 H41            0.4411    -2.3447     1.9258 H       
  42 H42            0.5980    -4.8032     1.9172 H       
@<TRIPOS>BOND
   1    1    2 1
   2    1    6 1
   3    1    7 2
   4    2    3 2
   5    2   10 1
   6    3    4 1
   7    3   25 1
   8    4    5 2
   9    4   28 1
  10    5    6 1
  11    5   29 1
  12    6    9 1
  13    7    8 1
  14    8    9 2
  15    8   30 1
  16    9   12 1
  17   10   11 3
  18   12   13 1
  19   12   31 1
  20   12   32 1
  21   13   14 1
  22   13   15 1
  23   13   16 1
  24   17   18 1
  25   17   23 1
  26   18   19 1
  27   18   33 1
  28   18   34 1
  29   19   20 1
  30   19   35 1
  31   19   36 1
  32   20   21 1
  33   20   37 1
  34   21   22 1
  35   21   38 1
  36   21   39 1
  37   22   23 ar
  38   22   27 ar
  39   23   24 ar
  40   24   25 ar
  41   24   40 1
  42   25   26 ar
  43   26   27 ar
  44   26   41 1
  45   27   42 1

#	End of record

