#	Name: ASD01028601
#	Creating user name:	WinNT
#	Creation time:	15. 06. 2019 18:57

#	Modifying user name:	WinNT
#	Modification time:	15. 06. 2019 18:57

#	Program:	/corina/corina34_cracker 3.40 0067  02.08.2006

@<TRIPOS>MOLECULE
ASD01028601
  45   46    0    0    0
SMALL
NO_CHARGES


@<TRIPOS>ATOM
   1 C1             0.0381     1.3288     0.0515 C.2     
   2 N2             0.0092    -0.0178     0.0036 N.am    
   3 O3             1.1012     1.9156     0.0063 O.2     
   4 O4            -1.1112     2.0240     0.1438 O.3     
   5 C5             1.2594    -0.7740    -0.1030 C.3     
   6 C6             2.3695    -0.7046    -3.5760 C.2     
   7 C7             3.0424    -0.0371    -4.6155 C.2     
   8 C8             3.6053     1.1769    -4.3661 C.2     
   9 C9             3.5117     1.7479    -3.0884 C.2     
  10 N10            2.8871     1.1307    -2.1194 N.2     
  11 N11            2.2968    -0.1159    -2.3361 N.pl3   
  12 N12            1.2821    -2.0086    -2.2919 N.2     
  13 N13            1.7284    -1.8588    -3.4903 N.2     
  14 C14            1.6035    -0.9734    -1.5565 C.2     
  15 Cl15           4.2359     3.2970    -2.7890 Cl      
  16 C16           -1.2725    -0.7253     0.0581 C.3     
  17 C17           -2.1276    -0.3251    -1.1458 C.3     
  18 C18           -1.0236    -2.2346     0.0277 C.3     
  19 C19           -2.0049    -0.3552     1.3494 C.3     
  20 C20           -1.0042     3.4713     0.1909 C.3     
  21 C21           -0.3209     3.9738    -1.0825 C.3     
  22 C22           -2.4027     4.0830     0.2947 C.3     
  23 C23           -0.1761     3.8821     1.4101 C.3     
  24 H24            2.0609    -0.2220     0.3878 H       
  25 H25            1.1391    -1.7446     0.3784 H       
  26 H26            3.1116    -0.4817    -5.5974 H       
  27 H27            4.1255     1.7015    -5.1539 H       
  28 H28           -1.6059    -0.5888    -2.0658 H       
  29 H29           -3.0812    -0.8515    -1.1053 H       
  30 H30           -2.3049     0.7502    -1.1242 H       
  31 H31           -0.4692    -2.5295     0.9186 H       
  32 H32           -1.9784    -2.7599     0.0034 H       
  33 H33           -0.4459    -2.4897    -0.8607 H       
  34 H34           -2.1822     0.7201     1.3711 H       
  35 H35           -2.9585    -0.8816     1.3900 H       
  36 H36           -1.3957    -0.6403     2.2072 H       
  37 H37           -0.9108     3.6812    -1.9511 H       
  38 H38           -0.2406     5.0603    -1.0471 H       
  39 H39            0.6755     3.5381    -1.1564 H       
  40 H40           -2.8895     3.7249     1.2018 H       
  41 H41           -2.3224     5.1694     0.3300 H       
  42 H42           -2.9926     3.7903    -0.5739 H       
  43 H43            0.8202     3.4463     1.3362 H       
  44 H44           -0.0958     4.9685     1.4455 H       
  45 H45           -0.6629     3.5240     2.3173 H       
@<TRIPOS>BOND
   1    1    2 am
   2    1    3 2
   3    1    4 1
   4    2    5 1
   5    2   16 1
   6    4   20 1
   7    5   14 1
   8    5   24 1
   9    5   25 1
  10    6    7 1
  11    6   11 1
  12    6   13 2
  13    7    8 2
  14    7   26 1
  15    8    9 1
  16    8   27 1
  17    9   10 2
  18    9   15 1
  19   10   11 1
  20   11   14 1
  21   12   13 1
  22   12   14 2
  23   16   17 1
  24   16   19 1
  25   16   18 1
  26   17   28 1
  27   17   29 1
  28   17   30 1
  29   18   31 1
  30   18   32 1
  31   18   33 1
  32   19   34 1
  33   19   35 1
  34   19   36 1
  35   20   21 1
  36   20   23 1
  37   20   22 1
  38   21   37 1
  39   21   38 1
  40   21   39 1
  41   22   40 1
  42   22   41 1
  43   22   42 1
  44   23   43 1
  45   23   44 1
  46   23   45 1

#	End of record

