#	Name: ASD01940575
#	Creating user name:	WinNT
#	Creation time:	15. 06. 2019 20:12

#	Modifying user name:	WinNT
#	Modification time:	15. 06. 2019 20:12

#	Program:	/corina/corina34_cracker 3.40 0067  02.08.2006

@<TRIPOS>MOLECULE
ASD01940575
  50   51    0    0    0
SMALL
NO_CHARGES


@<TRIPOS>ATOM
   1 C1            -0.0800     1.2204     0.2381 C.2     
   2 N2             0.0949    -0.0925    -0.0113 N.am    
   3 O3             0.8801     1.9782     0.2272 O.co2   
   4 O4            -1.1996     1.6550     0.4704 O.co2   
   5 C5             1.3571    -0.5721    -0.3913 C.ar    
   6 C6             1.7049    -0.6277    -1.7366 C.ar    
   7 C7             2.9584    -1.1039    -2.1074 C.ar    
   8 C8             3.8558    -1.5212    -1.1336 C.ar    
   9 C9             3.5052    -1.4645     0.2021 C.ar    
  10 C10            2.2632    -0.9867     0.5754 C.ar    
  11 S11            4.2776    -2.3920    -4.0101 S.o2    
  12 O12            4.3462    -2.1821    -5.4139 O.2     
  13 O13            5.4424    -2.3136    -3.1999 O.2     
  14 N14            3.3141    -1.1626    -3.4600 N.am    
  15 C15            3.3430    -3.9012    -3.6370 C.3     
  16 O16            0.8218    -0.2179    -2.6875 O.3     
  17 C17            0.8705     1.1586    -3.0681 C.3     
  18 C18            4.4825    -1.9195     1.2551 C.3     
  19 C19            5.7730    -2.3923     0.5829 C.3     
  20 C20            4.7952    -0.7557     2.1978 C.3     
  21 C21            3.8714    -3.0727     2.0538 C.3     
  22 C22           -0.9835    -0.9778     0.1090 C.ar    
  23 C23           -2.0465    -0.9046    -0.7816 C.ar    
  24 C24           -3.1083    -1.7795    -0.6607 C.ar    
  25 C25           -3.1139    -2.7273     0.3462 C.ar    
  26 C26           -2.0572    -2.8025     1.2349 C.ar    
  27 C27           -0.9895    -1.9345     1.1155 C.ar    
  28 H28            4.8291    -1.8911    -1.4204 H       
  29 H29            1.9955    -0.9397     1.6207 H       
  30 H30            2.9961    -0.4833    -4.0750 H       
  31 H31            3.9097    -4.7710    -3.9693 H       
  32 H32            3.1732    -3.9671    -2.5623 H       
  33 H33            2.3845    -3.8725    -4.1552 H       
  34 H34            0.6739     1.7836    -2.1970 H       
  35 H35            1.8582     1.3907    -3.4663 H       
  36 H36            0.1165     1.3515    -3.8312 H       
  37 H37            6.2084    -1.5708     0.0140 H       
  38 H38            6.4799    -2.7215     1.3446 H       
  39 H39            5.5503    -3.2215    -0.0886 H       
  40 H40            3.8758    -0.4189     2.6766 H       
  41 H41            5.5021    -1.0849     2.9594 H       
  42 H42            5.2305     0.0658     1.6288 H       
  43 H43            3.6486    -3.9018     1.3822 H       
  44 H44            4.5783    -3.4018     2.8154 H       
  45 H45            2.9520    -2.7358     2.5326 H       
  46 H46           -2.0430    -0.1641    -1.5678 H       
  47 H47           -3.9353    -1.7230    -1.3530 H       
  48 H48           -3.9456    -3.4101     0.4389 H       
  49 H49           -2.0646    -3.5436     2.0204 H       
  50 H50           -0.1622    -1.9969     1.8069 H       
@<TRIPOS>BOND
   1    1    2 am
   2    1    3 ar
   3    1    4 ar
   4    2    5 1
   5    2   22 1
   6    5    6 ar
   7    5   10 ar
   8    6    7 ar
   9    6   16 1
  10    7    8 ar
  11    7   14 1
  12    8    9 ar
  13    8   28 1
  14    9   10 ar
  15    9   18 1
  16   10   29 1
  17   11   12 2
  18   11   13 2
  19   11   14 am
  20   11   15 1
  21   14   30 1
  22   15   31 1
  23   15   32 1
  24   15   33 1
  25   16   17 1
  26   17   34 1
  27   17   35 1
  28   17   36 1
  29   18   19 1
  30   18   21 1
  31   18   20 1
  32   19   37 1
  33   19   38 1
  34   19   39 1
  35   20   40 1
  36   20   41 1
  37   20   42 1
  38   21   43 1
  39   21   44 1
  40   21   45 1
  41   22   23 ar
  42   22   27 ar
  43   23   24 ar
  44   23   46 1
  45   24   25 ar
  46   24   47 1
  47   25   26 ar
  48   25   48 1
  49   26   27 ar
  50   26   49 1
  51   27   50 1

#	End of record

