#	Name: ASD01028297
#	Creating user name:	WinNT
#	Creation time:	15. 06. 2019 18:56

#	Modifying user name:	WinNT
#	Modification time:	15. 06. 2019 18:56

#	Program:	/corina/corina34_cracker 3.40 0067  02.08.2006

@<TRIPOS>MOLECULE
ASD01028297
  54   58    0    0    0
SMALL
NO_CHARGES


@<TRIPOS>ATOM
   1 C1            -0.0166     1.3719     0.0096 C.ar    
   2 C2             0.0021    -0.0041     0.0020 C.ar    
   3 C3             1.1750     2.1035     0.0021 C.ar    
   4 C4             2.3797     1.4715    -0.0128 C.ar    
   5 C5             2.4326     0.0695    -0.0208 C.ar    
   6 C6             1.2322    -0.6815    -0.0134 C.ar    
   7 C7             3.6676    -0.6170    -0.0367 C.ar    
   8 C8             3.6411    -2.0003    -0.0444 C.ar    
   9 C9             2.4221    -2.6660    -0.0364 C.ar    
  10 N10            1.2804    -2.0188    -0.0211 N.ar    
  11 O11            4.8427     0.0593    -0.0447 O.3     
  12 C12            6.0400    -0.7207    -0.0607 C.3     
  13 C13            7.2364     0.1957    -0.0676 C.2     
  14 N14            7.8801     0.6746     1.0193 N.pl3   
  15 C15            8.9006     1.4612     0.5397 C.2     
  16 N16            8.8266     1.4211    -0.7806 N.2     
  17 N17            7.8431     0.6668    -1.1285 N.2     
  18 N18            7.7018     0.5215     2.3957 N.2     
  19 C19            8.5049     1.1258     3.2432 C.2     
  20 C20            9.5613     1.9397     2.7821 C.2     
  21 C21            9.7604     2.1072     1.4481 C.2     
  22 C22            8.2977     0.9502     4.7018 C.ar    
  23 O23           -1.2065     2.0271     0.0188 O.3     
  24 C24           -1.1606     3.4553     0.0263 C.3     
  25 C25            7.2576     0.1493     5.1687 C.ar    
  26 C26            9.1463     1.5812     5.6095 C.ar    
  27 C27            8.9489     1.4138     6.9661 C.ar    
  28 Cl28          10.0045     2.1987     8.0989 Cl      
  29 C29            7.9100     0.6212     7.4240 C.ar    
  30 C30            7.6987     0.4422     8.9053 C.3     
  31 C31            7.0691    -0.0114     6.5268 C.ar    
  32 N32            6.3227    -0.0087     9.1528 N.3     
  33 C33            8.6814    -0.6025     9.4381 C.3     
  34 F34            9.9918    -0.1730     9.2025 F       
  35 F35            8.4853    -0.7686    10.8133 F       
  36 F36            8.4656    -1.8211     8.7857 F       
  37 H37           -0.9239    -0.5598     0.0082 H       
  38 H38            1.1387     3.1829     0.0079 H       
  39 H39            3.2932     2.0476    -0.0188 H       
  40 H40            4.5646    -2.5602    -0.0569 H       
  41 H41            2.4134    -3.7460    -0.0425 H       
  42 H42            6.0728    -1.3543     0.8256 H       
  43 H43            6.0552    -1.3447    -0.9543 H       
  44 H44           10.2128     2.4301     3.4902 H       
  45 H45           10.5676     2.7287     1.0895 H       
  46 H46           -0.6396     3.8068    -0.8642 H       
  47 H47           -2.1761     3.8514     0.0333 H       
  48 H48           -0.6312     3.7971     0.9157 H       
  49 H49            6.5996    -0.3448     4.4693 H       
  50 H50            9.9567     2.1995     5.2528 H       
  51 H51            7.8668     1.3917     9.4137 H       
  52 H52            6.2631    -0.6321     6.8892 H       
  53 H53            6.1419    -0.8878     8.6917 H       
  54 H54            6.1361    -0.0743    10.1422 H       
@<TRIPOS>BOND
   1    1    2 ar
   2    1    3 ar
   3    1   23 1
   4    2    6 ar
   5    2   37 1
   6    3    4 ar
   7    3   38 1
   8    4    5 ar
   9    4   39 1
  10    5    6 ar
  11    5    7 ar
  12    6   10 ar
  13    7    8 ar
  14    7   11 1
  15    8    9 ar
  16    8   40 1
  17    9   10 ar
  18    9   41 1
  19   11   12 1
  20   12   13 1
  21   12   42 1
  22   12   43 1
  23   13   14 1
  24   13   17 2
  25   14   15 1
  26   14   18 1
  27   15   16 2
  28   15   21 1
  29   16   17 1
  30   18   19 2
  31   19   20 1
  32   19   22 1
  33   20   21 2
  34   20   44 1
  35   21   45 1
  36   22   25 ar
  37   22   26 ar
  38   23   24 1
  39   24   46 1
  40   24   47 1
  41   24   48 1
  42   25   31 ar
  43   25   49 1
  44   26   27 ar
  45   26   50 1
  46   27   28 1
  47   27   29 ar
  48   29   30 1
  49   29   31 ar
  50   30   32 1
  51   30   33 1
  52   30   51 1
  53   31   52 1
  54   32   53 1
  55   32   54 1
  56   33   34 1
  57   33   35 1
  58   33   36 1

#	End of record

