#	Name: ASD08070137
#	Creating user name:	WinNT
#	Creation time:	15. 06. 2019 21:14

#	Modifying user name:	WinNT
#	Modification time:	15. 06. 2019 21:14

#	Program:	/corina/corina34_cracker 3.40 0067  02.08.2006

@<TRIPOS>MOLECULE
ASD08070137
  41   41    0    0    0
SMALL
NO_CHARGES


@<TRIPOS>ATOM
   1 C1            -0.0178     1.4600     0.0101 C.2     
   2 N2            -1.1558    -0.6938     0.0094 N.am    
   3 C3            -1.1360    -2.1586     0.0013 C.3     
   4 C4             0.0021    -0.0041     0.0020 C.2     
   5 O5             1.0641    -0.5981    -0.0113 O.2     
   6 C6            -0.9918    -2.6668     1.4127 C.2     
   7 C7            -2.4420    -2.6831    -0.5987 C.3     
   8 C8            -2.5290    -2.2714    -2.0697 C.3     
   9 C9            -1.4150    -2.9616    -2.8592 C.3     
  10 O10           -0.9502    -3.9874     1.6496 O.3     
  11 C11           -0.8100    -4.4048     3.0332 C.3     
  12 C12           -3.8883    -2.6868    -2.6361 C.3     
  13 O13           -0.9137    -1.8855     2.3311 O.2     
  14 C14            1.1404     2.1499     0.0027 C.2     
  15 C15            1.1204     3.6218     0.0108 C.ar    
  16 C16            2.3197     4.3410     0.0032 C.ar    
  17 C17            2.2927     5.7196     0.0109 C.ar    
  18 C18            1.0829     6.3916     0.0266 C.ar    
  19 C19           -0.1083     5.6869     0.0346 C.ar    
  20 C20           -0.0979     4.3081     0.0203 C.ar    
  21 H21           -0.9603     1.9873     0.0174 H       
  22 H22           -2.0023    -0.2203     0.0200 H       
  23 H23           -0.2950    -2.5073    -0.5981 H       
  24 H24           -2.4656    -3.7702    -0.5237 H       
  25 H25           -3.2870    -2.2629    -0.0532 H       
  26 H26           -2.4163    -1.1903    -2.1517 H       
  27 H27           -1.5277    -4.0427    -2.7772 H       
  28 H28           -1.4770    -2.6683    -3.9072 H       
  29 H29           -0.4466    -2.6656    -2.4557 H       
  30 H30            0.1182    -4.0047     3.4412 H       
  31 H31           -1.6533    -4.0297     3.6131 H       
  32 H32           -0.7898    -5.4934     3.0840 H       
  33 H33           -4.6819    -2.1951    -2.0736 H       
  34 H34           -3.9502    -2.3935    -3.6840 H       
  35 H35           -4.0010    -3.7679    -2.5541 H       
  36 H36            2.0829     1.6227    -0.0091 H       
  37 H37            3.2645     3.8180    -0.0083 H       
  38 H38            3.2181     6.2764     0.0051 H       
  39 H39            1.0682     7.4714     0.0329 H       
  40 H40           -1.0484     6.2183     0.0472 H       
  41 H41           -1.0282     3.7595     0.0263 H       
@<TRIPOS>BOND
   1    1    4 1
   2    1   14 2
   3    1   21 1
   4    2    4 am
   5    2    3 1
   6    2   22 1
   7    3    6 1
   8    3    7 1
   9    3   23 1
  10    4    5 2
  11    6   10 1
  12    6   13 2
  13    7    8 1
  14    7   24 1
  15    7   25 1
  16    8    9 1
  17    8   12 1
  18    8   26 1
  19    9   27 1
  20    9   28 1
  21    9   29 1
  22   10   11 1
  23   11   30 1
  24   11   31 1
  25   11   32 1
  26   12   33 1
  27   12   34 1
  28   12   35 1
  29   14   15 1
  30   14   36 1
  31   15   16 ar
  32   15   20 ar
  33   16   17 ar
  34   16   37 1
  35   17   18 ar
  36   17   38 1
  37   18   19 ar
  38   18   39 1
  39   19   20 ar
  40   19   40 1
  41   20   41 1

#	End of record

