#	Name: ASD05130076
#	Creating user name:	WinNT
#	Creation time:	15. 06. 2019 20:56

#	Modifying user name:	WinNT
#	Modification time:	15. 06. 2019 20:56

#	Program:	/corina/corina34_cracker 3.40 0067  02.08.2006

@<TRIPOS>MOLECULE
ASD05130076
  56   59    0    0    0
SMALL
NO_CHARGES


@<TRIPOS>ATOM
   1 N1             0.2079     2.0823    -0.2387 N.am    
   2 C2             0.1803     0.8853     0.3801 C.2     
   3 O3             1.2008     0.4199     0.8495 O.2     
   4 N4            -0.9786     0.2042     0.4786 N.am    
   5 C5            -0.9861    -1.0910     1.0083 C.ar    
   6 C6            -2.1331    -1.5892     1.6121 C.ar    
   7 C7            -2.1374    -2.8681     2.1334 C.ar    
   8 C8            -1.0010    -3.6521     2.0551 C.ar    
   9 C9             0.1429    -3.1588     1.4549 C.ar    
  10 C10            0.1517    -1.8829     0.9261 C.ar    
  11 C11            1.3934     2.8289    -0.2676 C.ar    
  12 C12            1.3407     4.2137    -0.3963 C.ar    
  13 C13            2.5090     4.9543    -0.4248 C.ar    
  14 C14            3.7340     4.3229    -0.3262 C.ar    
  15 C15            3.7949     2.9347    -0.1969 C.ar    
  16 C16            2.6174     2.1891    -0.1624 C.ar    
  17 F17            0.1457     4.8363    -0.4940 F       
  18 Cl18           5.1972     5.2562    -0.3636 Cl      
  19 N19            7.0659     1.7008     1.2529 N.am    
  20 C20            5.8723     2.3187     1.1563 C.2     
  21 C21            5.1074     2.2555    -0.0916 C.2     
  22 C22            5.6129     1.5649    -1.1587 C.2     
  23 C23            6.8689     0.9244    -1.0320 C.ar    
  24 C24            7.4246     0.2069    -2.0986 C.ar    
  25 N25            8.5928    -0.3818    -1.9641 N.ar    
  26 C26            9.2880    -0.3258    -0.8338 C.ar    
  27 C27            8.8117     0.3625     0.2716 C.ar    
  28 C28            7.5809     1.0043     0.1842 C.ar    
  29 O29            5.4275     2.9317     2.1104 O.2     
  30 C30            7.8240     1.7764     2.5043 C.3     
  31 C31            7.4312     0.6075     3.4100 C.3     
  32 C32           11.0417    -1.5572    -1.8525 C.2     
  33 C33           12.4235    -2.1561    -1.7995 C.3     
  34 O34           10.4002    -1.6024    -2.8807 O.2     
  35 N35           10.5187    -0.9712    -0.7572 N.am    
  36 H36           -0.5918     2.4252    -0.6674 H       
  37 H37           -1.8074     0.6119     0.1824 H       
  38 H38           -3.0207    -0.9771     1.6742 H       
  39 H39           -3.0291    -3.2562     2.6031 H       
  40 H40           -1.0068    -4.6518     2.4639 H       
  41 H41            1.0291    -3.7733     1.3959 H       
  42 H42            1.0440    -1.4998     0.4535 H       
  43 H43            2.4634     6.0287    -0.5248 H       
  44 H44            2.6596     1.1150    -0.0584 H       
  45 H45            5.0610     1.5087    -2.0853 H       
  46 H46            6.8915     0.1366    -3.0352 H       
  47 H47            9.3867     0.3996     1.1850 H       
  48 H48            8.8908     1.7246     2.2865 H       
  49 H49            7.6012     2.7170     3.0078 H       
  50 H50            6.3644     0.6592     3.6278 H       
  51 H51            7.6540    -0.3332     2.9064 H       
  52 H52            7.9952     0.6637     4.3410 H       
  53 H53           12.6731    -2.5806    -2.7719 H       
  54 H54           13.1461    -1.3807    -1.5453 H       
  55 H55           12.4509    -2.9403    -1.0429 H       
  56 H56           11.0001    -0.9993     0.0845 H       
@<TRIPOS>BOND
   1    1    2 am
   2    1   11 1
   3    1   36 1
   4    2    3 2
   5    2    4 am
   6    4    5 1
   7    4   37 1
   8    5    6 ar
   9    5   10 ar
  10    6    7 ar
  11    6   38 1
  12    7    8 ar
  13    7   39 1
  14    8    9 ar
  15    8   40 1
  16    9   10 ar
  17    9   41 1
  18   10   42 1
  19   11   12 ar
  20   11   16 ar
  21   12   13 ar
  22   12   17 1
  23   13   14 ar
  24   13   43 1
  25   14   15 ar
  26   14   18 1
  27   15   16 ar
  28   15   21 1
  29   16   44 1
  30   19   20 am
  31   19   28 1
  32   19   30 1
  33   20   21 1
  34   20   29 2
  35   21   22 2
  36   22   23 1
  37   22   45 1
  38   23   24 ar
  39   23   28 ar
  40   24   25 ar
  41   24   46 1
  42   25   26 ar
  43   26   27 ar
  44   26   35 1
  45   27   28 ar
  46   27   47 1
  47   30   31 1
  48   30   48 1
  49   30   49 1
  50   31   50 1
  51   31   51 1
  52   31   52 1
  53   32   33 1
  54   32   34 2
  55   32   35 am
  56   33   53 1
  57   33   54 1
  58   33   55 1
  59   35   56 1

#	End of record

