#	Name: ASD01916342
#	Creating user name:	WinNT
#	Creation time:	15. 06. 2019 20:07

#	Modifying user name:	WinNT
#	Modification time:	15. 06. 2019 20:07

#	Program:	/corina/corina34_cracker 3.40 0067  02.08.2006

@<TRIPOS>MOLECULE
ASD01916342
  40   43    0    0    0
SMALL
NO_CHARGES


@<TRIPOS>ATOM
   1 C1            -0.0167     1.3798     0.0096 C.ar    
   2 C2             0.0021    -0.0041     0.0020 C.ar    
   3 C3             1.2058    -0.6869    -0.0131 C.ar    
   4 C4             2.3968     0.0081    -0.0203 C.ar    
   5 C5             2.3861     1.4063    -0.0127 C.ar    
   6 C6             1.1659     2.0889     0.0021 C.ar    
   7 C7             3.6186     2.1354    -0.0196 C.1     
   8 C8             4.6290     2.7332    -0.0252 C.1     
   9 C9             5.8614     3.4623    -0.0321 C.2     
  10 S10            6.0047     5.2189    -0.0239 S.3     
  11 C11            7.7489     5.0718    -0.0385 C.2     
  12 C12            8.0862     3.7265    -0.0495 C.2     
  13 N13            7.0570     2.9268    -0.0397 N.2     
  14 C14            8.7675     6.1253    -0.0386 C.2     
  15 N15           10.0317     5.7482    -0.3421 N.am    
  16 C16           10.3483     4.4023    -0.8013 C.3     
  17 C17            9.5537     3.3247    -0.0668 C.3     
  18 O18            8.4906     7.2815     0.2208 O.2     
  19 C19           11.0287     6.6463    -0.2160 C.2     
  20 C20           10.7275     8.0452     0.2566 C.3     
  21 O21           12.1680     6.3287    -0.4827 O.2     
  22 C22           11.9705     8.9460     0.3469 C.3     
  23 C23           11.0958    10.0764    -0.2203 C.3     
  24 C24           10.2291     8.9785    -0.8594 C.3     
  25 F25           10.4288    10.8158     0.7624 F       
  26 F26           11.7571    10.8824    -1.1532 F       
  27 H27           -0.9600     1.9056     0.0169 H       
  28 H28           -0.9274    -0.5540     0.0083 H       
  29 H29            1.2124    -1.7669    -0.0190 H       
  30 H30            3.3353    -0.5261    -0.0314 H       
  31 H31            1.1497     3.1688     0.0077 H       
  32 H32           10.1313     4.3343    -1.8673 H       
  33 H33           11.4121     4.2200    -0.6489 H       
  34 H34            9.9202     3.2334     0.9557 H       
  35 H35            9.6654     2.3718    -0.5840 H       
  36 H36           10.1079     8.0649     1.1532 H       
  37 H37           12.3069     9.1248     1.3682 H       
  38 H38           12.7786     8.6431    -0.3190 H       
  39 H39           10.5611     8.6845    -1.8551 H       
  40 H40            9.1596     9.1836    -0.8120 H       
@<TRIPOS>BOND
   1    1    2 ar
   2    1    6 ar
   3    1   27 1
   4    2    3 ar
   5    2   28 1
   6    3    4 ar
   7    3   29 1
   8    4    5 ar
   9    4   30 1
  10    5    6 ar
  11    5    7 1
  12    6   31 1
  13    7    8 3
  14    8    9 1
  15    9   10 1
  16    9   13 2
  17   10   11 1
  18   11   12 2
  19   11   14 1
  20   12   13 1
  21   12   17 1
  22   14   15 am
  23   14   18 2
  24   15   16 1
  25   15   19 am
  26   16   17 1
  27   16   32 1
  28   16   33 1
  29   17   34 1
  30   17   35 1
  31   19   20 1
  32   19   21 2
  33   20   22 1
  34   20   24 1
  35   20   36 1
  36   22   23 1
  37   22   37 1
  38   22   38 1
  39   23   24 1
  40   23   25 1
  41   23   26 1
  42   24   39 1
  43   24   40 1

#	End of record

