#	Name: ASD03092125
#	Creating user name:	WinNT
#	Creation time:	15. 06. 2019 20:32

#	Modifying user name:	WinNT
#	Modification time:	15. 06. 2019 20:32

#	Program:	/corina/corina34_cracker 3.40 0067  02.08.2006

@<TRIPOS>MOLECULE
ASD03092125
  57   60    0    0    0
SMALL
NO_CHARGES


@<TRIPOS>ATOM
   1 N1             0.1336     1.3454     0.0419 N.am    
   2 C2            -0.0039    -0.0175    -0.0100 C.2     
   3 C3            -1.3390    -0.2903    -0.0520 C.2     
   4 C4            -2.0286     0.9325    -0.0250 C.2     
   5 N5            -1.1503     1.9053     0.0362 N.2     
   6 N6            -3.4172     1.0872    -0.0533 N.pl3   
   7 C7            -3.9820     2.3561     0.0977 C.ar    
   8 C8            -5.2380     2.6261    -0.4315 C.ar    
   9 C9            -5.7962     3.8809    -0.2820 C.ar    
  10 C10           -5.1077     4.8703     0.3937 C.ar    
  11 C11           -3.2913     3.3475     0.7819 C.ar    
  12 C12            1.0933    -1.0088    -0.0194 C.ar    
  13 C13            1.2963     2.0249     0.0949 C.2     
  14 C14            0.9720    -2.2227     0.6669 C.ar    
  15 C15            2.0201    -3.1185     0.6315 C.ar    
  16 N16            3.1242    -2.8435    -0.0366 N.ar    
  17 C17            3.2798    -1.7117    -0.6967 C.ar    
  18 C18            2.2799    -0.7618    -0.7195 C.ar    
  19 C19            4.5651    -1.4558    -1.4406 C.3     
  20 C20           -3.8527     4.6063     0.9250 C.ar    
  21 N21            1.2938     3.3710     0.0277 N.am    
  22 O22            2.3469     1.4240     0.2032 O.2     
  23 C23            2.5576     4.1097     0.0853 C.3     
  24 C24            1.9030    -4.4289     1.3663 C.3     
  25 C25            2.4945     5.4918    -0.5860 C.3     
  26 C26            3.3509     6.0106     0.5811 C.3     
  27 C27            2.7772     4.8522     1.4140 C.3     
  28 O28           -3.1770     5.5805     1.5893 O.3     
  29 C29           -1.8907     5.2385     2.1097 C.3     
  30 C30           -7.1584     4.1715    -0.8573 C.3     
  31 F31           -8.1395     3.8777     0.0957 F       
  32 F32           -7.2381     5.5237    -1.2071 F       
  33 F33           -7.3621     3.3828    -1.9947 F       
  34 H34           -1.7865    -1.2722    -0.0981 H       
  35 H35           -3.9890     0.3136    -0.1779 H       
  36 H36           -5.7780     1.8547    -0.9604 H       
  37 H37           -5.5464     5.8505     0.5083 H       
  38 H38           -2.3168     3.1391     1.1982 H       
  39 H39            0.0713    -2.4542     1.2160 H       
  40 H40            2.4140     0.1623    -1.2621 H       
  41 H41            4.4751    -1.8293    -2.4607 H       
  42 H42            4.7652    -0.3845    -1.4624 H       
  43 H43            5.3847    -1.9683    -0.9370 H       
  44 H44            0.4551     3.8507    -0.0587 H       
  45 H45            3.4126     3.5106    -0.2281 H       
  46 H46            1.4743    -5.1803     0.7032 H       
  47 H47            2.8917    -4.7529     1.6914 H       
  48 H48            1.2583    -4.3015     2.2359 H       
  49 H49            3.0005     5.5322    -1.5506 H       
  50 H50            1.4916     5.9178    -0.6148 H       
  51 H51            4.4236     5.9319     0.4043 H       
  52 H52            3.0510     6.9957     0.9386 H       
  53 H53            1.8516     5.1033     1.9319 H       
  54 H54            3.5114     4.3762     2.0640 H       
  55 H55           -1.9923     4.4169     2.8187 H       
  56 H56           -1.2372     4.9342     1.2921 H       
  57 H57           -1.4616     6.1037     2.6151 H       
@<TRIPOS>BOND
   1    1    2 1
   2    1   13 am
   3    1    5 1
   4    2    3 2
   5    2   12 1
   6    3    4 1
   7    3   34 1
   8    4    5 2
   9    4    6 1
  10    6    7 1
  11    6   35 1
  12    7    8 ar
  13    7   11 ar
  14    8    9 ar
  15    8   36 1
  16    9   10 ar
  17    9   30 1
  18   10   20 ar
  19   10   37 1
  20   11   20 ar
  21   11   38 1
  22   12   14 ar
  23   12   18 ar
  24   13   21 am
  25   13   22 2
  26   14   15 ar
  27   14   39 1
  28   15   16 ar
  29   15   24 1
  30   16   17 ar
  31   17   18 ar
  32   17   19 1
  33   18   40 1
  34   19   41 1
  35   19   42 1
  36   19   43 1
  37   20   28 1
  38   21   23 1
  39   21   44 1
  40   23   25 1
  41   23   27 1
  42   23   45 1
  43   24   46 1
  44   24   47 1
  45   24   48 1
  46   25   26 1
  47   25   49 1
  48   25   50 1
  49   26   27 1
  50   26   51 1
  51   26   52 1
  52   27   53 1
  53   27   54 1
  54   28   29 1
  55   29   55 1
  56   29   56 1
  57   29   57 1
  58   30   31 1
  59   30   32 1
  60   30   33 1

#	End of record

