#	Name: ASD01910228
#	Creating user name:	WinNT
#	Creation time:	15. 06. 2019 19:55

#	Modifying user name:	WinNT
#	Modification time:	15. 06. 2019 19:55

#	Program:	/corina/corina34_cracker 3.40 0067  02.08.2006

@<TRIPOS>MOLECULE
ASD01910228
  43   46    0    0    0
SMALL
NO_CHARGES


@<TRIPOS>ATOM
   1 C1            -0.0217     1.3391    -0.0260 C.2     
   2 C2             1.1693     2.2624    -0.0240 C.3     
   3 C3             1.0996     3.1886    -1.2403 C.3     
   4 C4             2.3256     4.1045    -1.2571 C.3     
   5 C5             2.3304     4.9679     0.0084 C.3     
   6 N6             2.2510     4.0873     1.1819 N.am    
   7 C7             1.1610     3.1049     1.2555 C.3     
   8 C8             3.1608     4.1790     2.1720 C.2     
   9 C9             4.3289     5.0813     2.0247 C.2     
  10 O10            3.0242     3.5227     3.1852 O.2     
  11 N11            0.0086     0.0305    -0.0726 N.2     
  12 C12           -1.2848    -0.3636    -0.0527 C.2     
  13 N13           -2.0172     0.7183     0.0044 N.2     
  14 O14           -1.3073     1.7015     0.0253 O.3     
  15 C15           -1.7802    -1.7618    -0.0894 C.ar    
  16 C16           -3.1496    -2.0189    -0.0626 C.ar    
  17 C17           -3.6060    -3.3203    -0.0974 C.ar    
  18 C18           -2.7048    -4.3711    -0.1590 C.ar    
  19 C19           -1.3424    -4.1200    -0.1859 C.ar    
  20 C20           -0.8776    -2.8214    -0.1567 C.ar    
  21 F21           -3.1559    -5.6442    -0.1925 F       
  22 N22            4.6713     5.7577     0.9565 N.2     
  23 O23            5.6740     6.4060     1.1465 O.3     
  24 C24            6.1433     6.2453     2.3914 C.2     
  25 C25            5.3000     5.3917     3.0170 C.2     
  26 C26            7.3688     6.8938     2.9819 C.3     
  27 H27            2.0859     1.6741    -0.0668 H       
  28 H28            1.0806     2.5907    -2.1515 H       
  29 H29            0.1949     3.7939    -1.1845 H       
  30 H30            3.2316     3.4992    -1.2880 H       
  31 H31            2.2871     4.7478    -2.1362 H       
  32 H32            3.2509     5.5501     0.0500 H       
  33 H33            1.4714     5.6388    -0.0038 H       
  34 H34            0.2067     3.6239     1.3450 H       
  35 H35            1.3100     2.4579     2.1199 H       
  36 H36           -3.8526    -1.2004    -0.0142 H       
  37 H37           -4.6670    -3.5204    -0.0763 H       
  38 H38           -0.6434    -4.9420    -0.2339 H       
  39 H39            0.1845    -2.6266    -0.1777 H       
  40 H40            5.3546     5.0265     4.0319 H       
  41 H41            7.8375     7.5334     2.2340 H       
  42 H42            7.0819     7.4943     3.8451 H       
  43 H43            8.0734     6.1228     3.2936 H       
@<TRIPOS>BOND
   1    1   11 2
   2    1    2 1
   3    1   14 1
   4    2    3 1
   5    2    7 1
   6    2   27 1
   7    3    4 1
   8    3   28 1
   9    3   29 1
  10    4    5 1
  11    4   30 1
  12    4   31 1
  13    5    6 1
  14    5   32 1
  15    5   33 1
  16    6    7 1
  17    6    8 am
  18    7   34 1
  19    7   35 1
  20    8    9 1
  21    8   10 2
  22    9   22 2
  23    9   25 1
  24   11   12 1
  25   12   13 2
  26   12   15 1
  27   13   14 1
  28   15   16 ar
  29   15   20 ar
  30   16   17 ar
  31   16   36 1
  32   17   18 ar
  33   17   37 1
  34   18   19 ar
  35   18   21 1
  36   19   20 ar
  37   19   38 1
  38   20   39 1
  39   22   23 1
  40   23   24 1
  41   24   25 2
  42   24   26 1
  43   25   40 1
  44   26   41 1
  45   26   42 1
  46   26   43 1

#	End of record

