#	Name: ASD01840477
#	Creating user name:	WinNT
#	Creation time:	15. 06. 2019 19:37

#	Modifying user name:	WinNT
#	Modification time:	15. 06. 2019 19:37

#	Program:	/corina/corina34_cracker 3.40 0067  02.08.2006

@<TRIPOS>MOLECULE
ASD01840477
  50   54    0    0    0
SMALL
NO_CHARGES


@<TRIPOS>ATOM
   1 C1            -1.1480     7.7218     0.1816 C.ar    
   2 C2            -1.5360     9.0005     0.5144 C.ar    
   3 N3            -0.6509     9.9828     0.5260 N.ar    
   4 N4             0.5837     9.8034     0.2364 N.ar    
   5 C5             0.2109     7.5022    -0.1415 C.ar    
   6 C6             0.8973     6.2824    -0.5245 C.2     
   7 C7             1.0715     8.6069    -0.1002 C.ar    
   8 S8             2.7033     8.1155    -0.5321 S.3     
   9 C9             2.2219     6.4463    -0.7650 C.2     
  10 C10           -2.1414     6.5885     0.1683 C.3     
  11 C11           -2.9743     9.2814     0.8659 C.3     
  12 N12            0.2552     5.0564    -0.6345 N.pl3   
  13 C13            3.1292     5.3718    -1.1652 C.2     
  14 O14            2.7335     4.2208    -1.1961 O.2     
  15 N15            4.4035     5.6555    -1.5000 N.am    
  16 C16            5.0394     6.9750    -1.4016 C.3     
  17 C17            6.4715     6.8517    -1.9521 C.3     
  18 C18            6.4229     5.5377    -2.7960 C.3     
  19 C19            5.3881     4.6919    -2.0183 C.3     
  20 C20            6.6985     7.9452    -3.0119 C.3     
  21 N21            6.2998     7.3938    -4.3181 N.3     
  22 C22            5.7821     6.0165    -4.1173 C.3     
  23 C23            5.3463     8.1998    -4.9290 C.ar    
  24 C24            4.8412     7.8459    -6.1762 C.ar    
  25 C25            3.8929     8.6570    -6.7725 C.ar    
  26 C26            3.4797     9.7992    -6.0992 C.ar    
  27 C27            4.0231    10.0897    -4.8641 C.ar    
  28 N28            4.9228     9.2945    -4.3165 N.ar    
  29 H29           -2.4936     6.4261    -0.8504 H       
  30 H30           -1.6624     5.6812     0.5362 H       
  31 H31           -2.9866     6.8388     0.8094 H       
  32 H32           -3.1177     9.1537     1.9389 H       
  33 H33           -3.2237    10.3047     0.5853 H       
  34 H34           -3.6217     8.5890     0.3278 H       
  35 H35           -0.6906     4.9843    -0.4318 H       
  36 H36            0.7525     4.2718    -0.9140 H       
  37 H37            4.4785     7.6998    -1.9916 H       
  38 H38            5.0709     7.2926    -0.3593 H       
  39 H39            7.2314     6.8491    -1.1706 H       
  40 H40            7.3853     5.0432    -2.9277 H       
  41 H41            5.8704     4.1659    -1.1944 H       
  42 H42            4.9035     3.9812    -2.6878 H       
  43 H43            6.0892     8.8183    -2.7781 H       
  44 H44            7.7519     8.2244    -3.0348 H       
  45 H45            6.0866     5.3701    -4.9404 H       
  46 H46            4.6959     6.0283    -4.0275 H       
  47 H47            5.1852     6.9503    -6.6721 H       
  48 H48            3.4831     8.4079    -7.7402 H       
  49 H49            2.7410    10.4537    -6.5377 H       
  50 H50            3.7047    10.9770    -4.3371 H       
@<TRIPOS>BOND
   1    1    2 ar
   2    1    5 ar
   3    1   10 1
   4    2   11 1
   5    2    3 ar
   6    3    4 ar
   7    4    7 ar
   8    5    7 ar
   9    5    6 1
  10    6    9 2
  11    6   12 1
  12    7    8 1
  13    8    9 1
  14    9   13 1
  15   10   29 1
  16   10   30 1
  17   10   31 1
  18   11   32 1
  19   11   33 1
  20   11   34 1
  21   12   35 1
  22   12   36 1
  23   13   14 2
  24   13   15 am
  25   15   16 1
  26   15   19 1
  27   16   17 1
  28   16   37 1
  29   16   38 1
  30   17   20 1
  31   17   18 1
  32   17   39 1
  33   18   19 1
  34   18   22 1
  35   18   40 1
  36   19   41 1
  37   19   42 1
  38   20   21 1
  39   20   43 1
  40   20   44 1
  41   21   22 1
  42   21   23 1
  43   22   45 1
  44   22   46 1
  45   23   24 ar
  46   23   28 ar
  47   24   25 ar
  48   24   47 1
  49   25   26 ar
  50   25   48 1
  51   26   27 ar
  52   26   49 1
  53   27   28 ar
  54   27   50 1

#	End of record

