#	Name: ASD01200522
#	Creating user name:	WinNT
#	Creation time:	15. 06. 2019 19:09

#	Modifying user name:	WinNT
#	Modification time:	15. 06. 2019 19:09

#	Program:	/corina/corina34_cracker 3.40 0067  02.08.2006

@<TRIPOS>MOLECULE
ASD01200522
  32   34    0    0    0
SMALL
NO_CHARGES


@<TRIPOS>ATOM
   1 N1             2.2306     1.3386     0.5651 N.ar    
   2 C2             2.2418     0.0207     0.5642 C.ar    
   3 C3             1.2058    -0.6961    -0.0211 C.ar    
   4 C4             0.1515    -0.0015    -0.6089 C.ar    
   5 C5             0.1812     1.3834    -0.5847 C.ar    
   6 C6             1.2472     2.0255     0.0170 C.ar    
   7 N7             1.2214    -2.0944    -0.0204 N.am    
   8 C8             0.0670    -2.7812     0.0891 C.2     
   9 O9            -0.9778    -2.1882     0.2855 O.2     
  10 O10            1.1526    -5.0171    -0.2442 O.3     
  11 C11            0.0694    -4.2412    -0.0282 C.2     
  12 C12           -1.0336    -5.0621     0.0632 C.2     
  13 C13           -0.5763    -6.3727    -0.1064 C.2     
  14 C14            0.7748    -6.3056    -0.2933 C.2     
  15 C15            1.6717    -7.4578    -0.5133 C.ar    
  16 C16            2.5756    -7.4504    -1.5796 C.ar    
  17 C17            3.4115    -8.5310    -1.7791 C.ar    
  18 C18            3.3557    -9.6193    -0.9270 C.ar    
  19 C19            2.4623    -9.6335     0.1310 C.ar    
  20 C20            1.6248    -8.5571     0.3460 C.ar    
  21 Cl21           2.4003   -11.0048     1.1937 Cl      
  22 Cl22           2.6465    -6.0861    -2.6507 Cl      
  23 H23            3.0649    -0.5072     1.0228 H       
  24 H24           -0.6688    -0.5294    -1.0725 H       
  25 H25           -0.6192     1.9547    -1.0312 H       
  26 H26            1.2750     3.1050     0.0388 H       
  27 H27            2.0632    -2.5701    -0.0987 H       
  28 H28           -2.0543    -4.7530     0.2332 H       
  29 H29           -1.1783    -7.2693    -0.0923 H       
  30 H30            4.1104    -8.5266    -2.6024 H       
  31 H31            4.0116   -10.4621    -1.0879 H       
  32 H32            0.9319    -8.5674     1.1744 H       
@<TRIPOS>BOND
   1    1    2 ar
   2    1    6 ar
   3    2    3 ar
   4    2   23 1
   5    3    4 ar
   6    3    7 1
   7    4    5 ar
   8    4   24 1
   9    5    6 ar
  10    5   25 1
  11    6   26 1
  12    7    8 am
  13    7   27 1
  14    8    9 2
  15    8   11 1
  16   10   11 1
  17   10   14 1
  18   11   12 2
  19   12   13 1
  20   12   28 1
  21   13   14 2
  22   13   29 1
  23   14   15 1
  24   15   16 ar
  25   15   20 ar
  26   16   17 ar
  27   16   22 1
  28   17   18 ar
  29   17   30 1
  30   18   19 ar
  31   18   31 1
  32   19   20 ar
  33   19   21 1
  34   20   32 1

#	End of record

