#	Name: ASD01811937
#	Creating user name:	WinNT
#	Creation time:	15. 06. 2019 19:27

#	Modifying user name:	WinNT
#	Modification time:	15. 06. 2019 19:27

#	Program:	/corina/corina34_cracker 3.40 0067  02.08.2006

@<TRIPOS>MOLECULE
ASD01811937
  39   41    0    0    0
SMALL
NO_CHARGES


@<TRIPOS>ATOM
   1 C1             0.3050     1.7858     0.5721 C.ar    
   2 C2             0.1665     0.4069     0.5853 C.ar    
   3 C3             1.2657    -0.3977     0.3854 C.ar    
   4 C4             2.5316     0.1666     0.1674 C.ar    
   5 C5             2.6679     1.5537     0.1560 C.ar    
   6 C6             1.5419     2.3540     0.3599 C.ar    
   7 C7             3.6611    -0.7525    -0.0423 C.2     
   8 N8             4.6020    -0.5778    -0.9013 N.2     
   9 C9             4.6421     0.5944    -1.7747 C.3     
  10 C10            4.8042     1.8273    -0.9280 C.2     
  11 N11            3.8778     2.1979    -0.0470 N.am    
  12 S12            6.1240     2.7153    -1.0902 S.2     
  13 C13            3.7190    -1.9703     0.7995 C.ar    
  14 C14            4.4254    -3.0906     0.3624 C.ar    
  15 C15            4.4761    -4.2217     1.1510 C.ar    
  16 C16            3.8277    -4.2461     2.3729 C.ar    
  17 C17            3.1250    -3.1381     2.8117 C.ar    
  18 C18            3.0722    -1.9990     2.0348 C.ar    
  19 Cl19          -1.3934    -0.3060     0.8543 Cl      
  20 C20            3.3377     0.6863    -2.5691 C.3     
  21 C21            3.2283    -0.5148    -3.5105 C.3     
  22 C22            1.9240    -0.4230    -4.3050 C.3     
  23 H23           -0.5588     2.4159     0.7241 H       
  24 H24            1.1527    -1.4717     0.3970 H       
  25 H25            1.6416     3.4293     0.3505 H       
  26 H26            5.4845     0.5096    -2.4611 H       
  27 H27            4.0643     2.9802     0.4954 H       
  28 H28            4.9314    -3.0730    -0.5916 H       
  29 H29            5.0229    -5.0898     0.8136 H       
  30 H30            3.8700    -5.1338     2.9865 H       
  31 H31            2.6205    -3.1632     3.7663 H       
  32 H32            2.5236    -1.1345     2.3785 H       
  33 H33            2.4924     0.6868    -1.8810 H       
  34 H34            3.3318     1.6069    -3.1526 H       
  35 H35            4.0736    -0.5153    -4.1987 H       
  36 H36            3.2342    -1.4355    -2.9271 H       
  37 H37            1.0787    -0.4225    -3.6169 H       
  38 H38            1.9180     0.4977    -4.8885 H       
  39 H39            1.8460    -1.2787    -4.9757 H       
@<TRIPOS>BOND
   1    1    2 ar
   2    1    6 ar
   3    1   23 1
   4    2    3 ar
   5    2   19 1
   6    3    4 ar
   7    3   24 1
   8    4    5 ar
   9    4    7 1
  10    5    6 ar
  11    5   11 1
  12    6   25 1
  13    7    8 2
  14    7   13 1
  15    8    9 1
  16    9   10 1
  17    9   20 1
  18    9   26 1
  19   10   11 am
  20   10   12 2
  21   11   27 1
  22   13   14 ar
  23   13   18 ar
  24   14   15 ar
  25   14   28 1
  26   15   16 ar
  27   15   29 1
  28   16   17 ar
  29   16   30 1
  30   17   18 ar
  31   17   31 1
  32   18   32 1
  33   20   21 1
  34   20   33 1
  35   20   34 1
  36   21   22 1
  37   21   35 1
  38   21   36 1
  39   22   37 1
  40   22   38 1
  41   22   39 1

#	End of record

