#	Name: ASD01810409
#	Creating user name:	WinNT
#	Creation time:	15. 06. 2019 19:24

#	Modifying user name:	WinNT
#	Modification time:	15. 06. 2019 19:24

#	Program:	/corina/corina34_cracker 3.40 0067  02.08.2006

@<TRIPOS>MOLECULE
ASD01810409
  75   80    0    0    0
SMALL
NO_CHARGES


@<TRIPOS>ATOM
   1 C1            -0.1282     1.5396    -0.1845 C.ar    
   2 C2             0.0959     0.1715    -0.0195 C.ar    
   3 C3            -0.9629    -0.6799     0.2290 C.ar    
   4 C4            -2.2487    -0.1851     0.3160 C.ar    
   5 C5            -2.4869     1.1816     0.1529 C.ar    
   6 C6            -1.4225     2.0464    -0.0923 C.ar    
   7 C7             1.0071     2.4498    -0.4507 C.2     
   8 N8             2.2833     2.1233    -0.4099 N.2     
   9 C9             1.4961    -0.3777    -0.1133 C.3     
  10 C10           -3.8647     1.7100     0.2459 C.2     
  11 N11           -4.3336     2.5406    -0.7063 N.am    
  12 O12           -4.5745     1.3951     1.1810 O.2     
  13 C13           -5.6547     3.1685    -0.5676 C.3     
  14 C14           -6.4762     2.8718    -1.8262 C.3     
  15 C15           -5.6921     3.3234    -3.0604 C.3     
  16 C16           -4.3784     2.5431    -3.1460 C.3     
  17 C17           -3.5308     2.8404    -1.8997 C.3     
  18 C18           -6.5116     3.0643    -4.2983 C.ar    
  19 C19           -6.8647     4.1174    -5.1233 C.ar    
  20 C20           -7.6143     3.8873    -6.2583 C.ar    
  21 C21           -8.0167     2.5879    -6.5737 C.ar    
  22 C22           -7.6567     1.5298    -5.7366 C.ar    
  23 C23           -6.9024     1.7736    -4.6077 C.ar    
  24 C24           -8.7954     2.3417    -7.7499 C.1     
  25 N25           -9.4131     2.1463    -8.6831 N.1     
  26 C26            2.0377    -0.9151     1.2219 C.3     
  27 C27            2.6573    -2.0690     0.4159 C.3     
  28 C28            1.5570    -1.8247    -0.6302 C.3     
  29 C29            3.0145     3.1971    -0.7055 C.2     
  30 C30            2.1837     4.2287    -0.9366 C.2     
  31 N31            0.9108     3.7722    -0.7869 N.pl3   
  32 C32           -3.3980    -1.1215     0.5869 C.3     
  33 C33            4.5295     3.2905    -0.7839 C.3     
  34 C34            4.8812     3.6233    -2.2432 C.3     
  35 N35            4.6865     5.0318    -2.5118 N.3     
  36 C36            3.3382     5.5356    -2.6641 C.3     
  37 C37            2.6360     5.6318    -1.2988 C.3     
  38 C38            5.5441     5.4804    -3.6170 C.3     
  39 H39           -0.7841    -1.7374     0.3555 H       
  40 H40           -1.6011     3.1040    -0.2191 H       
  41 H41            2.1827     0.2985    -0.6225 H       
  42 H42           -6.1635     2.7600     0.3056 H       
  43 H43           -5.5370     4.2461    -0.4536 H       
  44 H44           -6.6701     1.8011    -1.8900 H       
  45 H45           -7.4222     3.4112    -1.7787 H       
  46 H46           -5.4771     4.3893    -2.9841 H       
  47 H47           -4.5921     1.4755    -3.1975 H       
  48 H48           -3.8313     2.8485    -4.0379 H       
  49 H49           -3.2408     3.8911    -1.8972 H       
  50 H50           -2.6393     2.2132    -1.9060 H       
  51 H51           -6.5531     5.1219    -4.8780 H       
  52 H52           -7.8896     4.7102    -6.9012 H       
  53 H53           -7.9650     0.5225    -5.9746 H       
  54 H54           -6.6233     0.9561    -3.9594 H       
  55 H55            2.7758    -0.2625     1.6881 H       
  56 H56            1.2575    -1.2347     1.9127 H       
  57 H57            3.6620    -1.8562     0.0507 H       
  58 H58            2.5820    -3.0371     0.9110 H       
  59 H59            0.6453    -2.3930    -0.4458 H       
  60 H60            1.9070    -1.9064    -1.6593 H       
  61 H61            0.0946     4.2856    -0.8923 H       
  62 H62           -3.5081    -1.2598     1.6625 H       
  63 H63           -4.3158    -0.6978     0.1792 H       
  64 H64           -3.2013    -2.0842     0.1151 H       
  65 H65            4.8884     4.0810    -0.1249 H       
  66 H66            4.9765     2.3373    -0.5014 H       
  67 H67            5.9234     3.3637    -2.4290 H       
  68 H68            4.2435     3.0402    -2.9076 H       
  69 H69            3.3740     6.5251    -3.1199 H       
  70 H70            2.7746     4.8633    -3.3111 H       
  71 H71            1.7735     6.2945    -1.3695 H       
  72 H72            3.3323     6.0042    -0.5474 H       
  73 H73            5.3507     4.8689    -4.4983 H       
  74 H74            5.3274     6.5242    -3.8443 H       
  75 H75            6.5905     5.3811    -3.3283 H       
@<TRIPOS>BOND
   1    1    2 ar
   2    1    7 1
   3    1    6 ar
   4    2    3 ar
   5    2    9 1
   6    3    4 ar
   7    3   39 1
   8    4    5 ar
   9    4   32 1
  10    5    6 ar
  11    5   10 1
  12    6   40 1
  13    7    8 2
  14    7   31 1
  15    8   29 1
  16    9   26 1
  17    9   28 1
  18    9   41 1
  19   10   11 am
  20   10   12 2
  21   11   13 1
  22   11   17 1
  23   13   14 1
  24   13   42 1
  25   13   43 1
  26   14   15 1
  27   14   44 1
  28   14   45 1
  29   15   16 1
  30   15   18 1
  31   15   46 1
  32   16   17 1
  33   16   47 1
  34   16   48 1
  35   17   49 1
  36   17   50 1
  37   18   19 ar
  38   18   23 ar
  39   19   20 ar
  40   19   51 1
  41   20   21 ar
  42   20   52 1
  43   21   22 ar
  44   21   24 1
  45   22   23 ar
  46   22   53 1
  47   23   54 1
  48   24   25 3
  49   26   27 1
  50   26   55 1
  51   26   56 1
  52   27   28 1
  53   27   57 1
  54   27   58 1
  55   28   59 1
  56   28   60 1
  57   29   30 2
  58   29   33 1
  59   30   31 1
  60   30   37 1
  61   31   61 1
  62   32   62 1
  63   32   63 1
  64   32   64 1
  65   33   34 1
  66   33   65 1
  67   33   66 1
  68   34   35 1
  69   34   67 1
  70   34   68 1
  71   35   36 1
  72   35   38 1
  73   36   37 1
  74   36   69 1
  75   36   70 1
  76   37   71 1
  77   37   72 1
  78   38   73 1
  79   38   74 1
  80   38   75 1

#	End of record

