#	Name: ASD01816860
#	Creating user name:	WinNT
#	Creation time:	15. 06. 2019 19:36

#	Modifying user name:	WinNT
#	Modification time:	15. 06. 2019 19:36

#	Program:	/corina/corina34_cracker 3.40 0067  02.08.2006

@<TRIPOS>MOLECULE
ASD01816860
  60   64    0    0    0
SMALL
NO_CHARGES


@<TRIPOS>ATOM
   1 C1            -0.0168     1.3893     0.0097 C.ar    
   2 C2             0.0021    -0.0041     0.0020 C.ar    
   3 C3             1.1795    -0.6881    -0.0129 C.ar    
   4 C4             2.3931     0.0172    -0.0207 C.ar    
   5 C5             2.3786     1.4366    -0.0130 C.ar    
   6 C6             1.1397     2.1078     0.0025 C.ar    
   7 C7             3.6295    -0.6558    -0.0356 C.ar    
   8 C8             4.7715     0.0916    -0.0421 C.ar    
   9 C9             4.6888     1.4921    -0.0340 C.ar    
  10 N10            3.5260     2.1140    -0.0195 N.ar    
  11 C11            5.9375     2.2913    -0.0408 C.2     
  12 N12            5.8759     3.6376    -0.0331 N.am    
  13 O13            7.0164     1.7325    -0.0533 O.2     
  14 C14            7.1098     4.4274    -0.0398 C.3     
  15 C15            6.8400     5.8002     0.5795 C.3     
  16 C16            3.6904    -2.1615    -0.0436 C.3     
  17 C17            3.5737    -2.6615    -1.4605 C.ar    
  18 C18            4.7064    -2.8443    -2.2313 C.ar    
  19 C19            2.3283    -2.9481    -2.0019 C.ar    
  20 C20            2.2643    -3.4049    -3.3066 C.ar    
  21 C21            3.4460    -3.5606    -4.0281 C.ar    
  22 N22            4.6175    -3.2804    -3.4717 N.ar    
  23 C23            8.1287     6.6250     0.5725 C.3     
  24 C24            8.6133     6.8016    -0.8679 C.3     
  25 C25            8.8831     5.4288    -1.4872 C.3     
  26 C26            7.5944     4.6040    -1.4802 C.3     
  27 O27            6.3874     5.6352     1.9249 O.3     
  28 C28            3.3945    -4.0498    -5.4275 C.2     
  29 C29            2.2298    -4.2982    -6.1807 C.2     
  30 C30            4.4669    -4.3358    -6.2225 C.2     
  31 N31            3.9924    -4.7482    -7.4140 N.pl3   
  32 N32            2.5936    -4.7162    -7.3637 N.2     
  33 Cl33           1.0882     3.8430     0.0117 Cl      
  34 C34            4.8010    -5.1561    -8.5655 C.3     
  35 H35           -0.9642     1.9077     0.0170 H       
  36 H36           -0.9302    -0.5492     0.0084 H       
  37 H37            1.1796    -1.7681    -0.0184 H       
  38 H38            5.7362    -0.3939    -0.0532 H       
  39 H39            5.0146     4.0837    -0.0231 H       
  40 H40            7.8748     3.9111     0.5402 H       
  41 H41            6.0751     6.3164    -0.0005 H       
  42 H42            4.6397    -2.4890     0.3802 H       
  43 H43            2.8695    -2.5616     0.5515 H       
  44 H44            5.6773    -2.6264    -1.8114 H       
  45 H45            1.4292    -2.8178    -1.4179 H       
  46 H46            1.3117    -3.6378    -3.7591 H       
  47 H47            7.9365     7.6030     1.0137 H       
  48 H48            8.8936     6.1087     1.1525 H       
  49 H49            7.8483     7.3179    -1.4479 H       
  50 H50            9.5313     7.3892    -0.8729 H       
  51 H51            9.2283     5.5547    -2.5134 H       
  52 H52            9.6480     4.9126    -0.9072 H       
  53 H53            7.7866     3.6260    -1.9214 H       
  54 H54            6.8295     5.1203    -2.0602 H       
  55 H55            6.1965     6.4665     2.3804 H       
  56 H56            1.2136    -4.1664    -5.8395 H       
  57 H57            5.5072    -4.2473    -5.9463 H       
  58 H58            4.9945    -6.2275    -8.5124 H       
  59 H59            4.2630    -4.9292    -9.4859 H       
  60 H60            5.7472    -4.6151    -8.5549 H       
@<TRIPOS>BOND
   1    1    2 ar
   2    1    6 ar
   3    1   35 1
   4    2    3 ar
   5    2   36 1
   6    3    4 ar
   7    3   37 1
   8    4    5 ar
   9    4    7 ar
  10    5    6 ar
  11    5   10 ar
  12    6   33 1
  13    7    8 ar
  14    7   16 1
  15    8    9 ar
  16    8   38 1
  17    9   10 ar
  18    9   11 1
  19   11   12 am
  20   11   13 2
  21   12   14 1
  22   12   39 1
  23   14   15 1
  24   14   26 1
  25   14   40 1
  26   15   23 1
  27   15   27 1
  28   15   41 1
  29   16   17 1
  30   16   42 1
  31   16   43 1
  32   17   18 ar
  33   17   19 ar
  34   18   22 ar
  35   18   44 1
  36   19   20 ar
  37   19   45 1
  38   20   21 ar
  39   20   46 1
  40   21   22 ar
  41   21   28 1
  42   23   24 1
  43   23   47 1
  44   23   48 1
  45   24   25 1
  46   24   49 1
  47   24   50 1
  48   25   26 1
  49   25   51 1
  50   25   52 1
  51   26   53 1
  52   26   54 1
  53   27   55 1
  54   28   29 1
  55   28   30 2
  56   29   32 2
  57   29   56 1
  58   30   31 1
  59   30   57 1
  60   31   32 1
  61   31   34 1
  62   34   58 1
  63   34   59 1
  64   34   60 1

#	End of record

