#	Name: ASD03430721
#	Creating user name:	WinNT
#	Creation time:	15. 06. 2019 20:41

#	Modifying user name:	WinNT
#	Modification time:	15. 06. 2019 20:41

#	Program:	/corina/corina34_cracker 3.40 0067  02.08.2006

@<TRIPOS>MOLECULE
ASD03430721
  53   58    0    0    0
SMALL
NO_CHARGES


@<TRIPOS>ATOM
   1 C1             2.6447     0.3762    -0.0185 C.ar    
   2 C2             2.0793    -0.8819    -0.0534 C.ar    
   3 C3             2.8674    -1.9945    -0.2651 C.ar    
   4 C4             4.2445    -1.8707    -0.4372 C.ar    
   5 C5             4.8174    -0.6053    -0.4074 C.ar    
   6 C6             4.0223     0.5195    -0.1986 C.ar    
   7 O7             4.8326    -3.0891    -0.6042 O.3     
   8 C8             2.5529    -3.4627    -0.3768 C.3     
   9 C9             3.8315    -4.0512    -0.9883 C.3     
  10 C10            0.9581    -4.6253     0.8176 C.ar    
  11 C11            2.2325    -4.0798     0.9523 C.ar    
  12 C12            1.3498    -3.7227    -1.2367 C.2     
  13 N13            0.4702    -4.3998    -0.4718 N.am    
  14 O14            1.1991    -3.3892    -2.3931 O.2     
  15 C15            2.9161    -4.1821     2.1429 C.ar    
  16 C16            2.3384    -4.8298     3.2207 C.ar    
  17 C17            1.0731    -5.3736     3.0985 C.ar    
  18 C18            0.3841    -5.2748     1.9071 C.ar    
  19 C19           -0.8447    -4.8467    -0.9383 C.3     
  20 C20           -1.9214    -4.1655    -0.1334 C.ar    
  21 C21           -3.0699    -4.8550     0.2077 C.ar    
  22 C22           -4.0576    -4.2302     0.9459 C.ar    
  23 C23           -3.8966    -2.9161     1.3434 C.ar    
  24 C24           -2.7477    -2.2269     1.0030 C.ar    
  25 C25           -1.7581    -2.8530     0.2685 C.ar    
  26 C26            4.6172     1.8218    -0.1682 C.1     
  27 N27            5.0890     2.8548    -0.1441 N.1     
  28 C28           -1.0074    -4.4945    -2.3945 C.ar    
  29 C29           -0.9816    -5.4899    -3.3534 C.ar    
  30 C30           -1.1308    -5.1669    -4.6891 C.ar    
  31 C31           -1.3062    -3.8486    -5.0660 C.ar    
  32 C32           -1.3329    -2.8533    -4.1071 C.ar    
  33 C33           -1.1880    -3.1767    -2.7710 C.ar    
  34 H34            2.0248     1.2457     0.1427 H       
  35 H35            1.0145    -0.9964     0.0861 H       
  36 H36            5.8826    -0.4933    -0.5459 H       
  37 H37            3.7491    -4.1119    -2.0735 H       
  38 H38            4.0505    -5.0295    -0.5603 H       
  39 H39            3.9045    -3.7568     2.2357 H       
  40 H40            2.8745    -4.9107     4.1547 H       
  41 H41            0.6219    -5.8786     3.9398 H       
  42 H42           -0.6037    -5.7027     1.8195 H       
  43 H43           -0.9265    -5.9265    -0.8143 H       
  44 H44           -3.1957    -5.8817    -0.1028 H       
  45 H45           -4.9552    -4.7687     1.2119 H       
  46 H46           -4.6686    -2.4277     1.9196 H       
  47 H47           -2.6220    -1.2001     1.3133 H       
  48 H48           -0.8588    -2.3157     0.0058 H       
  49 H49           -0.8445    -6.5199    -3.0589 H       
  50 H50           -1.1099    -5.9446    -5.4383 H       
  51 H51           -1.4220    -3.5961    -6.1097 H       
  52 H52           -1.4696    -1.8232    -4.4016 H       
  53 H53           -1.2126    -2.3996    -2.0214 H       
@<TRIPOS>BOND
   1    1    2 ar
   2    1    6 ar
   3    1   34 1
   4    2    3 ar
   5    2   35 1
   6    3    4 ar
   7    3    8 1
   8    4    5 ar
   9    4    7 1
  10    5    6 ar
  11    5   36 1
  12    6   26 1
  13    7    9 1
  14    8    9 1
  15    8   11 1
  16    8   12 1
  17    9   37 1
  18    9   38 1
  19   10   11 ar
  20   10   13 1
  21   10   18 ar
  22   11   15 ar
  23   12   13 am
  24   12   14 2
  25   13   19 1
  26   15   16 ar
  27   15   39 1
  28   16   17 ar
  29   16   40 1
  30   17   18 ar
  31   17   41 1
  32   18   42 1
  33   19   20 1
  34   19   28 1
  35   19   43 1
  36   20   21 ar
  37   20   25 ar
  38   21   22 ar
  39   21   44 1
  40   22   23 ar
  41   22   45 1
  42   23   24 ar
  43   23   46 1
  44   24   25 ar
  45   24   47 1
  46   25   48 1
  47   26   27 3
  48   28   29 ar
  49   28   33 ar
  50   29   30 ar
  51   29   49 1
  52   30   31 ar
  53   30   50 1
  54   31   32 ar
  55   31   51 1
  56   32   33 ar
  57   32   52 1
  58   33   53 1

#	End of record

