#	Name: ASD08170169
#	Creating user name:	WinNT
#	Creation time:	15. 06. 2019 21:17

#	Modifying user name:	WinNT
#	Modification time:	15. 06. 2019 21:17

#	Program:	/corina/corina34_cracker 3.40 0067  02.08.2006

@<TRIPOS>MOLECULE
ASD08170169
  64   65    0    0    0
SMALL
NO_CHARGES


@<TRIPOS>ATOM
   1 Cl1            0.0000     0.0000     0.0000 Cl      
   2 H2             0.0000     1.3700     0.0000 H       
   3 Cl3            5.0000     6.3700     5.0000 Cl      
   4 H4             5.0000     7.7400     5.0000 H       
   5 C5            14.4954    22.0393    14.1586 C.3     
   6 C6            15.9100    24.0988    14.1561 C.3     
   7 C7            17.3454    24.6283    14.1453 C.3     
   8 C8            17.3250    26.1352    14.1536 C.2     
   9 C9            14.5158    20.5325    14.1503 C.2     
  10 S10           17.2973    27.1831    12.7349 S.3     
  11 C11           17.2885    28.5494    13.7683 C.2     
  12 N12           17.3057    28.1394    15.0007 N.2     
  13 N13           17.3190    26.8934    15.2037 N.2     
  14 S14           14.5163    19.4998    12.7202 S.3     
  15 N15           14.5418    19.7631    15.1919 N.2     
  16 N16           14.5555    18.5194    14.9753 N.2     
  17 C17           14.5447    18.1226    13.7385 C.2     
  18 N18           14.5562    16.7990    13.3118 N.am    
  19 C19           14.5811    15.7996    14.2158 C.2     
  20 O20           14.5936    16.0546    15.4014 O.2     
  21 N21           17.2665    29.8775    13.3561 N.am    
  22 C22           17.2617    30.8671    14.2711 C.2     
  23 C23           17.2379    32.3061    13.8244 C.3     
  24 O24           17.2766    30.5994    15.4539 O.2     
  25 C25           14.5936    14.3654    13.7533 C.3     
  26 C26           13.3003    14.0548    13.0449 C.ar    
  27 C27           15.9308    22.5689    14.1477 C.3     
  28 C28           12.2539    13.4768    13.7383 C.ar    
  29 C29           15.9394    32.5903    13.1143 C.ar    
  30 C30           15.8121    32.3081    11.7661 C.ar    
  31 C31           14.6194    32.5688    11.1148 C.ar    
  32 C32           13.5562    33.1109    11.8115 C.ar    
  33 C33           13.6840    33.3927    13.1591 C.ar    
  34 C34           14.8734    33.1276    13.8113 C.ar    
  35 C35           11.0673    13.1917    13.0884 C.ar    
  36 C36           10.9270    13.4842    11.7448 C.ar    
  37 C37           11.9731    14.0620    11.0500 C.ar    
  38 C38           13.1582    14.3535    11.7012 C.ar    
  39 O39           14.7372    13.5020    14.8829 O.3     
  40 O40           17.3545    33.1606    14.9639 O.3     
  41 Cl41          17.1484    31.6277    10.8914 Cl      
  42 Cl42          14.4722    15.0796    10.8295 Cl      
  43 H43           13.9682    22.4004    13.2755 H       
  44 H44           13.9852    22.3909    15.0554 H       
  45 H45           15.3998    24.4503    15.0529 H       
  46 H46           15.3828    24.4598    13.2731 H       
  47 H47           17.8726    24.2673    15.0283 H       
  48 H48           17.8556    24.2768    13.2485 H       
  49 H49           14.5462    16.5950    12.3635 H       
  50 H50           17.2546    30.0915    12.4101 H       
  51 H51           18.0709    32.4898    13.1458 H       
  52 H52           15.4284    14.2113    13.0697 H       
  53 H53           16.4580    22.2078    15.0308 H       
  54 H54           16.4410    22.2174    13.2509 H       
  55 H55           12.3632    13.2474    14.7879 H       
  56 H56           14.5195    32.3491    10.0621 H       
  57 H57           12.6253    33.3148    11.3033 H       
  58 H58           12.8529    33.8167    13.7031 H       
  59 H59           14.9726    33.3477    14.8640 H       
  60 H60           10.2499    12.7400    13.6307 H       
  61 H61           10.0000    13.2610    11.2376 H       
  62 H62           11.8636    14.2899    10.0000 H       
  63 H63           14.0277    13.5855    15.5346 H       
  64 H64           16.6450    33.0511    15.6118 H       
@<TRIPOS>BOND
   1    1    2 1
   2    3    4 1
   3    5    9 1
   4    5   27 1
   5    5   43 1
   6    5   44 1
   7    6    7 1
   8    6   27 1
   9    6   45 1
  10    6   46 1
  11    7    8 1
  12    7   47 1
  13    7   48 1
  14    8   10 1
  15    8   13 2
  16    9   14 1
  17    9   15 2
  18   10   11 1
  19   11   12 2
  20   11   21 1
  21   12   13 1
  22   14   17 1
  23   15   16 1
  24   16   17 2
  25   17   18 1
  26   18   19 am
  27   18   49 1
  28   19   20 2
  29   19   25 1
  30   21   22 am
  31   21   50 1
  32   22   23 1
  33   22   24 2
  34   23   29 1
  35   23   40 1
  36   23   51 1
  37   25   26 1
  38   25   39 1
  39   25   52 1
  40   26   28 ar
  41   26   38 ar
  42   27   53 1
  43   27   54 1
  44   28   35 ar
  45   28   55 1
  46   29   30 ar
  47   29   34 ar
  48   30   31 ar
  49   30   41 1
  50   31   32 ar
  51   31   56 1
  52   32   33 ar
  53   32   57 1
  54   33   34 ar
  55   33   58 1
  56   34   59 1
  57   35   36 ar
  58   35   60 1
  59   36   37 ar
  60   36   61 1
  61   37   38 ar
  62   37   62 1
  63   38   42 1
  64   39   63 1
  65   40   64 1

#	End of record

