#	Name: ASD04230037
#	Creating user name:	WinNT
#	Creation time:	15. 06. 2019 20:48

#	Modifying user name:	WinNT
#	Modification time:	15. 06. 2019 20:48

#	Program:	/corina/corina34_cracker 3.40 0067  02.08.2006

@<TRIPOS>MOLECULE
ASD04230037
  27   29    0    0    0
SMALL
NO_CHARGES


@<TRIPOS>ATOM
   1 N1            -0.0169     1.3927     0.0097 N.pl3   
   2 C2             0.0021    -0.0041     0.0020 C.ar    
   3 C3             1.2125    -0.6815    -0.0132 C.ar    
   4 C4             1.2262    -2.0736    -0.0203 C.ar    
   5 C5             0.0237    -2.7790    -0.0121 C.ar    
   6 C6            -1.1767    -2.0975     0.0030 C.ar    
   7 C7            -1.1916    -0.7155     0.0154 C.ar    
   8 O8             5.9683    -5.0573    -0.0845 O.3     
   9 C9             5.3909    -6.3098    -0.4978 C.3     
  10 O10            4.0195    -6.2124    -0.0700 O.3     
  11 C11            3.7349    -4.8771    -0.0603 C.ar    
  12 C12            4.9343    -4.1662    -0.0692 C.ar    
  13 C13            2.5302    -4.1984    -0.0442 C.ar    
  14 C14            2.5172    -2.8046    -0.0370 C.ar    
  15 C15            3.7185    -2.0991    -0.0461 C.ar    
  16 C16            4.9190    -2.7799    -0.0621 C.ar    
  17 H17            0.8165     1.8891     0.0044 H       
  18 H18           -0.8634     1.8662     0.0163 H       
  19 H19            2.1415    -0.1307    -0.0198 H       
  20 H20            0.0313    -3.8589    -0.0180 H       
  21 H21           -2.1071    -2.6460     0.0093 H       
  22 H22           -2.1334    -0.1872     0.0317 H       
  23 H23            5.4473    -6.4186    -1.5809 H       
  24 H24            5.8885    -7.1431    -0.0018 H       
  25 H25            1.6003    -4.7477    -0.0375 H       
  26 H26            3.7103    -1.0192    -0.0410 H       
  27 H27            5.8492    -2.2311    -0.0688 H       
@<TRIPOS>BOND
   1    1    2 1
   2    1   17 1
   3    1   18 1
   4    2    3 ar
   5    2    7 ar
   6    3    4 ar
   7    3   19 1
   8    4    5 ar
   9    4   14 1
  10    5    6 ar
  11    5   20 1
  12    6    7 ar
  13    6   21 1
  14    7   22 1
  15    8    9 1
  16    8   12 1
  17    9   10 1
  18    9   23 1
  19    9   24 1
  20   10   11 1
  21   11   12 ar
  22   11   13 ar
  23   12   16 ar
  24   13   14 ar
  25   13   25 1
  26   14   15 ar
  27   15   16 ar
  28   15   26 1
  29   16   27 1

#	End of record

