#	Name: ASD01814391
#	Creating user name:	WinNT
#	Creation time:	15. 06. 2019 19:32

#	Modifying user name:	WinNT
#	Modification time:	15. 06. 2019 19:32

#	Program:	/corina/corina34_cracker 3.40 0067  02.08.2006

@<TRIPOS>MOLECULE
ASD01814391
  51   56    0    0    0
SMALL
NO_CHARGES


@<TRIPOS>ATOM
   1 C1            -0.0167     1.3819     0.0096 C.ar    
   2 C2             0.0021    -0.0041     0.0020 C.ar    
   3 C3             1.1969    -0.6936    -0.0131 C.ar    
   4 C4             2.3990     0.0034    -0.0208 C.ar    
   5 C5             2.3751     1.4118    -0.0130 C.ar    
   6 C6             1.1661     2.0940     0.0022 C.ar    
   7 N7             3.6101    -0.6577    -0.0354 N.pl3   
   8 N8             4.7454    -0.0610    -0.0422 N.2     
   9 C9             4.8826     1.2395    -0.0364 C.2     
  10 C10            3.6767     2.1036    -0.0217 C.2     
  11 C11            6.0121     2.1721    -0.0417 C.2     
  12 N12            5.4770     3.4118    -0.0306 N.am    
  13 N13            4.0818     3.3390    -0.0189 N.2     
  14 C14            3.5985    -2.1226    -0.0431 C.3     
  15 C15            3.5815    -2.6173    -1.4665 C.ar    
  16 C16            4.7720    -2.8533    -2.1292 C.ar    
  17 C17            4.7597    -3.3063    -3.4339 C.ar    
  18 C18            3.5503    -3.5252    -4.0799 C.ar    
  19 C19            2.3567    -3.2878    -3.4117 C.ar    
  20 C20            2.3755    -2.8398    -2.1053 C.ar    
  21 N21            3.5346    -3.9845    -5.4043 N.pl3   
  22 C22            2.4324    -4.2370    -6.1459 C.2     
  23 C23            2.8437    -4.6611    -7.3634 C.2     
  24 C24            4.2429    -4.6683    -7.3670 C.2     
  25 N25            4.6578    -4.2574    -6.1957 N.2     
  26 O26            7.1976     1.8863    -0.0535 O.2     
  27 C27            6.2130     4.5973    -0.0303 C.ar    
  28 C28            6.5748     5.2028    -1.2427 C.ar    
  29 C29            7.3119     6.3898    -1.2290 C.ar    
  30 C30            7.6788     6.9582    -0.0283 C.ar    
  31 C31            7.3212     6.3587     1.1684 C.ar    
  32 C32            6.5867     5.1876     1.1717 C.ar    
  33 F33            6.2420     4.6100     2.3433 F       
  34 C34            6.1912     4.6077    -2.4875 C.1     
  35 N35            5.8870     4.1356    -3.4749 N.1     
  36 H36           -0.9605     1.9069     0.0169 H       
  37 H37           -0.9294    -0.5505     0.0083 H       
  38 H38            1.1980    -1.7735    -0.0185 H       
  39 H39            1.1509     3.1739     0.0085 H       
  40 H40            4.4902    -2.4957     0.4606 H       
  41 H41            2.7104    -2.4817     0.4769 H       
  42 H42            5.7124    -2.6828    -1.6262 H       
  43 H43            5.6898    -3.4897    -3.9513 H       
  44 H44            1.4145    -3.4568    -3.9117 H       
  45 H45            1.4473    -2.6550    -1.5850 H       
  46 H46            1.4079    -4.1216    -5.8242 H       
  47 H47            2.2048    -4.9440    -8.1869 H       
  48 H48            4.8722    -4.9587    -8.1952 H       
  49 H49            7.5942     6.8613    -2.1587 H       
  50 H50            8.2486     7.8756    -0.0202 H       
  51 H51            7.6137     6.8115     2.1042 H       
@<TRIPOS>BOND
   1    1    2 ar
   2    1    6 ar
   3    1   36 1
   4    2    3 ar
   5    2   37 1
   6    3    4 ar
   7    3   38 1
   8    4    5 ar
   9    4    7 1
  10    5    6 ar
  11    5   10 1
  12    6   39 1
  13    7    8 1
  14    7   14 1
  15    8    9 2
  16    9   10 1
  17    9   11 1
  18   10   13 2
  19   11   12 am
  20   11   26 2
  21   12   13 1
  22   12   27 1
  23   14   15 1
  24   14   40 1
  25   14   41 1
  26   15   16 ar
  27   15   20 ar
  28   16   17 ar
  29   16   42 1
  30   17   18 ar
  31   17   43 1
  32   18   19 ar
  33   18   21 1
  34   19   20 ar
  35   19   44 1
  36   20   45 1
  37   21   22 1
  38   21   25 1
  39   22   23 2
  40   22   46 1
  41   23   24 1
  42   23   47 1
  43   24   25 2
  44   24   48 1
  45   27   28 ar
  46   27   32 ar
  47   28   29 ar
  48   28   34 1
  49   29   30 ar
  50   29   49 1
  51   30   31 ar
  52   30   50 1
  53   31   32 ar
  54   31   51 1
  55   32   33 1
  56   34   35 3

#	End of record

