#	Name: ASD01820228
#	Creating user name:	WinNT
#	Creation time:	15. 06. 2019 19:36

#	Modifying user name:	WinNT
#	Modification time:	15. 06. 2019 19:36

#	Program:	/corina/corina34_cracker 3.40 0067  02.08.2006

@<TRIPOS>MOLECULE
ASD01820228
 134  150    0    0    0
SMALL
NO_CHARGES


@<TRIPOS>ATOM
   1 C1             0.2815     0.7813     0.9941 C.ar    
   2 C2             0.4803    -0.5737     1.1726 C.ar    
   3 C3             1.7466    -1.1342     1.1536 C.ar    
   4 C4             2.8315    -0.2801     0.9584 C.ar    
   5 C5             2.6176     1.1079     0.7833 C.ar    
   6 C6             1.3469     1.6476     0.7896 C.ar    
   7 N7             4.1819    -0.5451     0.9104 N.3     
   8 C8             4.8653     0.5430     0.2256 C.3     
   9 C9             3.9558     1.7296     0.6453 C.3     
  10 C10            4.6889     0.2547    -1.2725 C.3     
  11 C11            4.9294     1.5270    -2.0826 C.3     
  12 C12            3.9111     2.6011    -1.7261 C.3     
  13 C13            4.0866     2.9334    -0.2649 C.3     
  14 C14            4.6975    -1.8001     1.2271 C.3     
  15 C15            6.1644    -2.1623     1.0356 C.3     
  16 C16            7.0080    -1.0684     0.3862 C.3     
  17 N17            6.8437    -1.0963    -1.0630 N.3     
  18 C18            5.6580    -0.8078    -1.7734 C.3     
  19 C19            6.6990    -2.4325     2.4507 C.3     
  20 C20            8.1232    -2.9671     2.4036 C.3     
  21 C21            8.9937    -1.8878     1.8088 C.3     
  22 C22            8.5217    -1.4334     0.4480 C.3     
  23 C23            8.6888    -2.3864    -0.6770 C.ar    
  24 C24            7.6309    -2.1225    -1.5719 C.ar    
  25 C25            6.3147     1.9986    -1.6929 C.2     
  26 C26            7.2778     1.4457    -2.3866 C.2     
  27 C27            6.5440     2.9250    -0.5588 C.3     
  28 N28            5.3821     3.5399     0.0643 N.4     
  29 C29            6.9992     0.4140    -3.4017 C.3     
  30 C30            6.6871    -1.1027     3.1705 C.2     
  31 C31            5.5564    -0.7912     3.7526 C.2     
  32 C32            7.8455    -0.1726     3.1568 C.3     
  33 C33            4.3712    -1.6612     3.6466 C.3     
  34 N34            9.1013    -0.6703     2.6186 N.4     
  35 C35            9.6271    -3.3621    -0.9334 C.ar    
  36 C36            9.4983    -4.0795    -2.1157 C.ar    
  37 C37            8.4669    -3.8270    -3.0001 C.ar    
  38 C38            7.5131    -2.8520    -2.7511 C.ar    
  39 H39            3.3102     3.6484     0.0120 H       
  40 H40            4.8833     1.3181    -3.1490 H       
  41 H41           10.0007    -2.2959     1.6965 H       
  42 H42            6.0562    -3.1481     2.9599 H       
  43 C43            9.5824     0.3823     1.6700 C.3     
  44 C44            9.3546    -0.1497     0.2373 C.3     
  45 H45            6.9152    -0.1147     0.9026 H       
  46 H46            5.8759     0.8032     0.4837 H       
  47 C47            4.4726     2.3102     1.9824 C.3     
  48 C48            5.5450     3.3314     1.5372 C.3     
  49 O49            4.1626    -2.3526     2.4411 O.3     
  50 H50            6.2471    -3.0879     0.4554 H       
  51 H51            3.6583    -0.0811    -1.4481 H       
  52 O52            5.9874    -0.5340    -3.1574 O.3     
  53 C53           10.0767    -0.8586     3.6980 C.3     
  54 C54            5.3553     4.9779    -0.2360 C.3     
  55 C55           10.4298     0.4990     4.3089 C.3     
  56 C56            4.1865     5.6317     0.5040 C.3     
  57 C57            4.2452     7.1484     0.3110 C.3     
  58 N58            3.1261     7.7744     1.0196 N.am    
  59 C59            3.1722     8.1911     2.2978 C.2     
  60 C60            1.8574     8.7653     2.6537 C.ar    
  61 C61            1.0600     8.6490     1.4969 C.ar    
  62 C62            1.9191     8.0133     0.4758 C.2     
  63 O63            1.5882     7.7445    -0.6614 O.2     
  64 O64            4.1330     8.1090     3.0360 O.2     
  65 C65            1.3292     9.3361     3.8000 C.ar    
  66 C66            0.0187     9.7892     3.8012 C.ar    
  67 C67           -0.7629     9.6751     2.6674 C.ar    
  68 C68           -0.2478     9.1057     1.5129 C.ar    
  69 C69           11.3239     0.2906     5.5328 C.3     
  70 N70           11.6628     1.5941     6.1193 N.3     
  71 C71           12.3234     1.4287     7.4340 C.3     
  72 C72           13.3056     2.5727     7.5443 C.ar    
  73 C73           13.5142     3.0889     6.2764 C.ar    
  74 C74           12.6746     2.2979     5.2991 C.3     
  75 C75           13.9605     3.1221     8.6294 C.ar    
  76 C76           14.8244     4.1866     8.4499 C.ar    
  77 C77           15.0326     4.7018     7.1844 C.ar    
  78 C78           14.3774     4.1525     6.0978 C.ar    
  79 H79           -0.7240     1.1744     1.0246 H       
  80 H80           -0.3758    -1.2126     1.3328 H       
  81 H81            1.8868    -2.1953     1.2897 H       
  82 H82            1.1911     2.7078     0.6448 H       
  83 H83            4.0754     3.4882    -2.3365 H       
  84 H84            2.9012     2.2206    -1.8975 H       
  85 H85            4.1912    -2.4546     0.4483 H       
  86 H86            5.0933    -1.7563    -1.8015 H       
  87 H87            8.4630    -3.2189     3.4063 H       
  88 H88            8.1586    -3.8567     1.7698 H       
  89 H89            8.2948     1.7484    -2.2176 H       
  90 H90            7.1045     2.3899     0.2030 H       
  91 H91            7.1825     3.7340    -0.9225 H       
  92 H92            6.7525     0.9321    -4.3294 H       
  93 H93            7.9267    -0.1295    -3.5793 H       
  94 H94            5.4863     0.1168     4.3240 H       
  95 H95            7.5555     0.7147     2.6028 H       
  96 H96            8.0298     0.1308     4.1890 H       
  97 H97            4.4323    -2.3950     4.4517 H       
  98 H98            3.4921    -1.0475     3.8390 H       
  99 H99           10.4358    -3.5581    -0.2416 H       
 100 H100          10.2204    -4.8461    -2.3543 H       
 101 H101           8.4027    -4.4040    -3.9106 H       
 102 H102           6.7126    -2.6713    -3.4514 H       
 103 H103           9.0381     1.3122     1.8168 H       
 104 H104          10.6478     0.5533     1.8323 H       
 105 H105          10.3094    -0.3930    -0.2343 H       
 106 H106           8.8113     0.5768    -0.3668 H       
 107 H107           3.6649     2.8148     2.5148 H       
 108 H108           4.9111     1.5315     2.6046 H       
 109 H109           6.5389     2.9568     1.7682 H       
 110 H110           5.3833     4.2790     2.0541 H       
 111 H111           9.6487    -1.5025     4.4663 H       
 112 H112          10.9780    -1.3218     3.2965 H       
 113 H113           6.2909     5.4342     0.0874 H       
 114 H114           5.2323     5.1227    -1.3093 H       
 115 H115          10.9584     1.1029     3.5713 H       
 116 H116           9.5156     1.0109     4.6097 H       
 117 H117           3.2459     5.2509     0.1060 H       
 118 H118           4.2528     5.3978     1.5665 H       
 119 H119           5.1858     7.5291     0.7090 H       
 120 H120           4.1790     7.3823    -0.7515 H       
 121 H121           1.9354     9.4274     4.6892 H       
 122 H122          -0.3941    10.2340     4.6946 H       
 123 H123          -1.7822    10.0318     2.6807 H       
 124 H124          -0.8631     9.0196     0.6295 H       
 125 H125          10.7952    -0.3133     6.2703 H       
 126 H126          12.2380    -0.2213     5.2320 H       
 127 H127          11.5868     1.4862     8.2353 H       
 128 H128          12.8500     0.4752     7.4734 H       
 129 H129          13.2953     1.5773     4.7667 H       
 130 H130          12.1861     2.9693     4.5930 H       
 131 H131          13.7980     2.7197     9.6184 H       
 132 H132          15.3362     4.6157     9.2986 H       
 133 H133          15.7074     5.5333     7.0442 H       
 134 H134          14.5403     4.5553     5.1091 H       
@<TRIPOS>BOND
   1    1    2 ar
   2    1    6 ar
   3    1   79 1
   4    2    3 ar
   5    2   80 1
   6    3    4 ar
   7    3   81 1
   8    4    5 ar
   9    4    7 1
  10    5    6 ar
  11    5    9 1
  12    6   82 1
  13    7    8 1
  14    7   14 1
  15    8    9 1
  16    8   46 1
  17    8   10 1
  18    9   13 1
  19    9   47 1
  20   10   51 1
  21   10   11 1
  22   10   18 1
  23   11   12 1
  24   11   25 1
  25   11   40 1
  26   12   13 1
  27   12   83 1
  28   12   84 1
  29   13   28 1
  30   13   39 1
  31   14   15 1
  32   14   49 1
  33   14   85 1
  34   15   16 1
  35   15   50 1
  36   15   19 1
  37   16   17 1
  38   16   22 1
  39   16   45 1
  40   17   18 1
  41   17   24 1
  42   18   52 1
  43   18   86 1
  44   19   20 1
  45   19   30 1
  46   19   42 1
  47   20   21 1
  48   20   87 1
  49   20   88 1
  50   21   22 1
  51   21   41 1
  52   21   34 1
  53   22   23 1
  54   22   44 1
  55   23   24 ar
  56   23   35 ar
  57   24   38 ar
  58   25   26 2
  59   25   27 1
  60   26   29 1
  61   26   89 1
  62   27   28 1
  63   27   90 1
  64   27   91 1
  65   28   48 1
  66   28   54 1
  67   29   52 1
  68   29   92 1
  69   29   93 1
  70   30   31 2
  71   30   32 1
  72   31   33 1
  73   31   94 1
  74   32   34 1
  75   32   95 1
  76   32   96 1
  77   33   49 1
  78   33   97 1
  79   33   98 1
  80   34   43 1
  81   34   53 1
  82   35   36 ar
  83   35   99 1
  84   36   37 ar
  85   36  100 1
  86   37   38 ar
  87   37  101 1
  88   38  102 1
  89   43   44 1
  90   43  103 1
  91   43  104 1
  92   44  105 1
  93   44  106 1
  94   47   48 1
  95   47  107 1
  96   47  108 1
  97   48  109 1
  98   48  110 1
  99   53   55 1
 100   53  111 1
 101   53  112 1
 102   54   56 1
 103   54  113 1
 104   54  114 1
 105   55   69 1
 106   55  115 1
 107   55  116 1
 108   56   57 1
 109   56  117 1
 110   56  118 1
 111   57   58 1
 112   57  119 1
 113   57  120 1
 114   58   59 am
 115   58   62 am
 116   59   60 1
 117   59   64 2
 118   60   61 ar
 119   60   65 ar
 120   61   62 1
 121   61   68 ar
 122   62   63 2
 123   65   66 ar
 124   65  121 1
 125   66   67 ar
 126   66  122 1
 127   67   68 ar
 128   67  123 1
 129   68  124 1
 130   69   70 1
 131   69  125 1
 132   69  126 1
 133   70   71 1
 134   70   74 1
 135   71   72 1
 136   71  127 1
 137   71  128 1
 138   72   73 ar
 139   72   75 ar
 140   73   74 1
 141   73   78 ar
 142   74  129 1
 143   74  130 1
 144   75   76 ar
 145   75  131 1
 146   76   77 ar
 147   76  132 1
 148   77   78 ar
 149   77  133 1
 150   78  134 1

#	End of record

