#	Name: ASD00960264
#	Creating user name:	WinNT
#	Creation time:	15. 06. 2019 18:53

#	Modifying user name:	WinNT
#	Modification time:	15. 06. 2019 18:53

#	Program:	/corina/corina34_cracker 3.40 0067  02.08.2006

@<TRIPOS>MOLECULE
ASD00960264
  36   38    0    0    0
SMALL
NO_CHARGES


@<TRIPOS>ATOM
   1 C1            -0.0168     1.3908     0.0097 C.2     
   2 C2             0.0021    -0.0041     0.0020 C.2     
   3 N3             1.2890     1.8156    -0.0005 N.pl3   
   4 C4             2.1049     0.7165    -0.0000 C.2     
   5 C5             1.3536    -0.3958    -0.0057 C.2     
   6 N6             1.8136     3.1166     0.0035 N.2     
   7 C7             3.0816     3.2716    -0.2329 C.2     
   8 N8             3.9046     2.2044    -0.5250 N.pl3   
   9 C9             3.6102     0.8661     0.0178 C.3     
  10 N10            4.1104     0.7602     1.3950 N.3     
  11 N11           -1.1050    -0.8476     0.0024 N.pl3   
  12 C12           -1.1650     2.2130     0.0199 C.2     
  13 O13           -2.2737     1.7101     0.0231 O.2     
  14 O14           -1.0332     3.5565     0.0260 O.3     
  15 C15           -2.2370     4.3265     0.0362 C.3     
  16 C16           -1.8946     5.7940     0.0419 C.ar    
  17 C17           -1.7438     6.4732    -1.1526 C.ar    
  18 C18           -1.4297     7.8194    -1.1474 C.ar    
  19 C19           -1.2668     8.4865     0.0523 C.ar    
  20 C20           -1.4185     7.8075     1.2468 C.ar    
  21 C21           -1.7369     6.4623     1.2416 C.ar    
  22 H22            1.7212    -1.4113    -0.0143 H       
  23 H23            3.5034     4.2653    -0.2000 H       
  24 H24            4.6815     2.3352    -1.0908 H       
  25 H25            4.0691     0.1002    -0.6074 H       
  26 H26            5.1082     0.9055     1.4294 H       
  27 H27            3.6298     1.4046     2.0047 H       
  28 H28           -1.9999    -0.4734     0.0085 H       
  29 H29           -0.9817    -1.8098    -0.0034 H       
  30 H30           -2.8246     4.0939    -0.8519 H       
  31 H31           -2.8153     4.0848     0.9280 H       
  32 H32           -1.8711     5.9520    -2.0900 H       
  33 H33           -1.3112     8.3499    -2.0807 H       
  34 H34           -1.0207     9.5381     0.0563 H       
  35 H35           -1.2909     8.3286     2.1841 H       
  36 H36           -1.8591     5.9327     2.1749 H       
@<TRIPOS>BOND
   1    1    2 2
   2    1    3 1
   3    1   12 1
   4    2   11 1
   5    2    5 1
   6    3    4 1
   7    3    6 1
   8    4    5 2
   9    4    9 1
  10    5   22 1
  11    6    7 2
  12    7    8 1
  13    7   23 1
  14    8    9 1
  15    8   24 1
  16    9   10 1
  17    9   25 1
  18   10   26 1
  19   10   27 1
  20   11   28 1
  21   11   29 1
  22   12   13 2
  23   12   14 1
  24   14   15 1
  25   15   16 1
  26   15   30 1
  27   15   31 1
  28   16   17 ar
  29   16   21 ar
  30   17   18 ar
  31   17   32 1
  32   18   19 ar
  33   18   33 1
  34   19   20 ar
  35   19   34 1
  36   20   21 ar
  37   20   35 1
  38   21   36 1

#	End of record

