#	Name: ASD07931741
#	Creating user name:	WinNT
#	Creation time:	15. 06. 2019 21:13

#	Modifying user name:	WinNT
#	Modification time:	15. 06. 2019 21:13

#	Program:	/corina/corina34_cracker 3.40 0067  02.08.2006

@<TRIPOS>MOLECULE
ASD07931741
  57   61    0    0    0
SMALL
NO_CHARGES


@<TRIPOS>ATOM
   1 C1            -0.1813     1.6287    -0.7068 C.2     
   2 C2            -0.2182     0.2790    -0.4870 C.2     
   3 C3             1.0370    -0.4280    -0.2209 C.2     
   4 N4             2.1896     0.2635    -0.1972 N.am    
   5 C5             2.2008     1.6213    -0.4235 C.2     
   6 C6             1.0475     2.2995    -0.6728 C.2     
   7 C7             3.4653    -0.4132     0.0728 C.3     
   8 C8             4.5279     0.1835    -0.8621 C.3     
   9 N9             4.6331     1.6240    -0.5895 N.am    
  10 C10            3.4969     2.3344    -0.3920 C.2     
  11 C11            5.9423     2.2791    -0.5325 C.3     
  12 O12            1.0363    -1.6310    -0.0225 O.2     
  13 N13           -1.4321    -0.4133    -0.5155 N.pl3   
  14 C14           -2.2491    -0.5821    -1.6039 C.2     
  15 C15           -2.0230    -1.0515     0.5288 C.2     
  16 N16           -3.1422    -1.5791     0.1137 N.2     
  17 C17           -3.3057    -1.3066    -1.1897 C.2     
  18 C18           -4.4709    -1.7372    -2.0429 C.3     
  19 O19            3.5411     3.5331    -0.1933 O.2     
  20 C20            6.5980     2.2293    -1.9140 C.3     
  21 C21            5.6565     2.8353    -2.9783 C.3     
  22 C22            5.8798     1.9501    -4.2248 C.3     
  23 C23            6.9299     0.9140    -3.7661 C.3     
  24 O24            6.7917     0.8598    -2.3295 O.3     
  25 C25            6.6365    -0.4340    -4.3726 C.ar    
  26 C26            7.2202    -0.7930    -5.5732 C.ar    
  27 C27            5.7885    -1.3126    -3.7252 C.ar    
  28 C28            5.5179    -2.5507    -4.2805 C.ar    
  29 C29            6.0968    -2.9098    -5.4852 C.ar    
  30 C30            6.9513    -2.0309    -6.1310 C.ar    
  31 Cl31           5.7582    -4.4630    -6.1829 Cl      
  32 C32            6.8313     1.5548     0.4804 C.3     
  33 F33            7.5170    -2.3796    -7.3073 F       
  34 Cl34           4.4530    -3.6536    -3.4661 Cl      
  35 H35           -1.0924     2.1721    -0.9093 H       
  36 H36            1.0803     3.3649    -0.8465 H       
  37 H37            3.7555    -0.2514     1.1109 H       
  38 H38            3.3636    -1.4813    -0.1196 H       
  39 H39            5.4893    -0.2954    -0.6768 H       
  40 H40            4.2319     0.0278    -1.8995 H       
  41 H41            5.8158     3.3179    -0.2276 H       
  42 H42           -2.0780    -0.2060    -2.6017 H       
  43 H43           -1.6318    -1.1122     1.5336 H       
  44 H44           -5.2500    -0.9759    -2.0049 H       
  45 H45           -4.1388    -1.8662    -3.0731 H       
  46 H46           -4.8666    -2.6811    -1.6679 H       
  47 H47            7.5490     2.7619    -1.9012 H       
  48 H48            4.6192     2.7761    -2.6487 H       
  49 H49            5.9330     3.8684    -3.1890 H       
  50 H50            4.9530     1.4533    -4.5115 H       
  51 H51            6.2667     2.5455    -5.0518 H       
  52 H52            7.9324     1.2436    -4.0388 H       
  53 H53            7.8859    -0.1072    -6.0762 H       
  54 H54            5.3369    -1.0326    -2.7849 H       
  55 H55            6.9578     0.5160     0.1754 H       
  56 H56            7.8053     2.0422     0.5228 H       
  57 H57            6.3641     1.5903     1.4646 H       
@<TRIPOS>BOND
   1    1    2 2
   2    1    6 1
   3    1   35 1
   4    2    3 1
   5    2   13 1
   6    3    4 am
   7    3   12 2
   8    4    5 1
   9    4    7 1
  10    5    6 2
  11    5   10 1
  12    6   36 1
  13    7    8 1
  14    7   37 1
  15    7   38 1
  16    8    9 1
  17    8   39 1
  18    8   40 1
  19    9   10 am
  20    9   11 1
  21   10   19 2
  22   11   32 1
  23   11   20 1
  24   11   41 1
  25   13   14 1
  26   13   15 1
  27   14   17 2
  28   14   42 1
  29   15   16 2
  30   15   43 1
  31   16   17 1
  32   17   18 1
  33   18   44 1
  34   18   45 1
  35   18   46 1
  36   20   21 1
  37   20   24 1
  38   20   47 1
  39   21   22 1
  40   21   48 1
  41   21   49 1
  42   22   23 1
  43   22   50 1
  44   22   51 1
  45   23   24 1
  46   23   25 1
  47   23   52 1
  48   25   26 ar
  49   25   27 ar
  50   26   30 ar
  51   26   53 1
  52   27   28 ar
  53   27   54 1
  54   28   29 ar
  55   28   34 1
  56   29   30 ar
  57   29   31 1
  58   30   33 1
  59   32   55 1
  60   32   56 1
  61   32   57 1

#	End of record

