#	Name: ASD03430309
#	Creating user name:	WinNT
#	Creation time:	15. 06. 2019 20:40

#	Modifying user name:	WinNT
#	Modification time:	15. 06. 2019 20:40

#	Program:	/corina/corina34_cracker 3.40 0067  02.08.2006

@<TRIPOS>MOLECULE
ASD03430309
  50   55    0    0    0
SMALL
NO_CHARGES


@<TRIPOS>ATOM
   1 C1            -0.1024     1.2045     0.7952 C.ar    
   2 C2            -0.0647    -0.1606     0.6153 C.ar    
   3 C3             1.1466    -0.8137     0.5247 C.ar    
   4 C4             2.3391    -0.1012     0.6228 C.ar    
   5 C5             2.2924     1.2772     0.7938 C.ar    
   6 C6             1.0740     1.9403     0.8781 C.ar    
   7 O7             3.4168    -0.9323     0.5416 O.3     
   8 C8             1.5226    -2.2550     0.3126 C.3     
   9 C9             3.0119    -2.1801    -0.0526 C.3     
  10 C10            0.4253    -4.1109     1.1328 C.ar    
  11 C11            1.2885    -3.0942     1.5339 C.ar    
  12 C12            0.7142    -2.9015    -0.7752 C.2     
  13 N13            0.1098    -3.9713    -0.2205 N.am    
  14 O14            0.6228    -2.5333    -1.9272 O.2     
  15 C15            1.7372    -3.0285     2.8336 C.ar    
  16 C16            1.3323    -3.9775     3.7559 C.ar    
  17 C17            0.4753    -4.9912     3.3690 C.ar    
  18 C18            0.0224    -5.0613     2.0678 C.ar    
  19 C19           -0.7747    -4.8816    -0.9522 C.3     
  20 C20           -2.2001    -4.4103    -0.8214 C.ar    
  21 C21           -2.4876    -3.2697    -0.1012 C.ar    
  22 C22           -3.7961    -2.8356     0.0200 C.ar    
  23 C23           -4.8241    -3.5414    -0.5791 C.ar    
  24 C24           -4.5506    -4.6840    -1.3024 C.ar    
  25 C25           -3.2322    -5.1242    -1.4339 C.ar    
  26 C26           -1.2509     2.1824     0.9468 C.3     
  27 C27           -0.5336     3.4345     1.5046 C.3     
  28 O28            0.8125     3.2688     1.0275 O.3     
  29 C29           -2.9318    -6.3467    -2.2069 C.2     
  30 O30           -1.7783    -6.6742    -2.4013 O.2     
  31 O31           -3.9370    -7.0983    -2.6962 O.3     
  32 H32           -0.9855    -0.7206     0.5454 H       
  33 H33            3.2123     1.8388     0.8625 H       
  34 H34            3.1444    -2.1547    -1.1342 H       
  35 H35            3.5604    -3.0137     0.3861 H       
  36 H36            2.4063    -2.2357     3.1338 H       
  37 H37            1.6853    -3.9267     4.7753 H       
  38 H38            0.1591    -5.7318     4.0887 H       
  39 H39           -0.6467    -5.8562     1.7730 H       
  40 H40           -0.4916    -4.8953    -2.0047 H       
  41 H41           -0.6847    -5.8861    -0.5387 H       
  42 H42           -1.6899    -2.7144     0.3696 H       
  43 H43           -4.0157    -1.9418     0.5851 H       
  44 H44           -5.8430    -3.1975    -0.4800 H       
  45 H45           -5.3540    -5.2343    -1.7693 H       
  46 H46           -1.7115     2.3947    -0.0180 H       
  47 H47           -1.9897     1.8086     1.6557 H       
  48 H48           -0.9768     4.3451     1.1015 H       
  49 H49           -0.5591     3.4409     2.5943 H       
  50 H50           -3.6910    -7.8890    -3.1955 H       
@<TRIPOS>BOND
   1    1    2 ar
   2    1    6 ar
   3    1   26 1
   4    2    3 ar
   5    2   32 1
   6    3    4 ar
   7    3    8 1
   8    4    5 ar
   9    4    7 1
  10    5    6 ar
  11    5   33 1
  12    6   28 1
  13    7    9 1
  14    8    9 1
  15    8   11 1
  16    8   12 1
  17    9   34 1
  18    9   35 1
  19   10   11 ar
  20   10   13 1
  21   10   18 ar
  22   11   15 ar
  23   12   13 am
  24   12   14 2
  25   13   19 1
  26   15   16 ar
  27   15   36 1
  28   16   17 ar
  29   16   37 1
  30   17   18 ar
  31   17   38 1
  32   18   39 1
  33   19   20 1
  34   19   40 1
  35   19   41 1
  36   20   21 ar
  37   20   25 ar
  38   21   22 ar
  39   21   42 1
  40   22   23 ar
  41   22   43 1
  42   23   24 ar
  43   23   44 1
  44   24   25 ar
  45   24   45 1
  46   25   29 1
  47   26   27 1
  48   26   46 1
  49   26   47 1
  50   27   28 1
  51   27   48 1
  52   27   49 1
  53   29   30 2
  54   29   31 1
  55   31   50 1

#	End of record

