#	Name: ASD04880494
#	Creating user name:	WinNT
#	Creation time:	15. 06. 2019 20:53

#	Modifying user name:	WinNT
#	Modification time:	15. 06. 2019 20:53

#	Program:	/corina/corina34_cracker 3.40 0067  02.08.2006

@<TRIPOS>MOLECULE
ASD04880494
  36   38    0    0    0
SMALL
NO_CHARGES


@<TRIPOS>ATOM
   1 C1             0.1549     1.3486    -0.3438 C.2     
   2 O2             0.5465     0.2132    -0.1543 O.2     
   3 N3             1.0212     2.3793    -0.2823 N.am    
   4 N4             0.7255     3.7060    -0.5888 N.2     
   5 C5             1.7214     4.5120    -0.4537 C.2     
   6 C6             2.9364     3.7405     0.0098 C.3     
   7 C7             2.4322     2.2883     0.1257 C.3     
   8 C8             1.6826     5.9634    -0.7120 C.ar    
   9 C9             0.4693     6.5925    -1.0020 C.ar    
  10 C10            0.4405     7.9501    -1.2425 C.ar    
  11 C11            1.6097     8.6892    -1.1972 C.ar    
  12 C12            2.8148     8.0729    -0.9107 C.ar    
  13 C13            2.8578     6.7166    -0.6623 C.ar    
  14 C14           -0.8049     5.7893    -1.0523 C.3     
  15 F15           -1.8595     6.6130    -1.4603 F       
  16 F16           -0.6569     4.7364    -1.9615 F       
  17 F17           -1.0811     5.2729     0.2182 F       
  18 C18           -1.2698     1.5979    -0.6477 C.ar    
  19 C19           -2.1348     0.5270    -0.8790 C.ar    
  20 C20           -3.4656     0.7674    -1.1621 C.ar    
  21 C21           -3.9406     2.0684    -1.2163 C.ar    
  22 C22           -3.0870     3.1323    -0.9878 C.ar    
  23 C23           -1.7571     2.9049    -0.6989 C.ar    
  24 F24           -4.3050    -0.2670    -1.3868 F       
  25 H25            3.7385     3.8132    -0.7247 H       
  26 H26            3.2721     4.1034     0.9812 H       
  27 H27            2.5122     1.9333     1.1531 H       
  28 H28            2.9858     1.6370    -0.5506 H       
  29 H29           -0.4966     8.4377    -1.4672 H       
  30 H30            1.5813     9.7520    -1.3868 H       
  31 H31            3.7233     8.6558    -0.8769 H       
  32 H32            3.7984     6.2377    -0.4339 H       
  33 H33           -1.7648    -0.4868    -0.8372 H       
  34 H34           -4.9814     2.2520    -1.4382 H       
  35 H35           -3.4633     4.1437    -1.0318 H       
  36 H36           -1.0932     3.7371    -0.5168 H       
@<TRIPOS>BOND
   1    1    2 2
   2    1    3 am
   3    1   18 1
   4    3    4 1
   5    3    7 1
   6    4    5 2
   7    5    6 1
   8    5    8 1
   9    6    7 1
  10    6   25 1
  11    6   26 1
  12    7   27 1
  13    7   28 1
  14    8    9 ar
  15    8   13 ar
  16    9   10 ar
  17    9   14 1
  18   10   11 ar
  19   10   29 1
  20   11   12 ar
  21   11   30 1
  22   12   13 ar
  23   12   31 1
  24   13   32 1
  25   14   15 1
  26   14   16 1
  27   14   17 1
  28   18   19 ar
  29   18   23 ar
  30   19   20 ar
  31   19   33 1
  32   20   21 ar
  33   20   24 1
  34   21   22 ar
  35   21   34 1
  36   22   23 ar
  37   22   35 1
  38   23   36 1

#	End of record

