#	Name: ASD01010007
#	Creating user name:	WinNT
#	Creation time:	15. 06. 2019 18:56

#	Modifying user name:	WinNT
#	Modification time:	15. 06. 2019 18:56

#	Program:	/corina/corina34_cracker 3.40 0067  02.08.2006

@<TRIPOS>MOLECULE
ASD01010007
  16   16    0    0    0
SMALL
NO_CHARGES


@<TRIPOS>ATOM
   1 C1            -0.0179     1.4705     0.0101 C.2     
   2 C2             0.0021    -0.0041     0.0020 C.ar    
   3 C3             1.2209    -0.6884    -0.0133 C.ar    
   4 C4             1.2351    -2.0651    -0.0209 C.ar    
   5 C5             0.0397    -2.7746    -0.0133 C.ar    
   6 C6            -1.1746    -2.0979     0.0015 C.ar    
   7 C7            -1.1977    -0.7214     0.0154 C.ar    
   8 O8             1.0260     2.0922     0.0035 O.2     
   9 O9            -1.1939     2.1283     0.0193 O.3     
  10 O10            0.0581    -4.1314    -0.0208 O.3     
  11 H11            2.1501    -0.1380    -0.0195 H       
  12 H12            2.1763    -2.5946    -0.0331 H       
  13 H13           -2.1011    -2.6529     0.0069 H       
  14 H14           -2.1414    -0.1965     0.0321 H       
  15 H15           -1.1564     3.0945     0.0244 H       
  16 H16            0.0718    -4.5295     0.8603 H       
@<TRIPOS>BOND
   1    1    2 1
   2    1    8 2
   3    1    9 1
   4    2    3 ar
   5    2    7 ar
   6    3    4 ar
   7    3   11 1
   8    4    5 ar
   9    4   12 1
  10    5    6 ar
  11    5   10 1
  12    6    7 ar
  13    6   13 1
  14    7   14 1
  15    9   15 1
  16   10   16 1

#	End of record

