#	Name: ASD03331650
#	Creating user name:	WinNT
#	Creation time:	15. 06. 2019 20:39

#	Modifying user name:	WinNT
#	Modification time:	15. 06. 2019 20:39

#	Program:	/corina/corina34_cracker 3.40 0067  02.08.2006

@<TRIPOS>MOLECULE
ASD03331650
  57   59    0    0    0
SMALL
NO_CHARGES


@<TRIPOS>ATOM
   1 C1             0.2792     1.4943     0.1350 C.3     
   2 N2             0.2012     0.0276     0.0808 N.3     
   3 C3             0.6017    -0.4776    -1.2448 C.3     
   4 C4             1.9163     0.1620    -1.6094 C.2     
   5 N5             2.4257     1.2531    -0.9796 N.pl3   
   6 C6             1.7478     1.9371     0.1258 C.3     
   7 C7             2.8011    -0.1928    -2.5721 C.2     
   8 N8             3.8385     0.6861    -2.5126 N.2     
   9 C9             3.6100     1.5473    -1.5591 C.2     
  10 C10            4.5187     2.6842    -1.1683 C.3     
  11 C11            4.1581     3.9119    -1.9644 C.ar    
  12 C12            2.6657    -1.3214    -3.5093 C.2     
  13 O13            1.6846    -2.0385    -3.4599 O.2     
  14 N14            3.6290    -1.5592    -4.4214 N.am    
  15 C15            3.4944    -2.6816    -5.3533 C.3     
  16 C16            2.6631    -2.2446    -6.5611 C.3     
  17 C17            4.8610    -3.1176    -5.8153 C.2     
  18 N18            5.0675    -4.3931    -6.1986 N.am    
  19 O19            5.7749    -2.3208    -5.8421 O.2     
  20 C20            6.4173    -4.8440    -6.5463 C.3     
  21 C21            3.2937    -1.0012    -7.1914 C.3     
  22 C22            2.6263    -3.3755    -7.5910 C.3     
  23 C23            1.2379    -1.9202    -6.1089 C.3     
  24 C24            3.2185     4.8007    -1.4765 C.ar    
  25 C25            2.8877     5.9268    -2.2068 C.ar    
  26 C26            3.4969     6.1644    -3.4247 C.ar    
  27 C27            4.4372     5.2761    -3.9122 C.ar    
  28 C28            4.7711     4.1522    -3.1799 C.ar    
  29 H29           -0.2320     1.9165    -0.7302 H       
  30 H30           -0.2007     1.8492     1.0470 H       
  31 H31            0.7577    -0.3913     0.8108 H       
  32 H32            0.7171    -1.5609    -1.2067 H       
  33 H33           -0.1544    -0.2128    -1.9839 H       
  34 H34            1.8057     3.0160    -0.0185 H       
  35 H35            2.2195     1.6661     1.0704 H       
  36 H36            4.4022     2.8934    -0.1050 H       
  37 H37            5.5534     2.4092    -1.3733 H       
  38 H38            4.4115    -0.9873    -4.4608 H       
  39 H39            2.9980    -3.5125    -4.8520 H       
  40 H40            4.3225    -5.0125    -6.2442 H       
  41 H41            6.3873    -5.8962    -6.8292 H       
  42 H42            6.7936    -4.2537    -7.3818 H       
  43 H43            7.0754    -4.7175    -5.6866 H       
  44 H44            4.3090    -1.2324    -7.5135 H       
  45 H45            2.7015    -0.6899    -8.0519 H       
  46 H46            3.3199    -0.1955    -6.4577 H       
  47 H47            2.2732    -4.2898    -7.1141 H       
  48 H48            1.9516    -3.1054    -8.4033 H       
  49 H49            3.6281    -3.5370    -7.9892 H       
  50 H50            1.2641    -1.1145    -5.3752 H       
  51 H51            0.6457    -1.6089    -6.9694 H       
  52 H52            0.7887    -2.8060    -5.6599 H       
  53 H53            2.7426     4.6150    -0.5250 H       
  54 H54            2.1531     6.6208    -1.8259 H       
  55 H55            3.2379     7.0439    -3.9956 H       
  56 H56            4.9128     5.4615    -4.8639 H       
  57 H57            5.5058     3.4582    -3.5607 H       
@<TRIPOS>BOND
   1    1    2 1
   2    1    6 1
   3    1   29 1
   4    1   30 1
   5    2    3 1
   6    2   31 1
   7    3    4 1
   8    3   32 1
   9    3   33 1
  10    4    5 1
  11    4    7 2
  12    5    6 1
  13    5    9 1
  14    6   34 1
  15    6   35 1
  16    7    8 1
  17    7   12 1
  18    8    9 2
  19    9   10 1
  20   10   11 1
  21   10   36 1
  22   10   37 1
  23   11   24 ar
  24   11   28 ar
  25   12   13 2
  26   12   14 am
  27   14   15 1
  28   14   38 1
  29   15   16 1
  30   15   17 1
  31   15   39 1
  32   16   21 1
  33   16   22 1
  34   16   23 1
  35   17   18 am
  36   17   19 2
  37   18   20 1
  38   18   40 1
  39   20   41 1
  40   20   42 1
  41   20   43 1
  42   21   44 1
  43   21   45 1
  44   21   46 1
  45   22   47 1
  46   22   48 1
  47   22   49 1
  48   23   50 1
  49   23   51 1
  50   23   52 1
  51   24   25 ar
  52   24   53 1
  53   25   26 ar
  54   25   54 1
  55   26   27 ar
  56   26   55 1
  57   27   28 ar
  58   27   56 1
  59   28   57 1

#	End of record

