#	Name: ASD01813961
#	Creating user name:	WinNT
#	Creation time:	15. 06. 2019 19:31

#	Modifying user name:	WinNT
#	Modification time:	15. 06. 2019 19:31

#	Program:	/corina/corina34_cracker 3.40 0067  02.08.2006

@<TRIPOS>MOLECULE
ASD01813961
  63   66    0    0    0
SMALL
NO_CHARGES


@<TRIPOS>ATOM
   1 C1            -0.0173     1.4248     0.0099 C.3     
   2 O2             0.0021    -0.0041     0.0020 O.3     
   3 C3             0.6247    -0.6173     1.0396 C.ar    
   4 C4             1.9781    -0.9096     0.9653 C.ar    
   5 C5             2.7599    -0.5456    -0.2706 C.3     
   6 C6             2.6107    -1.5335     2.0225 C.ar    
   7 C7             4.0821    -1.8474     1.9353 C.3     
   8 C8             1.9009    -1.8720     3.1626 C.ar    
   9 C9             2.6034    -2.5526     4.3091 C.3     
  10 C10            3.2471    -1.5142     5.1914 C.ar    
  11 C11            4.5425    -1.1013     4.9374 C.ar    
  12 C12            5.1368    -0.1505     5.7424 C.ar    
  13 C13            4.4293     0.3938     6.8119 C.ar    
  14 C14            3.1246    -0.0253     7.0629 C.ar    
  15 C15            2.5382    -0.9732     6.2488 C.ar    
  16 C16            5.0635     1.4163     7.6813 C.2     
  17 C17            4.5042     2.0337     8.7625 C.2     
  18 N18            5.4452     2.8807     9.2372 N.pl3   
  19 C19            5.2962     3.7621    10.3979 C.3     
  20 N20            6.4936     2.7819     8.4981 N.2     
  21 N21            6.3067     1.9163     7.5654 N.2     
  22 C22            0.5551    -1.5889     3.2536 C.ar    
  23 C23           -0.0960    -0.9530     2.1941 C.ar    
  24 C24           -1.5350    -0.6411     2.2874 C.2     
  25 O25           -2.0992    -0.0913     1.3613 O.2     
  26 N26           -2.2241    -0.9657     3.3992 N.am    
  27 C27           -3.6530    -0.6560     3.4919 C.3     
  28 H28           -3.8563     0.2832     2.9774 H       
  29 C29           -4.4635    -1.7808     2.8425 C.3     
  30 O30           -5.8583    -1.5048     2.9853 O.3     
  31 C31           -6.3014    -1.4247     4.3415 C.3     
  32 C32           -5.5648    -0.2855     5.0511 C.3     
  33 C33           -4.0551    -0.5304     4.9646 C.3     
  34 H34           -3.8053    -1.4518     5.4907 H       
  35 O35           -3.3570     0.5657     5.5589 O.3     
  36 H36            1.0053     1.8021     0.0021 H       
  37 H37           -0.5445     1.7859    -0.8732 H       
  38 H38           -0.5275     1.7763     0.9067 H       
  39 H39            3.1688     0.4586    -0.1592 H       
  40 H40            3.5746    -1.2565    -0.4077 H       
  41 H41            2.1016    -0.5756    -1.1389 H       
  42 H42            4.6566    -1.0065     2.3237 H       
  43 H43            4.2990    -2.7385     2.5243 H       
  44 H44            4.3549    -2.0242     0.8950 H       
  45 H45            1.8803    -3.1251     4.8899 H       
  46 H46            3.3691    -3.2233     3.9193 H       
  47 H47            5.0901    -1.5239     4.1080 H       
  48 H48            6.1486     0.1706     5.5436 H       
  49 H49            2.5718     0.3932     7.8909 H       
  50 H50            1.5254    -1.2958     6.4400 H       
  51 H51            3.5115     1.8777     9.1582 H       
  52 H52            5.6202     3.2372    11.2966 H       
  53 H53            5.9071     4.6539    10.2578 H       
  54 H54            4.2504     4.0509    10.5030 H       
  55 H55            0.0056    -1.8547     4.1445 H       
  56 H56           -1.7741    -1.4044     4.1381 H       
  57 H57           -4.2122    -1.8454     1.7838 H       
  58 H58           -4.2283    -2.7267     3.3305 H       
  59 H59           -7.3742    -1.2327     4.3627 H       
  60 H60           -6.0903    -2.3659     4.8491 H       
  61 H61           -5.8075     0.6613     4.5688 H       
  62 H62           -5.8689    -0.2510     6.0972 H       
  63 H63           -3.5641     0.7038     6.4933 H       
@<TRIPOS>BOND
   1    1    2 1
   2    1   36 1
   3    1   37 1
   4    1   38 1
   5    2    3 1
   6    3   23 ar
   7    3    4 ar
   8    4    5 1
   9    4    6 ar
  10    5   39 1
  11    5   40 1
  12    5   41 1
  13    6    7 1
  14    6    8 ar
  15    7   42 1
  16    7   43 1
  17    7   44 1
  18    8    9 1
  19    8   22 ar
  20    9   10 1
  21    9   45 1
  22    9   46 1
  23   10   15 ar
  24   10   11 ar
  25   11   12 ar
  26   11   47 1
  27   12   13 ar
  28   12   48 1
  29   13   14 ar
  30   13   16 1
  31   14   15 ar
  32   14   49 1
  33   15   50 1
  34   16   21 1
  35   16   17 2
  36   17   18 1
  37   17   51 1
  38   18   19 1
  39   18   20 1
  40   19   52 1
  41   19   53 1
  42   19   54 1
  43   20   21 2
  44   22   23 ar
  45   22   55 1
  46   23   24 1
  47   24   25 2
  48   24   26 am
  49   26   27 1
  50   26   56 1
  51   27   28 1
  52   27   33 1
  53   27   29 1
  54   29   30 1
  55   29   57 1
  56   29   58 1
  57   30   31 1
  58   31   32 1
  59   31   59 1
  60   31   60 1
  61   32   33 1
  62   32   61 1
  63   32   62 1
  64   33   34 1
  65   33   35 1
  66   35   63 1

#	End of record

