#	Name: ASD03731458
#	Creating user name:	WinNT
#	Creation time:	15. 06. 2019 20:45

#	Modifying user name:	WinNT
#	Modification time:	15. 06. 2019 20:45

#	Program:	/corina/corina34_cracker 3.40 0067  02.08.2006

@<TRIPOS>MOLECULE
ASD03731458
  59   65    0    0    0
SMALL
NO_CHARGES


@<TRIPOS>ATOM
   1 N1            -0.0158     1.3174     0.0093 N.ar    
   2 C2             0.0021    -0.0041     0.0020 C.ar    
   3 C3             1.2227    -0.7012    -0.0134 C.ar    
   4 N4             2.3629    -0.0510    -0.0208 N.ar    
   5 C5             2.3655     1.2869    -0.0135 C.ar    
   6 C6             3.5712     2.0083    -0.0215 C.ar    
   7 C7             3.5442     3.3691    -0.0144 C.ar    
   8 C8             2.3353     4.0637     0.0011 C.ar    
   9 C9             1.1472     3.4013     0.0098 C.ar    
  10 C10            1.1335     1.9936     0.0019 C.ar    
  11 C11           -1.2748    -0.7570     0.0107 C.2     
  12 O12           -1.2637    -1.9719     0.0040 O.2     
  13 N13           -2.4480    -0.0938     0.0259 N.am    
  14 C14           -3.7099    -0.8379     0.0344 C.3     
  15 C15           -4.8818     0.1456     0.0514 C.3     
  16 C16           -6.1997    -0.6315     0.0603 C.3     
  17 O17           -6.9808     6.2016    -2.0350 O.3     
  18 C18           -7.7669     7.3861    -2.2631 C.3     
  19 O19           -9.0139     6.8768    -2.7716 O.3     
  20 C20           -9.1348     5.6198    -2.2518 C.ar    
  21 C21           -7.8841     5.2048    -1.7999 C.ar    
  22 C22          -10.2289     4.7829    -2.1245 C.ar    
  23 C23          -10.0902     3.5238    -1.5483 C.ar    
  24 C24           -8.8343     3.1171    -1.1083 C.ar    
  25 C25           -7.7426     3.9516    -1.2281 C.ar    
  26 O26          -11.0302     2.5633    -1.3153 O.3     
  27 C27           -8.9999     1.7216    -0.5688 C.3     
  28 C28          -10.3744     1.2980    -1.1044 C.3     
  29 N29           -7.3218     0.3102     0.0765 N.am    
  30 C30           -7.9096     0.7996    -1.0335 C.2     
  31 C31           -8.9457     1.6785     0.9295 C.ar    
  32 C32           -9.6719     2.2917     1.9259 C.ar    
  33 C33           -9.3747     2.0421     3.2538 C.ar    
  34 C34           -8.3463     1.1759     3.5779 C.ar    
  35 C35           -7.6154     0.5600     2.5836 C.ar    
  36 C36           -7.9078     0.8051     1.2441 C.ar    
  37 O37           -7.6157     0.5448    -2.1823 O.2     
  38 H38            1.2224    -1.7812    -0.0189 H       
  39 H39            4.5159     1.4849    -0.0329 H       
  40 H40            4.4735     3.9194    -0.0206 H       
  41 H41            2.3423     5.1436     0.0068 H       
  42 H42            0.2188     3.9528     0.0225 H       
  43 H43           -2.4569     0.8761     0.0312 H       
  44 H44           -3.7708    -1.4603    -0.8583 H       
  45 H45           -3.7531    -1.4698     0.9215 H       
  46 H46           -4.8210     0.7680     0.9441 H       
  47 H47           -4.8386     0.7775    -0.8357 H       
  48 H48           -6.2606    -1.2539    -0.8325 H       
  49 H49           -6.2429    -1.2634     0.9474 H       
  50 H50           -7.9258     7.9258    -1.3295 H       
  51 H51           -7.2862     8.0285    -3.0009 H       
  52 H52          -11.1971     5.1089    -2.4748 H       
  53 H53           -6.7750     3.6267    -0.8753 H       
  54 H54          -10.9109     0.7023    -0.3659 H       
  55 H55          -10.2731     0.7533    -2.0431 H       
  56 H56          -10.4744     2.9678     1.6705 H       
  57 H57           -9.9447     2.5222     4.0355 H       
  58 H58           -8.1143     0.9812     4.6146 H       
  59 H59           -6.8134    -0.1146     2.8446 H       
@<TRIPOS>BOND
   1    1    2 ar
   2    1   10 ar
   3    2    3 ar
   4    2   11 1
   5    3    4 ar
   6    3   38 1
   7    4    5 ar
   8    5    6 ar
   9    5   10 ar
  10    6    7 ar
  11    6   39 1
  12    7    8 ar
  13    7   40 1
  14    8    9 ar
  15    8   41 1
  16    9   10 ar
  17    9   42 1
  18   11   12 2
  19   11   13 am
  20   13   14 1
  21   13   43 1
  22   14   15 1
  23   14   44 1
  24   14   45 1
  25   15   16 1
  26   15   46 1
  27   15   47 1
  28   16   29 1
  29   16   48 1
  30   16   49 1
  31   17   18 1
  32   17   21 1
  33   18   19 1
  34   18   50 1
  35   18   51 1
  36   19   20 1
  37   20   21 ar
  38   20   22 ar
  39   21   25 ar
  40   22   23 ar
  41   22   52 1
  42   23   24 ar
  43   23   26 1
  44   24   25 ar
  45   24   27 1
  46   25   53 1
  47   26   28 1
  48   27   28 1
  49   27   30 1
  50   27   31 1
  51   28   54 1
  52   28   55 1
  53   29   30 am
  54   29   36 1
  55   30   37 2
  56   31   32 ar
  57   31   36 ar
  58   32   33 ar
  59   32   56 1
  60   33   34 ar
  61   33   57 1
  62   34   35 ar
  63   34   58 1
  64   35   36 ar
  65   35   59 1

#	End of record

