#	Name: ASD01810342
#	Creating user name:	WinNT
#	Creation time:	15. 06. 2019 19:24

#	Modifying user name:	WinNT
#	Modification time:	15. 06. 2019 19:24

#	Program:	/corina/corina34_cracker 3.40 0067  02.08.2006

@<TRIPOS>MOLECULE
ASD01810342
  66   66    0    0    0
SMALL
NO_CHARGES


@<TRIPOS>ATOM
   1 C1            -1.2411     0.9855    -1.3462 C.3     
   2 C2            -1.1011    -0.5191    -1.1063 C.3     
   3 C3            -2.4882    -1.1371    -0.9195 C.3     
   4 C4            -2.3481    -2.6416    -0.6796 C.3     
   5 C5            -3.7352    -3.2596    -0.4928 C.3     
   6 C6            -3.5972    -4.7416    -0.2565 C.2     
   7 C7            -3.9749    -5.2607     0.8854 C.2     
   8 C8            -4.3819    -4.3614     2.0241 C.3     
   9 C9            -5.8348    -4.5917     2.3515 C.2     
  10 C10           -6.1930    -4.8709     3.5802 C.2     
  11 C11           -5.1824    -4.7950     4.6955 C.3     
  12 C12           -5.7268    -3.9380     5.8092 C.2     
  13 C13           -5.7634    -4.4012     7.0340 C.2     
  14 C14           -5.1085    -5.7184     7.3614 C.3     
  15 C15           -4.1830    -5.5407     8.5374 C.2     
  16 C16           -4.3607    -6.2506     9.6239 C.2     
  17 C17           -5.5834    -7.1203     9.7641 C.3     
  18 C18           -5.1555    -8.5816     9.9140 C.3     
  19 C19           -6.3968    -9.4646    10.0564 C.3     
  20 C20           -5.9753   -10.9038    10.2040 C.2     
  21 O21           -4.7978   -11.1948    10.1962 O.2     
  22 N22           -6.9066   -11.8678    10.3448 N.am    
  23 C23           -6.5139   -13.1951    10.5617 C.ar    
  24 C24           -5.3614   -13.4689    11.2859 C.ar    
  25 C25           -4.9751   -14.7773    11.4997 C.ar    
  26 C26           -5.7382   -15.8180    10.9910 C.ar    
  27 C27           -6.8896   -15.5452    10.2669 C.ar    
  28 C28           -7.2801   -14.2374    10.0573 C.ar    
  29 O29           -5.3573   -17.1062    11.2019 O.3     
  30 H30           -0.2529     1.4257    -1.4793 H       
  31 H31           -1.8387     1.1565    -2.2416 H       
  32 H32           -1.7316     1.4460    -0.4886 H       
  33 H33           -0.6106    -0.9797    -1.9639 H       
  34 H34           -0.5035    -0.6902    -0.2109 H       
  35 H35           -2.9786    -0.6765    -0.0619 H       
  36 H36           -3.0858    -0.9660    -1.8149 H       
  37 H37           -1.8577    -3.1022    -1.5372 H       
  38 H38           -1.7505    -2.8127     0.2158 H       
  39 H39           -4.2257    -2.7991     0.3648 H       
  40 H40           -4.3328    -3.0885    -1.3882 H       
  41 H41           -3.1870    -5.3756    -1.0286 H       
  42 H42           -3.9945    -6.3332     1.0108 H       
  43 H43           -3.7723    -4.5851     2.8996 H       
  44 H44           -4.2351    -3.3206     1.7355 H       
  45 H45           -6.5806    -4.5266     1.5731 H       
  46 H46           -7.2127    -5.1556     3.7940 H       
  47 H47           -4.9821    -5.7976     5.0733 H       
  48 H48           -4.2579    -4.3572     4.3189 H       
  49 H49           -6.0867    -2.9420     5.5976 H       
  50 H50           -6.2629    -3.8391     7.8092 H       
  51 H51           -5.8743    -6.4532     7.6095 H       
  52 H52           -4.5383    -6.0648     6.4994 H       
  53 H53           -3.3732    -4.8281     8.4844 H       
  54 H54           -3.6310    -6.2126    10.4192 H       
  55 H55           -6.1476    -6.8147    10.6453 H       
  56 H56           -6.2086    -7.0139     8.8776 H       
  57 H57           -4.5913    -8.8872     9.0328 H       
  58 H58           -4.5303    -8.6880    10.8006 H       
  59 H59           -6.9610    -9.1590    10.9375 H       
  60 H60           -7.0220    -9.3582     9.1698 H       
  61 H61           -7.8489   -11.6426    10.2959 H       
  62 H62           -4.7669   -12.6587    11.6817 H       
  63 H63           -4.0784   -14.9903    12.0628 H       
  64 H64           -7.4829   -16.3559     9.8706 H       
  65 H65           -8.1767   -14.0251     9.4939 H       
  66 H66           -5.7201   -17.4965    12.0088 H       
@<TRIPOS>BOND
   1    1    2 1
   2    1   30 1
   3    1   31 1
   4    1   32 1
   5    2    3 1
   6    2   33 1
   7    2   34 1
   8    3    4 1
   9    3   35 1
  10    3   36 1
  11    4    5 1
  12    4   37 1
  13    4   38 1
  14    5    6 1
  15    5   39 1
  16    5   40 1
  17    6    7 2
  18    6   41 1
  19    7    8 1
  20    7   42 1
  21    8    9 1
  22    8   43 1
  23    8   44 1
  24    9   10 2
  25    9   45 1
  26   10   11 1
  27   10   46 1
  28   11   12 1
  29   11   47 1
  30   11   48 1
  31   12   13 2
  32   12   49 1
  33   13   14 1
  34   13   50 1
  35   14   15 1
  36   14   51 1
  37   14   52 1
  38   15   16 2
  39   15   53 1
  40   16   17 1
  41   16   54 1
  42   17   18 1
  43   17   55 1
  44   17   56 1
  45   18   19 1
  46   18   57 1
  47   18   58 1
  48   19   20 1
  49   19   59 1
  50   19   60 1
  51   20   21 2
  52   20   22 am
  53   22   23 1
  54   22   61 1
  55   23   24 ar
  56   23   28 ar
  57   24   25 ar
  58   24   62 1
  59   25   26 ar
  60   25   63 1
  61   26   27 ar
  62   26   29 1
  63   27   28 ar
  64   27   64 1
  65   28   65 1
  66   29   66 1

#	End of record

