#	Name: ASD00431002
#	Creating user name:	WinNT
#	Creation time:	15. 06. 2019 18:35

#	Modifying user name:	WinNT
#	Modification time:	15. 06. 2019 18:35

#	Program:	/corina/corina34_cracker 3.40 0067  02.08.2006

@<TRIPOS>MOLECULE
ASD00431002
  26   26    0    0    0
SMALL
NO_CHARGES


@<TRIPOS>ATOM
   1 C1            -0.0184     1.5085     0.0103 C.3     
   2 C2             0.0021    -0.0041     0.0020 C.2     
   3 C3             0.8535    -0.7154     1.0303 C.3     
   4 C4             0.9059    -2.1877     0.7130 C.2     
   5 O5            -0.6450    -0.6277    -0.8046 O.2     
   6 O6             1.9672    -2.7201     0.4893 O.2     
   7 C7             1.4276     2.0153    -0.0007 C.3     
   8 C8             2.1946     1.3890     1.1650 C.3     
   9 C9             2.2679    -0.1279     0.9822 C.3     
  10 O10           -0.2265    -2.9076     0.6788 O.3     
  11 C11           -1.4858    -4.9695     0.3738 C.3     
  12 C12           -0.1005    -4.3200     0.3666 C.3     
  13 H13           -0.5407     1.8724    -0.8744 H       
  14 H14           -0.5237     1.8628     0.9088 H       
  15 H15            0.4270    -0.5698     2.0227 H       
  16 H16            1.9034     1.7362    -0.9408 H       
  17 H17            1.4332     3.1005     0.1016 H       
  18 H18            3.2039     1.7993     1.1968 H       
  19 H19            1.6824     1.6169     2.0998 H       
  20 H20            2.8691    -0.5617     1.7812 H       
  21 H21            2.7239    -0.3563     0.0189 H       
  22 H22           -1.9360    -4.8541     1.3597 H       
  23 H23           -2.1170    -4.4872    -0.3726 H       
  24 H24           -1.3912    -6.0298     0.1393 H       
  25 H25            0.3498    -4.4354    -0.6194 H       
  26 H26            0.5308    -4.8023     1.1129 H       
@<TRIPOS>BOND
   1    1    2 1
   2    1    7 1
   3    1   13 1
   4    1   14 1
   5    2    3 1
   6    2    5 2
   7    3    4 1
   8    3    9 1
   9    3   15 1
  10    4    6 2
  11    4   10 1
  12    7    8 1
  13    7   16 1
  14    7   17 1
  15    8    9 1
  16    8   18 1
  17    8   19 1
  18    9   20 1
  19    9   21 1
  20   10   12 1
  21   11   12 1
  22   11   22 1
  23   11   23 1
  24   11   24 1
  25   12   25 1
  26   12   26 1

#	End of record

