#	Name: ASD05720289
#	Creating user name:	WinNT
#	Creation time:	15. 06. 2019 21:02

#	Modifying user name:	WinNT
#	Modification time:	15. 06. 2019 21:02

#	Program:	/corina/corina34_cracker 3.40 0067  02.08.2006

@<TRIPOS>MOLECULE
ASD05720289
  60   64    0    0    0
SMALL
NO_CHARGES


@<TRIPOS>ATOM
   1 C1             0.5116     1.0241     1.1162 C.2     
   2 N2             0.4120    -0.2388     0.6810 N.am    
   3 C3             1.6580    -0.6134    -0.0042 C.3     
   4 C4             2.5297     0.6535     0.0959 C.3     
   5 N5             1.6822     1.6074     0.8269 N.am    
   6 O6            -0.3815     1.5912     1.7151 O.2     
   7 C7             1.3821    -0.9611    -1.4684 C.3     
   8 C8             0.5227    -2.2250    -1.5392 C.3     
   9 C9             0.6402     0.1981    -2.1368 C.3     
  10 N10            0.2807     3.8997     1.7808 N.3     
  11 C11            1.1385     4.0555     0.5913 C.3     
  12 C12            2.0584     2.9779     1.1823 C.3     
  13 C13            1.4799     3.4619     2.5193 C.3     
  14 C14           -1.6780    -3.1431     0.6624 C.2     
  15 N15           -0.6244    -2.3356     0.5059 N.2     
  16 C16           -0.6924    -1.0633     0.8501 C.2     
  17 C17           -1.8855    -0.5410     1.3897 C.2     
  18 C18           -2.9534    -1.3552     1.5494 C.2     
  19 N19           -2.8526    -2.6688     1.1836 N.pl3   
  20 N20           -3.7639    -3.7299     1.2270 N.2     
  21 C21           -3.1916    -4.8114     0.7582 C.2     
  22 C22           -1.8788    -4.5013     0.3822 C.2     
  23 C23           -0.8881    -5.4342    -0.1999 C.ar    
  24 C24           -0.6490    -6.6678     0.4083 C.ar    
  25 C25            0.2725    -7.5354    -0.1341 C.ar    
  26 C26            0.9673    -7.1817    -1.2906 C.ar    
  27 C27            0.7289    -5.9493    -1.8988 C.ar    
  28 C28           -0.1965    -5.0832    -1.3608 C.ar    
  29 N29            3.4789    -9.0342    -3.1449 N.pl3   
  30 N30            2.6756    -7.8979    -2.9559 N.2     
  31 C31            1.9604    -8.1162    -1.8737 C.2     
  32 N32            2.2780    -9.3231    -1.3855 N.2     
  33 C33            3.1871    -9.8804    -2.1409 C.2     
  34 H34            2.1381    -1.4493     0.5046 H       
  35 H35            3.4426     0.4467     0.6544 H       
  36 H36            2.7659     1.0348    -0.8975 H       
  37 H37            2.3262    -1.1343    -1.9849 H       
  38 H38           -0.4944    -1.9908    -1.2252 H       
  39 H39            0.5099    -2.5988    -2.5631 H       
  40 H40            0.9405    -2.9858    -0.8799 H       
  41 H41           -0.3039     0.3713    -1.6203 H       
  42 H42            1.2525     1.0985    -2.0864 H       
  43 H43            0.4436    -0.0496    -3.1799 H       
  44 H44           -0.0420     4.7958     2.1138 H       
  45 H45            0.6539     3.7516    -0.3365 H       
  46 H46            1.6085     5.0364     0.5204 H       
  47 H47            3.1219     3.1794     1.0536 H       
  48 H48            2.0409     4.2844     2.9629 H       
  49 H49            1.2844     2.6549     3.2254 H       
  50 H50           -1.9460     0.4994     1.6732 H       
  51 H51           -3.8753    -0.9723     1.9615 H       
  52 H52           -3.6572    -5.7821     0.6724 H       
  53 H53           -1.1864    -6.9415     1.3042 H       
  54 H54            0.4576    -8.4898     0.3363 H       
  55 H55            1.2673    -5.6761    -2.7943 H       
  56 H56           -0.3839    -4.1307    -1.8341 H       
  57 H57            4.1161    -9.1817    -3.8613 H       
  58 H58            3.6286   -10.8538    -1.9856 H       
  59 Cl59           9.1161    10.0364     8.2254 Cl      
  60 H60            9.1161    11.4064     8.2254 H       
@<TRIPOS>BOND
   1    1    2 am
   2    1    5 am
   3    1    6 2
   4    2    3 1
   5    2   16 1
   6    3    4 1
   7    3    7 1
   8    3   34 1
   9    4    5 1
  10    4   35 1
  11    4   36 1
  12    5   12 1
  13    7    8 1
  14    7    9 1
  15    7   37 1
  16    8   38 1
  17    8   39 1
  18    8   40 1
  19    9   41 1
  20    9   42 1
  21    9   43 1
  22   10   11 1
  23   10   13 1
  24   10   44 1
  25   11   12 1
  26   11   45 1
  27   11   46 1
  28   12   13 1
  29   12   47 1
  30   13   48 1
  31   13   49 1
  32   14   15 1
  33   14   19 1
  34   14   22 2
  35   15   16 2
  36   16   17 1
  37   17   18 2
  38   17   50 1
  39   18   19 1
  40   18   51 1
  41   19   20 1
  42   20   21 2
  43   21   22 1
  44   21   52 1
  45   22   23 1
  46   23   24 ar
  47   23   28 ar
  48   24   25 ar
  49   24   53 1
  50   25   26 ar
  51   25   54 1
  52   26   27 ar
  53   26   31 1
  54   27   28 ar
  55   27   55 1
  56   28   56 1
  57   29   30 1
  58   29   33 1
  59   29   57 1
  60   30   31 2
  61   31   32 1
  62   32   33 2
  63   33   58 1
  64   59   60 1

#	End of record

