#	Name: ASD05720121
#	Creating user name:	WinNT
#	Creation time:	15. 06. 2019 21:01

#	Modifying user name:	WinNT
#	Modification time:	15. 06. 2019 21:01

#	Program:	/corina/corina34_cracker 3.40 0067  02.08.2006

@<TRIPOS>MOLECULE
ASD05720121
  70   74    0    0    0
SMALL
NO_CHARGES


@<TRIPOS>ATOM
   1 O1             0.0579     2.8224    -0.7484 O.3     
   2 C2            -0.1157     1.5029    -0.6135 C.2     
   3 N3             1.0289     0.8076    -0.5672 N.am    
   4 C4             2.1587     1.7423    -0.6830 C.3     
   5 C5             1.4827     3.1214    -0.8068 C.3     
   6 O6            -1.2111     0.9826    -0.5392 O.2     
   7 C7             2.9849     1.4345    -1.9335 C.3     
   8 C8             2.0912     1.5308    -3.1716 C.3     
   9 C9             4.1287     2.4439    -2.0503 C.3     
  10 C10            2.4305    -2.4785    -0.3669 C.2     
  11 N11            2.3139    -1.1535    -0.4961 N.2     
  12 C12            1.1315    -0.5705    -0.4313 C.2     
  13 C13           -0.0270    -1.3463    -0.2237 C.2     
  14 C14            0.0876    -2.6875    -0.0925 C.2     
  15 N15            1.3259    -3.2623    -0.1642 N.pl3   
  16 N16            1.7526    -4.5917    -0.0687 N.2     
  17 C17            3.0548    -4.6393    -0.2042 C.2     
  18 C18            3.5367    -3.3388    -0.3997 C.2     
  19 C19            4.9488    -2.9465    -0.6015 C.ar    
  20 C20            5.9331    -3.4084     0.2747 C.ar    
  21 C21            7.2494    -3.0440     0.0877 C.ar    
  22 C22            7.5989    -2.2110    -0.9806 C.ar    
  23 C23            6.6116    -1.7489    -1.8577 C.ar    
  24 C24            5.2969    -2.1192    -1.6712 C.ar    
  25 N25           10.0657    -2.6603    -1.2707 N.pl3   
  26 N26           11.1972    -1.8506    -1.4605 N.2     
  27 C27           10.7825    -0.6106    -1.4762 C.2     
  28 N28            9.4629    -0.5876    -1.3085 N.2     
  29 C29            9.0086    -1.8193    -1.1821 C.2     
  30 C30           10.0346    -4.1228    -1.1911 C.3     
  31 O31           10.3494    -4.5341     0.1407 O.3     
  32 C32           10.3464    -5.9508     0.3275 C.3     
  33 C33           10.6945    -6.2742     1.7819 C.3     
  34 Si34          10.6905    -8.1212     2.0254 Si      
  35 C35           11.9525    -8.8991     0.8971 C.3     
  36 C36           11.1144    -8.5150     3.7963 C.3     
  37 C37            9.0007    -8.7966     1.6264 C.3     
  38 F38            6.9473    -0.9443    -2.8898 F       
  39 F39            8.2014    -3.4908     0.9358 F       
  40 H40            2.7831     1.7006     0.2094 H       
  41 H41            1.7367     3.5873    -1.7589 H       
  42 H42            1.7725     3.7649     0.0239 H       
  43 H43            3.3952     0.4274    -1.8591 H       
  44 H44            1.3219     0.7600    -3.1254 H       
  45 H45            1.6198     2.5131    -3.2039 H       
  46 H46            2.6952     1.3881    -4.0677 H       
  47 H47            4.8119     2.3176    -1.2105 H       
  48 H48            4.6660     2.2778    -2.9840 H       
  49 H49            3.7230     3.4555    -2.0396 H       
  50 H50           -0.9968    -0.8741    -0.1695 H       
  51 H51           -0.7892    -3.2975     0.0674 H       
  52 H52            3.6575    -5.5350    -0.1739 H       
  53 H53            5.6629    -4.0512     1.0994 H       
  54 H54            4.5351    -1.7661    -2.3505 H       
  55 H55           11.4118     0.2577    -1.6043 H       
  56 H56            9.0394    -4.4800    -1.4561 H       
  57 H57           10.7664    -4.5400    -1.8828 H       
  58 H58            9.3577    -6.3460     0.0941 H       
  59 H59           11.0847    -6.4059    -0.3327 H       
  60 H60           11.6831    -5.8791     2.0153 H       
  61 H61            9.9561    -5.8191     2.4420 H       
  62 H62           12.9412    -8.5039     1.1305 H       
  63 H63           11.9502    -9.9797     1.0395 H       
  64 H64           11.7045    -8.6687    -0.1390 H       
  65 H65           10.3761    -8.0599     4.4565 H       
  66 H66           11.1121    -9.5957     3.9388 H       
  67 H67           12.1031    -8.1199     4.0297 H       
  68 H68            8.7527    -8.5662     0.5903 H       
  69 H69            8.9984    -9.8773     1.7689 H       
  70 H70            8.2624    -8.3415     2.2866 H       
@<TRIPOS>BOND
   1    1    2 1
   2    1    5 1
   3    2    3 am
   4    2    6 2
   5    3    4 1
   6    3   12 1
   7    4    5 1
   8    4    7 1
   9    4   40 1
  10    5   41 1
  11    5   42 1
  12    7    8 1
  13    7    9 1
  14    7   43 1
  15    8   44 1
  16    8   45 1
  17    8   46 1
  18    9   47 1
  19    9   48 1
  20    9   49 1
  21   10   11 1
  22   10   15 1
  23   10   18 2
  24   11   12 2
  25   12   13 1
  26   13   14 2
  27   13   50 1
  28   14   15 1
  29   14   51 1
  30   15   16 1
  31   16   17 2
  32   17   18 1
  33   17   52 1
  34   18   19 1
  35   19   20 ar
  36   19   24 ar
  37   20   21 ar
  38   20   53 1
  39   21   22 ar
  40   21   39 1
  41   22   23 ar
  42   22   29 1
  43   23   24 ar
  44   23   38 1
  45   24   54 1
  46   25   26 1
  47   25   29 1
  48   25   30 1
  49   26   27 2
  50   27   28 1
  51   27   55 1
  52   28   29 2
  53   30   31 1
  54   30   56 1
  55   30   57 1
  56   31   32 1
  57   32   33 1
  58   32   58 1
  59   32   59 1
  60   33   34 1
  61   33   60 1
  62   33   61 1
  63   34   35 1
  64   34   36 1
  65   34   37 1
  66   35   62 1
  67   35   63 1
  68   35   64 1
  69   36   65 1
  70   36   66 1
  71   36   67 1
  72   37   68 1
  73   37   69 1
  74   37   70 1

#	End of record

