#	Name: ASD02500916
#	Creating user name:	WinNT
#	Creation time:	15. 06. 2019 20:23

#	Modifying user name:	WinNT
#	Modification time:	15. 06. 2019 20:23

#	Program:	/corina/corina34_cracker 3.40 0067  02.08.2006

@<TRIPOS>MOLECULE
ASD02500916
  40   43    0    0    0
SMALL
NO_CHARGES


@<TRIPOS>ATOM
   1 C1            -0.0170     1.4039     0.0098 C.2     
   2 C2             0.0021    -0.0041     0.0020 C.2     
   3 C3            -1.2756    -0.7348     0.0127 C.ar    
   4 C4            -2.4434     0.0222    -0.2105 C.ar    
   5 O5            -2.3812     1.3521    -0.4531 O.3     
   6 C6            -1.3398     2.0750     0.0202 C.2     
   7 C7            -1.3496    -2.1052     0.2332 C.ar    
   8 C8            -2.5812    -2.7265     0.2437 C.ar    
   9 C9            -3.7346    -1.9855     0.0366 C.ar    
  10 C10           -3.6720    -0.6263    -0.1882 C.ar    
  11 C11            1.2453     1.9594     0.0007 C.2     
  12 C12            2.2477     1.0545    -0.0157 C.2     
  13 S13            1.5941    -0.5777    -0.0192 S.3     
  14 C14            3.6769     1.3858    -0.0286 C.2     
  15 N15            4.5968     0.4010    -0.0446 N.am    
  16 O16            4.0317     2.5498    -0.0249 O.2     
  17 O17           -1.4806     3.2101     0.4349 O.2     
  18 C18            6.0239     0.7318    -0.0575 C.3     
  19 C19            6.8223    -0.4304     0.5364 C.3     
  20 C20            8.3127    -0.0849     0.5229 C.3     
  21 C21            8.7660     0.1619    -0.9174 C.3     
  22 C22            7.9676     1.3242    -1.5113 C.3     
  23 C23            6.4772     0.9787    -1.4978 C.3     
  24 H24           -0.4493    -2.6795     0.3948 H       
  25 H25           -2.6471    -3.7911     0.4130 H       
  26 H26           -4.6949    -2.4794     0.0510 H       
  27 H27           -4.5805    -0.0642    -0.3467 H       
  28 H28            1.4174     3.0256     0.0058 H       
  29 H29            4.3140    -0.5269    -0.0475 H       
  30 H30            6.1940     1.6302     0.5360 H       
  31 H31            6.4994    -0.6063     1.5625 H       
  32 H32            6.6522    -1.3288    -0.0571 H       
  33 H33            8.4828     0.8134     1.1163 H       
  34 H34            8.8815    -0.9129     0.9459 H       
  35 H35            9.8278     0.4081    -0.9270 H       
  36 H36            8.5959    -0.7364    -1.5109 H       
  37 H37            8.1377     2.2225    -0.9178 H       
  38 H38            8.2906     1.5001    -2.5374 H       
  39 H39            6.3071     0.0803    -2.0912 H       
  40 H40            5.9084     1.8067    -1.9208 H       
@<TRIPOS>BOND
   1    1    2 2
   2    1   11 1
   3    1    6 1
   4    2    3 1
   5    2   13 1
   6    3    4 ar
   7    3    7 ar
   8    4    5 1
   9    4   10 ar
  10    5    6 1
  11    6   17 2
  12    7    8 ar
  13    7   24 1
  14    8    9 ar
  15    8   25 1
  16    9   10 ar
  17    9   26 1
  18   10   27 1
  19   11   12 2
  20   11   28 1
  21   12   13 1
  22   12   14 1
  23   14   15 am
  24   14   16 2
  25   15   18 1
  26   15   29 1
  27   18   19 1
  28   18   23 1
  29   18   30 1
  30   19   20 1
  31   19   31 1
  32   19   32 1
  33   20   21 1
  34   20   33 1
  35   20   34 1
  36   21   22 1
  37   21   35 1
  38   21   36 1
  39   22   23 1
  40   22   37 1
  41   22   38 1
  42   23   39 1
  43   23   40 1

#	End of record

