#	Name: ASD00990032
#	Creating user name:	WinNT
#	Creation time:	15. 06. 2019 18:54

#	Modifying user name:	WinNT
#	Modification time:	15. 06. 2019 18:54

#	Program:	/corina/corina34_cracker 3.40 0067  02.08.2006

@<TRIPOS>MOLECULE
ASD00990032
  18   19    0    0    0
SMALL
NO_CHARGES


@<TRIPOS>ATOM
   1 C1            -0.0167     1.3799     0.0096 C.ar    
   2 C2             0.0021    -0.0041     0.0020 C.ar    
   3 C3            -1.1807    -0.7173     0.0095 C.ar    
   4 C4            -2.3931    -0.0455     0.0247 C.ar    
   5 C5            -2.4109     1.3490     0.0323 C.ar    
   6 C6            -1.2199     2.0580     0.0305 C.ar    
   7 O7            -3.6822    -0.4647     0.0347 O.3     
   8 C8            -4.4935     0.6046     0.0482 C.2     
   9 N9            -3.7523     1.7303     0.0472 N.am    
  10 O10           -5.7087     0.5639     0.0590 O.2     
  11 C11            1.2793     2.1490     0.0014 C.3     
  12 F12            2.3533     1.2527    -0.0137 F       
  13 F13            1.3328     2.9602    -1.1371 F       
  14 F14            1.3547     2.9480     1.1473 F       
  15 H15            0.9460    -0.5287    -0.0102 H       
  16 H16           -1.1609    -1.7971     0.0031 H       
  17 H17           -1.2326     3.1379     0.0364 H       
  18 H18           -4.0902     2.6395     0.0559 H       
@<TRIPOS>BOND
   1    1    2 ar
   2    1   11 1
   3    1    6 ar
   4    2    3 ar
   5    2   15 1
   6    3    4 ar
   7    3   16 1
   8    4    5 ar
   9    4    7 1
  10    5    6 ar
  11    5    9 1
  12    6   17 1
  13    7    8 1
  14    8    9 am
  15    8   10 2
  16    9   18 1
  17   11   12 1
  18   11   13 1
  19   11   14 1

#	End of record

