#	Name: ASD00111110
#	Creating user name:	WinNT
#	Creation time:	15. 06. 2019 18:30

#	Modifying user name:	WinNT
#	Modification time:	15. 06. 2019 18:30

#	Program:	/corina/corina34_cracker 3.40 0067  02.08.2006

@<TRIPOS>MOLECULE
ASD00111110
  39   40    0    0    0
SMALL
NO_CHARGES


@<TRIPOS>ATOM
   1 N1            -0.0128     1.2279    -0.2796 N.am    
   2 C2             0.3154    -0.2055    -0.3481 C.3     
   3 C3             0.9297    -0.6010     0.9930 C.3     
   4 C4             2.4119    -0.3330     1.0481 C.ar    
   5 C5             3.0475     0.6784     0.3632 C.ar    
   6 C6             2.3351     1.5762    -0.6098 C.3     
   7 C7             1.0664     2.1738     0.0034 C.3     
   8 C8             4.4102     0.8835     0.5376 C.ar    
   9 C9             5.1505     0.0526     1.3597 C.ar    
  10 C10            4.5190    -0.9938     2.0177 C.ar    
  11 C11            3.1627    -1.1780     1.8625 C.ar    
  12 O12            6.4842     0.2588     1.5211 O.3     
  13 C13            7.0618     1.3557     0.8104 C.3     
  14 C14            0.7599     3.5278    -0.6398 C.3     
  15 C15            0.2413     0.1914     2.1061 C.3     
  16 Br16           5.5160    -2.1614     3.1215 Br      
  17 C17           -1.2746     1.6582    -0.4781 C.2     
  18 O18           -1.5464     2.8304    -0.3267 O.2     
  19 C19           -2.3476     0.6827    -0.8883 C.3     
  20 F20           -3.5632     1.3600    -1.0323 F       
  21 F21           -1.9975     0.0890    -2.1057 F       
  22 F22           -2.4782    -0.3064     0.0924 F       
  23 H23           -0.5909    -0.7847    -0.5252 H       
  24 H24            1.0318    -0.3833    -1.1501 H       
  25 H25            0.7569    -1.6641     1.1605 H       
  26 H26            3.0040     2.3852    -0.9035 H       
  27 H27            2.0655     0.9996    -1.4947 H       
  28 H28            1.1899     2.2892     1.0802 H       
  29 H29            4.8972     1.7003     0.0257 H       
  30 H30            2.6738    -1.9901     2.3802 H       
  31 H31            6.9151     1.2127    -0.2602 H       
  32 H32            6.5822     2.2836     1.1221 H       
  33 H33            8.1288     1.4077     1.0271 H       
  34 H34           -0.0540     4.0109    -0.0992 H       
  35 H35            1.6479     4.1587    -0.5991 H       
  36 H36            0.4675     3.3785    -1.6792 H       
  37 H37           -0.8383     0.0631     2.0292 H       
  38 H38            0.5823    -0.1724     3.0754 H       
  39 H39            0.4897     1.2481     2.0068 H       
@<TRIPOS>BOND
   1    1    2 1
   2    1    7 1
   3    1   17 am
   4    2    3 1
   5    2   23 1
   6    2   24 1
   7    3    4 1
   8    3   15 1
   9    3   25 1
  10    4    5 ar
  11    4   11 ar
  12    5    6 1
  13    5    8 ar
  14    6    7 1
  15    6   26 1
  16    6   27 1
  17    7   14 1
  18    7   28 1
  19    8    9 ar
  20    8   29 1
  21    9   10 ar
  22    9   12 1
  23   10   11 ar
  24   10   16 1
  25   11   30 1
  26   12   13 1
  27   13   31 1
  28   13   32 1
  29   13   33 1
  30   14   34 1
  31   14   35 1
  32   14   36 1
  33   15   37 1
  34   15   38 1
  35   15   39 1
  36   17   18 2
  37   17   19 1
  38   19   20 1
  39   19   21 1
  40   19   22 1

#	End of record

