#	Name: ASD02320033
#	Creating user name:	WinNT
#	Creation time:	15. 06. 2019 20:20

#	Modifying user name:	WinNT
#	Modification time:	15. 06. 2019 20:20

#	Program:	/corina/corina34_cracker 3.40 0067  02.08.2006

@<TRIPOS>MOLECULE
ASD02320033
 103  109    0    0    0
SMALL
NO_CHARGES


@<TRIPOS>ATOM
   1 C1            22.7272   -12.9223   -17.2481 C.ar    
   2 C2            21.4367   -13.2309   -16.8817 C.ar    
   3 C3            21.0023   -12.9589   -15.5811 C.ar    
   4 C4            21.8995   -12.3693   -14.6609 C.ar    
   5 C5            23.2009   -12.0654   -15.0533 C.ar    
   6 C6            23.6051   -12.3433   -16.3413 C.ar    
   7 N7            19.7469   -13.2456   -15.1837 N.2     
   8 C8            19.3362   -12.9922   -13.9675 C.2     
   9 N9            20.1354   -12.4239   -13.0128 N.am    
  10 C10           21.4162   -12.0935   -13.2995 C.2     
  11 C11           17.9456   -13.3350   -13.6083 C.ar    
  12 C12           17.5192   -14.6648   -13.6553 C.ar    
  13 C13           17.0544   -12.3273   -13.2146 C.ar    
  14 C14           15.7522   -12.6546   -12.8786 C.ar    
  15 C15           15.3351   -13.9870   -12.9343 C.ar    
  16 C16           16.2342   -14.9866   -13.3241 C.ar    
  17 O17           22.1405   -11.5874   -12.4625 O.2     
  18 C18           19.6011   -12.1715   -11.6722 C.3     
  19 C19           19.7943   -13.4162   -10.8036 C.3     
  20 C20           19.2364   -13.1527    -9.4036 C.3     
  21 C21           19.4295   -14.3973    -8.5350 C.3     
  22 N22           18.8953   -14.1450    -7.1944 N.pl3   
  23 N23           19.2259   -13.1699    -6.4220 N.2     
  24 N24           18.5718   -13.2380    -5.3165 N.2     
  25 C25           17.7686   -14.3072    -5.3538 C.2     
  26 C26           17.9651   -14.8936    -6.5577 C.2     
  27 C27           16.8263   -14.7653    -4.2707 C.3     
  28 O28           16.1484   -15.9484    -4.6982 O.3     
  29 C29           15.3309   -16.5523    -3.7945 C.ar    
  30 C30           14.7331   -17.7735    -4.1024 C.ar    
  31 C31           15.0975   -15.9583    -2.5694 C.ar    
  32 C32           14.2566   -16.5819    -1.6428 C.ar    
  33 C33           13.6563   -17.8030    -1.9605 C.ar    
  34 C34           13.8981   -18.3924    -3.1832 C.ar    
  35 C35           14.0041   -15.9528    -0.3333 C.2     
  36 O36           13.9345   -16.7347     0.7577 O.3     
  37 C37           13.7070   -16.2348     1.9904 C.ar    
  38 C38           13.5341   -14.8501     2.1629 C.ar    
  39 C39           13.6079   -13.9795     0.9788 C.2     
  40 C40           13.8556   -14.5997    -0.2733 C.2     
  41 C41           13.6409   -17.0721     3.0933 C.ar    
  42 C42           13.4062   -16.5433     4.3531 C.ar    
  43 C43           13.2344   -15.1743     4.5265 C.ar    
  44 C44           13.2969   -14.3230     3.4389 C.ar    
  45 O45           13.4649   -12.7707     1.0705 O.2     
  46 O46           13.9359   -13.8499    -1.4062 O.3     
  47 S47           12.6335   -13.1594    -1.7851 S.o2    
  48 O48           12.1542   -12.5309    -0.6042 O.2     
  49 O49           12.8896   -12.4541    -2.9918 O.2     
  50 O50           11.6291   -14.2499    -2.1295 O.3     
  51 Na51          10.9036   -15.2116    -0.5455 Du      
  52 O52           14.9684   -18.3588    -5.3059 O.3     
  53 S53           16.1675   -19.2961    -5.3145 S.o2    
  54 O54           16.3866   -19.6549    -6.6719 O.2     
  55 O55           17.1604   -18.6849    -4.5022 O.2     
  56 O56           15.7485   -20.5704    -4.5954 O.3     
  57 Na57          14.5537   -21.7483    -5.6656 Du      
  58 O58           13.3430   -17.3701     5.4280 O.3     
  59 S59           14.6832   -17.6004     6.1116 S.o2    
  60 O60           14.4733   -18.6281     7.0702 O.2     
  61 O61           15.6519   -17.6897     5.0758 O.2     
  62 O62           15.0102   -16.3392     6.8983 O.3     
  63 Na63          13.9537   -16.1324     8.5720 Du      
  64 O64           13.1291   -12.9867     3.6063 O.3     
  65 C65           12.8905   -12.5244     4.9372 C.3     
  66 O66           17.4671   -11.0351   -13.1625 O.3     
  67 S67           17.2698   -10.2694   -14.4630 S.o2    
  68 O68           17.9287    -9.0213   -14.2976 O.2     
  69 O69           17.5755   -11.1765   -15.5131 O.2     
  70 O70           15.7846    -9.9588   -14.5821 O.3     
  71 Na71          15.1644    -8.4976   -13.3820 Du      
  72 C72           13.9509   -14.3403   -12.5779 C.2     
  73 O73           13.1732   -13.4752   -12.2362 O.2     
  74 C74           13.5008   -15.7773   -12.6379 C.3     
  75 H75           23.0624   -13.1373   -18.2520 H       
  76 H76           20.7628   -13.6808   -17.5958 H       
  77 H77           23.8885   -11.6146   -14.3530 H       
  78 H78           24.6137   -12.1087   -16.6481 H       
  79 H79           18.2082   -15.4406   -13.9550 H       
  80 H80           15.0609   -11.8827   -12.5741 H       
  81 H81           15.9093   -16.0157   -13.3666 H       
  82 H82           20.1286   -11.3299   -11.2234 H       
  83 H83           18.5386   -11.9388   -11.7424 H       
  84 H84           19.2668   -14.2579   -11.2524 H       
  85 H85           20.8568   -13.6490   -10.7334 H       
  86 H86           19.7638   -12.3110    -8.9547 H       
  87 H87           18.1738   -12.9199    -9.4737 H       
  88 H88           18.9020   -15.2390    -8.9838 H       
  89 H89           20.4920   -14.6301    -8.4648 H       
  90 H90           17.4812   -15.7835    -6.9325 H       
  91 H91           17.3915   -14.9781    -3.3634 H       
  92 H92           16.0964   -13.9813    -4.0686 H       
  93 H93           15.5639   -15.0145    -2.3278 H       
  94 H94           13.0061   -18.2871    -1.2468 H       
  95 H95           13.4333   -19.3361    -3.4278 H       
  96 H96           13.7721   -18.1371     2.9710 H       
  97 H97           13.0519   -14.7751     5.5133 H       
  98 H98           11.9813   -12.9844     5.3241 H       
  99 H99           13.7337   -12.7955     5.5726 H       
 100 H100          12.7747   -11.4406     4.9301 H       
 101 H101          13.6775   -16.2539   -11.6736 H       
 102 H102          12.4370   -15.8153   -12.8725 H       
 103 H103          14.0623   -16.3020   -13.4108 H       
@<TRIPOS>BOND
   1    1    2 ar
   2    1    6 ar
   3    1   75 1
   4    2    3 ar
   5    2   76 1
   6    3    4 ar
   7    3    7 1
   8    4    5 ar
   9    4   10 1
  10    5    6 ar
  11    5   77 1
  12    6   78 1
  13    7    8 2
  14    8    9 1
  15    8   11 1
  16    9   10 am
  17    9   18 1
  18   10   17 2
  19   11   12 ar
  20   11   13 ar
  21   12   16 ar
  22   12   79 1
  23   13   14 ar
  24   13   66 1
  25   14   15 ar
  26   14   80 1
  27   15   16 ar
  28   15   72 1
  29   16   81 1
  30   18   19 1
  31   18   82 1
  32   18   83 1
  33   19   20 1
  34   19   84 1
  35   19   85 1
  36   20   21 1
  37   20   86 1
  38   20   87 1
  39   21   22 1
  40   21   88 1
  41   21   89 1
  42   22   23 1
  43   22   26 1
  44   23   24 2
  45   24   25 1
  46   25   26 2
  47   25   27 1
  48   26   90 1
  49   27   28 1
  50   27   91 1
  51   27   92 1
  52   28   29 1
  53   29   30 ar
  54   29   31 ar
  55   30   52 1
  56   30   34 ar
  57   31   32 ar
  58   31   93 1
  59   32   33 ar
  60   32   35 1
  61   33   34 ar
  62   33   94 1
  63   34   95 1
  64   35   36 1
  65   35   40 2
  66   36   37 1
  67   37   38 ar
  68   37   41 ar
  69   38   39 1
  70   38   44 ar
  71   39   40 1
  72   39   45 2
  73   40   46 1
  74   41   42 ar
  75   41   96 1
  76   42   43 ar
  77   42   58 1
  78   43   44 ar
  79   43   97 1
  80   44   64 1
  81   46   47 1
  82   47   48 2
  83   47   49 2
  84   47   50 1
  85   50   51 1
  86   52   53 1
  87   53   54 2
  88   53   55 2
  89   53   56 1
  90   56   57 1
  91   58   59 1
  92   59   60 2
  93   59   61 2
  94   59   62 1
  95   62   63 1
  96   64   65 1
  97   65   98 1
  98   65   99 1
  99   65  100 1
 100   66   67 1
 101   67   68 2
 102   67   69 2
 103   67   70 1
 104   70   71 1
 105   72   73 2
 106   72   74 1
 107   74  101 1
 108   74  102 1
 109   74  103 1

#	End of record

