#	Name: ASD02030064
#	Creating user name:	WinNT
#	Creation time:	15. 06. 2019 20:14

#	Modifying user name:	WinNT
#	Modification time:	15. 06. 2019 20:14

#	Program:	/corina/corina34_cracker 3.40 0067  02.08.2006

@<TRIPOS>MOLECULE
ASD02030064
  60   63    0    0    0
SMALL
NO_CHARGES


@<TRIPOS>ATOM
   1 O1             0.1966     0.7723     0.7637 O.3     
   2 N2            -9.8495   -10.0637    -2.1361 N.am    
   3 C3            -8.5198    -9.8511    -2.1906 C.2     
   4 N4            -8.0205    -8.9151    -3.0219 N.am    
   5 C5            -6.6582    -8.6197    -3.0012 C.ar    
   6 O6            -7.7706   -10.5036    -1.4898 O.2     
   7 C7            -6.0112    -8.2563    -4.1754 C.ar    
   8 C8            -4.6589    -7.9629    -4.1554 C.ar    
   9 C9            -3.9502    -8.0355    -2.9451 C.ar    
  10 C10           -4.6168    -8.4032    -1.7715 C.ar    
  11 C11           -5.9524    -8.6847    -1.8022 C.ar    
  12 C12           -2.5121    -7.7264    -2.9117 C.2     
  13 O13           -1.8345    -7.7968    -1.7487 O.3     
  14 O14           -1.9352    -7.4075    -3.9329 O.2     
  15 C15           -0.4184    -7.4784    -1.7905 C.3     
  16 C16            0.4183    -8.7592    -2.0323 C.3     
  17 C17            1.8038    -8.3763    -1.4556 C.3     
  18 C18            1.4738    -7.5382    -0.2032 C.3     
  19 C19            0.0608    -6.9673    -0.4161 C.3     
  20 N20            0.1055    -5.5030    -0.4129 N.am    
  21 C21            0.0249    -4.8289     0.7514 C.2     
  22 O22           -0.0849    -5.4360     1.7990 O.2     
  23 C23            0.0699    -3.3535     0.7546 C.ar    
  24 C24           -0.0135    -2.6528     1.9606 C.ar    
  25 C25            0.0292    -1.2764     1.9594 C.ar    
  26 C26            0.1553    -0.5842     0.7607 C.ar    
  27 C27            0.2386    -1.2776    -0.4411 C.ar    
  28 C28            0.2018    -2.6541    -0.4479 C.ar    
  29 C29          -10.3597   -11.1087    -1.3577 C.ar    
  30 C30          -11.5927   -10.9733    -0.7333 C.ar    
  31 C31          -12.0937   -12.0067     0.0340 C.ar    
  32 C32          -11.3689   -13.1751     0.1808 C.ar    
  33 C33          -10.1406   -13.3128    -0.4392 C.ar    
  34 C34           -9.6367   -12.2854    -1.2125 C.ar    
  35 O35           -4.0212    -7.6078    -5.2987 O.3     
  36 H36            1.0883     1.1384     0.8414 H       
  37 H37          -10.4529    -9.4924    -2.6366 H       
  38 H38           -8.6090    -8.4470    -3.6346 H       
  39 H39           -6.5626    -8.2030    -5.1025 H       
  40 H40           -4.0751    -8.4600    -0.8389 H       
  41 H41           -6.4626    -8.9678    -0.8934 H       
  42 H42           -0.2173    -6.7392    -2.5659 H       
  43 H43           -0.0051    -9.6052    -1.4909 H       
  44 H44            0.4904    -8.9780    -3.0977 H       
  45 H45            2.3626    -9.2706    -1.1797 H       
  46 H46            2.3656    -7.7813    -2.1756 H       
  47 H47            1.4911    -8.1706     0.6845 H       
  48 H48            2.1927    -6.7258    -0.0974 H       
  49 H49           -0.6075    -7.3226     0.3682 H       
  50 H50            0.1931    -5.0186    -1.2487 H       
  51 H51           -0.1118    -3.1899     2.8924 H       
  52 H52           -0.0355    -0.7341     2.8911 H       
  53 H53            0.3361    -0.7361    -1.3704 H       
  54 H54            0.2670    -3.1922    -1.3820 H       
  55 H55          -12.1591   -10.0608    -0.8473 H       
  56 H56          -13.0525   -11.9019     0.5201 H       
  57 H57          -11.7629   -13.9817     0.7813 H       
  58 H58           -9.5766   -14.2263    -0.3220 H       
  59 H59           -8.6774   -12.3936    -1.6968 H       
  60 H60           -4.0228    -6.6562    -5.4706 H       
@<TRIPOS>BOND
   1    1   26 1
   2    1   36 1
   3    2    3 am
   4    2   29 1
   5    2   37 1
   6    3    4 am
   7    3    6 2
   8    4    5 1
   9    4   38 1
  10    5    7 ar
  11    5   11 ar
  12    7    8 ar
  13    7   39 1
  14    8    9 ar
  15    8   35 1
  16    9   10 ar
  17    9   12 1
  18   10   11 ar
  19   10   40 1
  20   11   41 1
  21   12   13 1
  22   12   14 2
  23   13   15 1
  24   15   16 1
  25   15   19 1
  26   15   42 1
  27   16   17 1
  28   16   43 1
  29   16   44 1
  30   17   18 1
  31   17   45 1
  32   17   46 1
  33   18   19 1
  34   18   47 1
  35   18   48 1
  36   19   20 1
  37   19   49 1
  38   20   21 am
  39   20   50 1
  40   21   22 2
  41   21   23 1
  42   23   24 ar
  43   23   28 ar
  44   24   25 ar
  45   24   51 1
  46   25   26 ar
  47   25   52 1
  48   26   27 ar
  49   27   28 ar
  50   27   53 1
  51   28   54 1
  52   29   30 ar
  53   29   34 ar
  54   30   31 ar
  55   30   55 1
  56   31   32 ar
  57   31   56 1
  58   32   33 ar
  59   32   57 1
  60   33   34 ar
  61   33   58 1
  62   34   59 1
  63   35   60 1

#	End of record

