#	Name: ASD02560399
#	Creating user name:	WinNT
#	Creation time:	15. 06. 2019 20:25

#	Modifying user name:	WinNT
#	Modification time:	15. 06. 2019 20:25

#	Program:	/corina/corina34_cracker 3.40 0067  02.08.2006

@<TRIPOS>MOLECULE
ASD02560399
  39   41    0    0    0
SMALL
NO_CHARGES


@<TRIPOS>ATOM
   1 C1            -0.0170     1.4022     0.0098 C.2     
   2 C2             0.0021    -0.0041     0.0020 C.2     
   3 C3             1.1743    -0.6696    -0.0123 C.2     
   4 N4             2.3612     0.0114    -0.0195 N.pl3   
   5 C5             2.3736     1.3873    -0.0127 C.2     
   6 C6             1.1535     2.0938     0.0023 C.2     
   7 C7             3.6659    -0.4006    -0.0340 C.2     
   8 C8             4.4368     0.7161    -0.0358 C.2     
   9 N9             3.6353     1.7872    -0.0227 N.2     
  10 C10            5.9435     0.7449    -0.0496 C.3     
  11 N11            4.1201    -1.7252    -0.0446 N.3     
  12 C12            2.9936    -2.6680    -0.0388 C.3     
  13 C13            3.5203    -4.0800    -0.0505 C.ar    
  14 C14            3.7728    -4.7331     1.1415 C.ar    
  15 C15            6.4281     1.4818    -1.2998 C.3     
  16 C16            6.4512     1.4697     1.1986 C.3     
  17 C17            4.2558    -6.0281     1.1314 C.ar    
  18 C18            4.4865    -6.6707    -0.0719 C.ar    
  19 C19            4.2336    -6.0165    -1.2645 C.ar    
  20 C20            3.7453    -4.7235    -1.2531 C.ar    
  21 Cl21           5.0937    -8.2970    -0.0854 Cl      
  22 H22           -0.9586     1.9311     0.0171 H       
  23 H23           -0.9275    -0.5538     0.0079 H       
  24 H24            1.1768    -1.7496    -0.0178 H       
  25 H25            1.1487     3.1738     0.0074 H       
  26 H26            6.3264    -0.2757    -0.0580 H       
  27 H27            4.7278    -1.8928    -0.8325 H       
  28 H28            2.3935    -2.5115     0.8576 H       
  29 H29            2.3770    -2.5029    -0.9223 H       
  30 H30            3.5929    -4.2313     2.0807 H       
  31 H31            6.0453     2.5023    -1.2913 H       
  32 H32            7.5179     1.5026    -1.3098 H       
  33 H33            6.0664     0.9654    -2.1890 H       
  34 H34            6.0683     2.4902     1.2070 H       
  35 H35            6.1060     0.9447     2.0892 H       
  36 H36            7.5409     1.4905     1.1886 H       
  37 H37            4.4534    -6.5381     2.0627 H       
  38 H38            4.4135    -6.5176    -2.2041 H       
  39 H39            3.5478    -4.2128    -2.1839 H       
@<TRIPOS>BOND
   1    1    2 1
   2    1    6 2
   3    1   22 1
   4    2    3 2
   5    2   23 1
   6    3    4 1
   7    3   24 1
   8    4    5 1
   9    4    7 1
  10    5    6 1
  11    5    9 2
  12    6   25 1
  13    7    8 2
  14    7   11 1
  15    8    9 1
  16    8   10 1
  17   10   15 1
  18   10   16 1
  19   10   26 1
  20   11   12 1
  21   11   27 1
  22   12   13 1
  23   12   28 1
  24   12   29 1
  25   13   14 ar
  26   13   20 ar
  27   14   17 ar
  28   14   30 1
  29   15   31 1
  30   15   32 1
  31   15   33 1
  32   16   34 1
  33   16   35 1
  34   16   36 1
  35   17   18 ar
  36   17   37 1
  37   18   19 ar
  38   18   21 1
  39   19   20 ar
  40   19   38 1
  41   20   39 1

#	End of record

