#	Name: ASD02560401
#	Creating user name:	WinNT
#	Creation time:	15. 06. 2019 20:25

#	Modifying user name:	WinNT
#	Modification time:	15. 06. 2019 20:25

#	Program:	/corina/corina34_cracker 3.40 0067  02.08.2006

@<TRIPOS>MOLECULE
ASD02560401
  46   49    0    0    0
SMALL
NO_CHARGES


@<TRIPOS>ATOM
   1 C1             0.1361     1.3886     1.1086 C.2     
   2 C2             0.1571    -0.0174     1.0959 C.2     
   3 C3             1.2857    -0.6788     0.7695 C.2     
   4 N4             2.4261     0.0062     0.4461 N.pl3   
   5 C5             2.4355     1.3824     0.4493 C.2     
   6 C6             1.2599     2.0842     0.7894 C.2     
   7 C7             3.6781    -0.4091     0.0859 C.2     
   8 C8             4.4312     0.7292    -0.1248 C.2     
   9 N9             3.6441     1.7971     0.1052 N.2     
  10 C10            5.8511     0.7683    -0.5306 C.2     
  11 N11            4.1117    -1.7297    -0.0436 N.3     
  12 C12            2.9880    -2.6675     0.0818 C.3     
  13 C13            3.3283    -3.9710    -0.6435 C.3     
  14 C14            6.4041     1.6929    -1.3417 C.2     
  15 S15            7.0840    -0.3796    -0.0248 S.3     
  16 C16            2.7300    -2.9594     1.5613 C.3     
  17 C17            1.5596    -3.9362     1.6919 C.3     
  18 C18            1.8999    -5.2397     0.9666 C.3     
  19 C19            2.1579    -4.9477    -0.5129 C.3     
  20 C20            7.7540     1.5198    -1.5766 C.2     
  21 C21            8.3043     0.4685    -0.9650 C.2     
  22 C22            9.7543     0.0699    -1.0634 C.3     
  23 C23           10.5493     0.7596     0.0471 C.3     
  24 H24           -0.7713     1.9143     1.3667 H       
  25 H25           -0.7353    -0.5703     1.3494 H       
  26 H26            1.2902    -1.7588     0.7635 H       
  27 H27            1.2525     3.1642     0.7959 H       
  28 H28            4.6008    -1.8658    -0.9156 H       
  29 H29            2.0956    -2.2267    -0.3626 H       
  30 H30            3.5121    -3.7630    -1.6975 H       
  31 H31            4.2207    -4.4117    -0.1991 H       
  32 H32            5.8364     2.5039    -1.7735 H       
  33 H33            3.6224    -3.4002     2.0057 H       
  34 H34            2.4876    -2.0308     2.0780 H       
  35 H35            1.3758    -4.1442     2.7460 H       
  36 H36            0.6672    -3.4954     1.2475 H       
  37 H37            2.7923    -5.6805     1.4110 H       
  38 H38            1.0661    -5.9355     1.0596 H       
  39 H39            1.2655    -4.5070    -0.9573 H       
  40 H40            2.4003    -5.8764    -1.0296 H       
  41 H41            8.3229     2.1870    -2.2071 H       
  42 H42            9.8421    -1.0112    -0.9554 H       
  43 H43           10.1489     0.3713    -2.0338 H       
  44 H44           10.4615     1.8407    -0.0609 H       
  45 H45           10.1547     0.4581     1.0174 H       
  46 H46           11.5981     0.4713    -0.0241 H       
@<TRIPOS>BOND
   1    1    2 1
   2    1    6 2
   3    1   24 1
   4    2    3 2
   5    2   25 1
   6    3    4 1
   7    3   26 1
   8    4    5 1
   9    4    7 1
  10    5    6 1
  11    5    9 2
  12    6   27 1
  13    7    8 2
  14    7   11 1
  15    8    9 1
  16    8   10 1
  17   10   14 2
  18   10   15 1
  19   11   12 1
  20   11   28 1
  21   12   13 1
  22   12   16 1
  23   12   29 1
  24   13   19 1
  25   13   30 1
  26   13   31 1
  27   14   20 1
  28   14   32 1
  29   15   21 1
  30   16   17 1
  31   16   33 1
  32   16   34 1
  33   17   18 1
  34   17   35 1
  35   17   36 1
  36   18   19 1
  37   18   37 1
  38   18   38 1
  39   19   39 1
  40   19   40 1
  41   20   21 2
  42   20   41 1
  43   21   22 1
  44   22   23 1
  45   22   42 1
  46   22   43 1
  47   23   44 1
  48   23   45 1
  49   23   46 1

#	End of record

