#	Name: ASD03090533
#	Creating user name:	WinNT
#	Creation time:	15. 06. 2019 20:29

#	Modifying user name:	WinNT
#	Modification time:	15. 06. 2019 20:29

#	Program:	/corina/corina34_cracker 3.40 0067  02.08.2006

@<TRIPOS>MOLECULE
ASD03090533
  48   51    0    0    0
SMALL
NO_CHARGES


@<TRIPOS>ATOM
   1 C1            -0.4570     0.5677    -0.3971 C.2     
   2 C2             1.9001     0.0746    -0.0256 C.3     
   3 O3            -0.5670    -0.5134    -0.9425 O.2     
   4 N4             0.7359     0.9556     0.0958 N.am    
   5 C5            -1.6286     1.4579    -0.2802 C.ar    
   6 C6            -2.8649     1.0599    -0.7957 C.ar    
   7 C7            -3.9556     1.8929    -0.6843 C.ar    
   8 C8            -3.8279     3.1287    -0.0603 C.ar    
   9 C9            -2.5995     3.5282     0.4539 C.ar    
  10 C10           -1.5055     2.6983     0.3515 C.ar    
  11 O11           -4.9048     3.9472     0.0468 O.3     
  12 C12           -5.7047     3.8101     1.1376 C.ar    
  13 C13           -5.3509     2.9317     2.1514 C.ar    
  14 C14           -6.1637     2.7924     3.2594 C.ar    
  15 C15           -7.3337     3.5309     3.3585 C.ar    
  16 C16           -7.6875     4.4092     2.3449 C.ar    
  17 C17           -6.8720     4.5528     1.2395 C.ar    
  18 O18           -8.1340     3.3934     4.4491 O.3     
  19 C19           -9.3233     4.1848     4.4850 C.3     
  20 F20          -10.1281     3.8671     3.3857 F       
  21 F21          -10.0234     3.9212     5.6672 F       
  22 F22           -8.9827     5.5408     4.4372 F       
  23 N23            6.3175     2.4343     2.5522 N.pl3   
  24 C24            6.1442     1.9380     3.8155 C.2     
  25 C25            5.0535     1.1563     3.8544 C.2     
  26 C26            4.4817     1.1517     2.5057 C.ar    
  27 C27            3.3703     0.5377     1.9249 C.ar    
  28 C28            3.0995     0.7380     0.6008 C.ar    
  29 C29            3.9208     1.5474    -0.1724 C.ar    
  30 C30            5.0226     2.1624     0.3802 C.ar    
  31 C31            5.3172     1.9724     1.7265 C.ar    
  32 H32            1.6979    -0.8671     0.4848 H       
  33 H33            2.1009    -0.1190    -1.0793 H       
  34 H34            0.8236     1.8181     0.5310 H       
  35 H35           -2.9648     0.1004    -1.2812 H       
  36 H36           -4.9115     1.5860    -1.0825 H       
  37 H37           -2.5042     4.4889     0.9380 H       
  38 H38           -0.5527     3.0074     0.7551 H       
  39 H39           -4.4401     2.3565     2.0740 H       
  40 H40           -5.8884     2.1083     4.0484 H       
  41 H41           -8.5985     4.9841     2.4222 H       
  42 H42           -7.1451     5.2402     0.4526 H       
  43 H43            7.0357     3.0267     2.2800 H       
  44 H44            6.7894     2.1442     4.6566 H       
  45 H45            4.6704     0.6305     4.7164 H       
  46 H46            2.7274    -0.0940     2.5200 H       
  47 H47            3.6937     1.6961    -1.2177 H       
  48 H48            5.6555     2.7899    -0.2297 H       
@<TRIPOS>BOND
   1    1    3 2
   2    1    4 am
   3    1    5 1
   4    2   28 1
   5    2    4 1
   6    2   32 1
   7    2   33 1
   8    4   34 1
   9    5    6 ar
  10    5   10 ar
  11    6    7 ar
  12    6   35 1
  13    7    8 ar
  14    7   36 1
  15    8    9 ar
  16    8   11 1
  17    9   10 ar
  18    9   37 1
  19   10   38 1
  20   11   12 1
  21   12   13 ar
  22   12   17 ar
  23   13   14 ar
  24   13   39 1
  25   14   15 ar
  26   14   40 1
  27   15   16 ar
  28   15   18 1
  29   16   17 ar
  30   16   41 1
  31   17   42 1
  32   18   19 1
  33   19   20 1
  34   19   21 1
  35   19   22 1
  36   23   24 1
  37   23   31 1
  38   23   43 1
  39   24   25 2
  40   24   44 1
  41   25   26 1
  42   25   45 1
  43   26   27 ar
  44   26   31 ar
  45   27   28 ar
  46   27   46 1
  47   28   29 ar
  48   29   30 ar
  49   29   47 1
  50   30   31 ar
  51   30   48 1

#	End of record

