#	Name: ASD05450003
#	Creating user name:	WinNT
#	Creation time:	15. 06. 2019 21:00

#	Modifying user name:	WinNT
#	Modification time:	15. 06. 2019 21:00

#	Program:	/corina/corina34_cracker 3.40 0067  02.08.2006

@<TRIPOS>MOLECULE
ASD05450003
  65   64    0    0    0
SMALL
NO_CHARGES


@<TRIPOS>ATOM
   1 C1             2.0445     2.9641     4.4279 C.2     
   2 C2             1.5550     1.5407     4.3560 C.3     
   3 C3             1.0917     1.0992     5.7203 C.2     
   4 C4            -0.1010     0.5786     5.8703 C.2     
   5 C5             3.3016     3.2378     4.1808 C.2     
   6 C6             4.2996     2.1195     4.0249 C.3     
   7 C7             4.8494     2.1287     2.6218 C.2     
   8 C8            -0.9354     0.2454     4.6603 C.3     
   9 C9            -2.1278     1.1651     4.6037 C.2     
  10 C10            6.1430     2.1942     2.4256 C.2     
  11 C11           -2.3804     1.8437     3.5121 C.2     
  12 C12            7.0895     2.0603     3.5906 C.3     
  13 C13           -1.6049     1.5592     2.2516 C.3     
  14 C14            8.1354     0.9884     3.2773 C.3     
  15 C15            9.0964     0.8524     4.4600 C.3     
  16 C16           10.1266    -0.2033     4.1514 C.2     
  17 C17           -2.5793     1.3169     1.0971 C.3     
  18 C18           -1.7919     1.0281    -0.1826 C.3     
  19 C19           -2.7663     0.7858    -1.3371 C.3     
  20 C20           -1.4138    -1.2048     4.7543 C.3     
  21 N21           11.0827    -0.4964     5.0549 N.am    
  22 O22           10.0952    -0.7893     3.0900 O.2     
  23 C23           12.0842    -1.5227     4.7549 C.3     
  24 C24           13.0452    -1.6587     5.9377 C.3     
  25 O25           12.3331    -2.1468     7.0764 O.3     
  26 C26           -1.9789     0.4969    -2.6168 C.3     
  27 H27            1.3580     3.7592     4.6789 H       
  28 H28            0.7251     1.4770     3.6522 H       
  29 H29            2.3660     0.8940     4.0209 H       
  30 H30            1.7429     1.2121     6.5745 H       
  31 H31           -0.4864     0.3881     6.8610 H       
  32 H32            3.6226     4.2648     4.0887 H       
  33 H33            5.1146     2.2582     4.7354 H       
  34 H34            3.8090     1.1652     4.2166 H       
  35 H35            4.1770     2.0813     1.7781 H       
  36 H36           -0.3355     0.3725     3.7592 H       
  37 H37           -2.7742     1.2647     5.4632 H       
  38 H38            6.5311     2.3442     1.4290 H       
  39 H39           -3.1444     2.6071     3.5153 H       
  40 H40            7.5877     3.0139     3.7655 H       
  41 H41            6.5309     1.7734     4.4815 H       
  42 H42           -0.9680     2.4120     2.0166 H       
  43 H43           -0.9869     0.6733     2.3974 H       
  44 H44            7.6373     0.0348     3.1024 H       
  45 H45            8.6940     1.2753     2.3863 H       
  46 H46            9.5946     1.8060     4.6349 H       
  47 H47            8.5378     0.5655     5.3509 H       
  48 H48           -3.2162     0.4642     1.3321 H       
  49 H49           -3.1973     2.2028     0.9513 H       
  50 H50           -1.1550     1.8808    -0.4176 H       
  51 H51           -1.1739     0.1422    -0.0368 H       
  52 H52           -3.4032    -0.0670    -1.1021 H       
  53 H53           -3.3843     1.6717    -1.4829 H       
  54 H54           -0.5512    -1.8700     4.7952 H       
  55 H55           -2.0137    -1.3318     5.6555 H       
  56 H56           -2.0172    -1.4458     3.8792 H       
  57 H57           11.1078    -0.0277     5.9038 H       
  58 H58           11.5860    -2.4763     4.5800 H       
  59 H59           12.6428    -1.2358     3.8640 H       
  60 H60           13.8415    -2.3571     5.6803 H       
  61 H61           13.4767    -0.6849     6.1690 H       
  62 H62           12.8812    -2.2577     7.8652 H       
  63 H63           -1.3420     1.3497    -2.8518 H       
  64 H64           -1.3609    -0.3890    -2.4710 H       
  65 H65           -2.6731     0.3243    -3.4393 H       
@<TRIPOS>BOND
   1    1    2 1
   2    1    5 2
   3    1   27 1
   4    2    3 1
   5    2   28 1
   6    2   29 1
   7    3    4 2
   8    3   30 1
   9    4    8 1
  10    4   31 1
  11    5    6 1
  12    5   32 1
  13    6    7 1
  14    6   33 1
  15    6   34 1
  16    7   10 2
  17    7   35 1
  18    8    9 1
  19    8   20 1
  20    8   36 1
  21    9   11 2
  22    9   37 1
  23   10   12 1
  24   10   38 1
  25   11   13 1
  26   11   39 1
  27   12   14 1
  28   12   40 1
  29   12   41 1
  30   13   17 1
  31   13   42 1
  32   13   43 1
  33   14   15 1
  34   14   44 1
  35   14   45 1
  36   15   16 1
  37   15   46 1
  38   15   47 1
  39   16   21 am
  40   16   22 2
  41   17   18 1
  42   17   48 1
  43   17   49 1
  44   18   19 1
  45   18   50 1
  46   18   51 1
  47   19   26 1
  48   19   52 1
  49   19   53 1
  50   20   54 1
  51   20   55 1
  52   20   56 1
  53   21   23 1
  54   21   57 1
  55   23   24 1
  56   23   58 1
  57   23   59 1
  58   24   25 1
  59   24   60 1
  60   24   61 1
  61   25   62 1
  62   26   63 1
  63   26   64 1
  64   26   65 1

#	End of record

