#	Name: ASD01001097
#	Creating user name:	WinNT
#	Creation time:	15. 06. 2019 18:55

#	Modifying user name:	WinNT
#	Modification time:	15. 06. 2019 18:55

#	Program:	/corina/corina34_cracker 3.40 0067  02.08.2006

@<TRIPOS>MOLECULE
ASD01001097
  62   65    0    0    0
SMALL
NO_CHARGES


@<TRIPOS>ATOM
   1 C1             0.3369     0.8703    -1.3123 C.2     
   2 N2             0.0139     0.7708     0.0288 N.pl3   
   3 N3            -1.1345     0.0579     0.3957 N.2     
   4 C4            -1.8884    -0.5020    -0.4896 C.2     
   5 N5            -1.6232    -0.4401    -1.8348 N.am    
   6 C6            -0.5412     0.2295    -2.2903 C.2     
   7 C7             1.4950     1.6108    -1.4120 C.2     
   8 C8             1.8666     1.9572    -0.1092 C.2     
   9 C9             0.9471     1.4321     0.7407 C.2     
  10 O10           -0.2987     0.2892    -3.4824 O.2     
  11 C11           -2.5227    -1.1000    -2.7843 C.3     
  12 C12           -3.6691    -0.1789    -3.1135 C.ar    
  13 C13           -3.5252     0.7782    -4.1005 C.ar    
  14 C14           -4.5767     1.6232    -4.4025 C.ar    
  15 C15           -5.7723     1.5108    -3.7177 C.ar    
  16 C16           -5.9165     0.5531    -2.7313 C.ar    
  17 C17           -4.8664    -0.2947    -2.4324 C.ar    
  18 C18           -3.1094    -1.2548    -0.0274 C.3     
  19 N19           -2.6984    -2.3888     0.8040 N.am    
  20 C20           -4.0050    -0.3215     0.7897 C.3     
  21 C21           -2.0578    -2.1526     2.1002 C.3     
  22 C22           -2.9095    -3.6494     0.3764 C.2     
  23 C23           -3.4624    -3.8891    -0.9730 C.ar    
  24 O24           -2.6451    -4.5892     1.1007 O.2     
  25 C25           -4.5895    -3.1865    -1.4035 C.ar    
  26 C26           -5.1009    -3.4145    -2.6637 C.ar    
  27 C27           -4.4988    -4.3384    -3.5017 C.ar    
  28 C28           -3.3804    -5.0386    -3.0802 C.ar    
  29 C29           -2.8565    -4.8150    -1.8244 C.ar    
  30 Cl30          -5.1487    -4.6205    -5.0866 Cl      
  31 C31           -3.1190    -2.1594     3.2023 C.3     
  32 C32           -2.4500    -1.9127     4.5560 C.3     
  33 N33           -3.4689    -1.9193     5.6142 N.3     
  34 Cl34           2.3314     2.0324    -2.8736 Cl      
  35 C35           -5.3145    -1.0373     1.1271 C.3     
  36 H36            2.7319     2.5394     0.1713 H       
  37 H37            0.9613     1.5295     1.8163 H       
  38 H38           -1.9759    -1.3399    -3.6962 H       
  39 H39           -2.9096    -2.0175    -2.3407 H       
  40 H40           -2.5911     0.8660    -4.6355 H       
  41 H41           -4.4640     2.3714    -5.1731 H       
  42 H42           -6.5936     2.1715    -3.9531 H       
  43 H43           -6.8504     0.4655    -2.1961 H       
  44 H44           -4.9790    -1.0429    -1.6617 H       
  45 H45           -3.6604    -1.6204    -0.8939 H       
  46 H46           -3.4947    -0.0437     1.7120 H       
  47 H47           -4.2204     0.5756     0.2093 H       
  48 H48           -1.3281    -2.9389     2.2935 H       
  49 H49           -1.5548    -1.1857     2.0860 H       
  50 H50           -5.0600    -2.4661    -0.7508 H       
  51 H51           -5.9729    -2.8718    -2.9977 H       
  52 H52           -2.9154    -5.7580    -3.7379 H       
  53 H53           -1.9843    -5.3612    -1.4969 H       
  54 H54           -3.8487    -1.3731     3.0089 H       
  55 H55           -3.6219    -3.1264     3.2164 H       
  56 H56           -1.7203    -2.6990     4.7493 H       
  57 H57           -1.9471    -0.9458     4.5419 H       
  58 H58           -3.9932    -2.7814     5.6060 H       
  59 H59           -3.0518    -1.7583     6.5187 H       
  60 H60           -5.9333    -0.3893     1.7478 H       
  61 H61           -5.8467    -1.2744     0.2059 H       
  62 H62           -5.0963    -1.9582     1.6679 H       
@<TRIPOS>BOND
   1    1    2 1
   2    1    7 2
   3    1    6 1
   4    2    3 1
   5    2    9 1
   6    3    4 2
   7    4    5 1
   8    4   18 1
   9    5    6 am
  10    5   11 1
  11    6   10 2
  12    7    8 1
  13    7   34 1
  14    8    9 2
  15    8   36 1
  16    9   37 1
  17   11   12 1
  18   11   38 1
  19   11   39 1
  20   12   13 ar
  21   12   17 ar
  22   13   14 ar
  23   13   40 1
  24   14   15 ar
  25   14   41 1
  26   15   16 ar
  27   15   42 1
  28   16   17 ar
  29   16   43 1
  30   17   44 1
  31   18   19 1
  32   18   20 1
  33   18   45 1
  34   19   21 1
  35   19   22 am
  36   20   35 1
  37   20   46 1
  38   20   47 1
  39   21   31 1
  40   21   48 1
  41   21   49 1
  42   22   23 1
  43   22   24 2
  44   23   25 ar
  45   23   29 ar
  46   25   26 ar
  47   25   50 1
  48   26   27 ar
  49   26   51 1
  50   27   28 ar
  51   27   30 1
  52   28   29 ar
  53   28   52 1
  54   29   53 1
  55   31   32 1
  56   31   54 1
  57   31   55 1
  58   32   33 1
  59   32   56 1
  60   32   57 1
  61   33   58 1
  62   33   59 1
  63   35   60 1
  64   35   61 1
  65   35   62 1

#	End of record

