#	Name: ASD09740677
#	Creating user name:	WinNT
#	Creation time:	15. 06. 2019 21:23

#	Modifying user name:	WinNT
#	Modification time:	15. 06. 2019 21:23

#	Program:	/corina/corina34_cracker 3.40 0067  02.08.2006

@<TRIPOS>MOLECULE
ASD09740677
  52   55    0    0    0
SMALL
NO_CHARGES


@<TRIPOS>ATOM
   1 C1             1.1713    -0.6658     0.0163 C.2     
   2 N2            -0.0017    -0.0020     0.0124 N.am    
   3 O3             2.2252    -0.0453     0.0162 O.co2   
   4 O4             1.1817    -1.8889     0.0250 O.co2   
   5 C5            -1.2614    -0.7412    -0.1009 C.3     
   6 C6            -2.0836    -0.6006     1.1978 C.3     
   7 C7            -2.9795     0.6183     0.8909 C.3     
   8 C8            -3.1136     0.6411    -0.6165 C.ar    
   9 C9            -4.0360     1.3006    -1.4344 C.ar    
  10 C10           -3.9564     1.1678    -2.8203 C.ar    
  11 C11           -2.9663     0.3849    -3.3776 C.ar    
  12 C12           -2.0571    -0.2654    -2.5648 C.ar    
  13 C13           -2.1284    -0.1385    -1.1859 C.ar    
  14 S14           -6.3350     3.0358    -1.7072 S.3     
  15 C15           -5.0946     2.1374    -0.8307 C.2     
  16 N16           -5.2781     2.3425     0.4456 N.2     
  17 N17           -6.2358     3.0885     0.7869 N.2     
  18 C18           -6.9732     3.6006    -0.1620 C.2     
  19 C19           -8.1357     4.4938     0.0254 C.ar    
  20 C20           -8.5319     4.8612     1.3089 C.ar    
  21 C21           -9.6291     5.7039     1.4796 C.ar    
  22 C22          -10.3260     6.1757     0.3570 C.ar    
  23 C23           -9.9224     5.8032    -0.9171 C.ar    
  24 C24           -8.8340     4.9746    -1.0861 C.ar    
  25 O25          -11.3948     6.9957     0.5173 O.3     
  26 C26          -12.1293     7.3417    -0.6586 C.3     
  27 C27          -13.5646     7.7069    -0.2745 C.3     
  28 C28          -11.4641     8.5381    -1.3420 C.3     
  29 C29          -10.0436     6.0863     2.7959 C.1     
  30 N30          -10.3724     6.3896     3.8401 N.1     
  31 C31           -0.0169     1.4589     0.1215 C.3     
  32 H32           -1.0662    -1.7924    -0.3130 H       
  33 H33           -2.6872    -1.4911     1.3727 H       
  34 H34           -1.4328    -0.3988     2.0486 H       
  35 H35           -3.9577     0.4954     1.3558 H       
  36 H36           -2.5052     1.5345     1.2424 H       
  37 H37           -4.6675     1.6755    -3.4550 H       
  38 H38           -2.9020     0.2799    -4.4506 H       
  39 H39           -1.2849    -0.8773    -3.0073 H       
  40 H40           -7.9913     4.4942     2.1688 H       
  41 H41          -10.4603     6.1675    -1.7798 H       
  42 H42           -8.5223     4.6919    -2.0808 H       
  43 H43          -12.1410     6.4929    -1.3425 H       
  44 H44          -13.5528     8.5556     0.4094 H       
  45 H45          -14.1248     7.9708    -1.1715 H       
  46 H46          -14.0385     6.8546     0.2123 H       
  47 H47          -12.0243     8.8019    -2.2390 H       
  48 H48          -11.4524     9.3868    -0.6581 H       
  49 H49          -10.4416     8.2778    -1.6157 H       
  50 H50            0.1149     1.8985    -0.8672 H       
  51 H51           -0.9706     1.7821     0.5387 H       
  52 H52            0.7938     1.7829     0.7742 H       
@<TRIPOS>BOND
   1    1    2 am
   2    1    3 ar
   3    1    4 ar
   4    2   31 1
   5    2    5 1
   6    5    6 1
   7    5   13 1
   8    5   32 1
   9    6    7 1
  10    6   33 1
  11    6   34 1
  12    7    8 1
  13    7   35 1
  14    7   36 1
  15    8    9 ar
  16    8   13 ar
  17    9   10 ar
  18    9   15 1
  19   10   11 ar
  20   10   37 1
  21   11   12 ar
  22   11   38 1
  23   12   13 ar
  24   12   39 1
  25   14   15 1
  26   14   18 1
  27   15   16 2
  28   16   17 1
  29   17   18 2
  30   18   19 1
  31   19   20 ar
  32   19   24 ar
  33   20   21 ar
  34   20   40 1
  35   21   22 ar
  36   21   29 1
  37   22   23 ar
  38   22   25 1
  39   23   24 ar
  40   23   41 1
  41   24   42 1
  42   25   26 1
  43   26   27 1
  44   26   28 1
  45   26   43 1
  46   27   44 1
  47   27   45 1
  48   27   46 1
  49   28   47 1
  50   28   48 1
  51   28   49 1
  52   29   30 3
  53   31   50 1
  54   31   51 1
  55   31   52 1

#	End of record

