#	Name: ASD01152147
#	Creating user name:	WinNT
#	Creation time:	15. 06. 2019 19:05

#	Modifying user name:	WinNT
#	Modification time:	15. 06. 2019 19:05

#	Program:	/corina/corina34_cracker 3.40 0067  02.08.2006

@<TRIPOS>MOLECULE
ASD01152147
  60   62    0    0    0
SMALL
NO_CHARGES


@<TRIPOS>ATOM
   1 N1            -0.0186     1.3533     0.0026 N.pl3   
   2 C2            -0.0039     0.0022     0.1542 C.2     
   3 N3            -1.2383    -0.4541     0.1186 N.2     
   4 C4            -2.0953     0.5561    -0.0541 C.2     
   5 C5            -1.3571     1.7309    -0.1271 C.2     
   6 N6            -3.4783     0.4513    -0.1394 N.am    
   7 N7             1.1244    -0.7677     0.3187 N.3     
   8 C8             1.1363    -1.4086     1.6404 C.3     
   9 C9             1.2407    -1.7667    -0.7520 C.3     
  10 C10           -1.8566     3.0368    -0.3049 C.2     
  11 O11           -1.0055     4.0842    -0.3554 O.3     
  12 O12           -3.0555     3.2207    -0.4129 O.2     
  13 C13           -1.5809     5.3795    -0.5375 C.3     
  14 C14           -2.5355     5.6808     0.6196 C.3     
  15 C15           -0.4701     6.4311    -0.5694 C.3     
  16 C16           -2.3533     5.4133    -1.8578 C.3     
  17 C17            1.0944     2.2038    -0.0142 C.ar    
  18 C18            1.9964     2.1485    -1.0684 C.ar    
  19 C19            3.0928     2.9883    -1.0821 C.ar    
  20 C20            3.2927     3.8836    -0.0474 C.ar    
  21 C21            2.3964     3.9408     1.0041 C.ar    
  22 C22            1.2948     3.1078     1.0205 C.ar    
  23 C23           -4.0697    -0.7562    -0.0457 C.2     
  24 O24           -3.3932    -1.7536     0.1134 O.2     
  25 C25           -5.5399    -0.8677    -0.1363 C.ar    
  26 C26           -6.3197     0.2757    -0.3189 C.ar    
  27 C27           -7.6942     0.1641    -0.4028 C.ar    
  28 C28           -8.2984    -1.0794    -0.3059 C.ar    
  29 C29           -7.5312    -2.2156    -0.1250 C.ar    
  30 C30           -6.1559    -2.1188    -0.0453 C.ar    
  31 Cl31          -5.1951    -3.5468     0.1813 Cl      
  32 O32           -1.0455     7.7264    -0.7515 O.3     
  33 C33           -0.0884     8.7866    -0.7956 C.3     
  34 F34           -8.4508     1.2693    -0.5791 F       
  35 H35           -4.0181     1.2471    -0.2663 H       
  36 H36            0.2592    -2.0478     1.7422 H       
  37 H37            2.0388    -2.0110     1.7440 H       
  38 H38            1.1197    -0.6428     2.4158 H       
  39 H39            1.2123    -1.2667    -1.7201 H       
  40 H40            2.1839    -2.3030    -0.6476 H       
  41 H41            0.4123    -2.4717    -0.6826 H       
  42 H42           -1.9852     5.6567     1.5602 H       
  43 H43           -2.9744     6.6688     0.4807 H       
  44 H44           -3.3269     4.9316     0.6423 H       
  45 H45            0.0801     6.4070     0.3712 H       
  46 H46            0.2099     6.2164    -1.3937 H       
  47 H47           -3.1447     4.6641    -1.8351 H       
  48 H48           -2.7922     6.4013    -1.9968 H       
  49 H49           -1.6733     5.1986    -2.6822 H       
  50 H50            1.8410     1.4492    -1.8767 H       
  51 H51            3.7949     2.9455    -1.9016 H       
  52 H52            4.1508     4.5393    -0.0603 H       
  53 H53            2.5556     4.6406     1.8112 H       
  54 H54            0.5950     3.1532     1.8418 H       
  55 H55           -5.8497     1.2451    -0.3942 H       
  56 H56           -9.3733    -1.1614    -0.3717 H       
  57 H57           -8.0085    -3.1816    -0.0503 H       
  58 H58            0.4697     8.8113     0.1403 H       
  59 H59            0.5995     8.6208    -1.6247 H       
  60 H60           -0.6045     9.7363    -0.9361 H       
@<TRIPOS>BOND
   1    1    2 1
   2    1   17 1
   3    1    5 1
   4    2    3 2
   5    2    7 1
   6    3    4 1
   7    4    5 2
   8    4    6 1
   9    5   10 1
  10    6   23 am
  11    6   35 1
  12    7    8 1
  13    7    9 1
  14    8   36 1
  15    8   37 1
  16    8   38 1
  17    9   39 1
  18    9   40 1
  19    9   41 1
  20   10   11 1
  21   10   12 2
  22   11   13 1
  23   13   14 1
  24   13   15 1
  25   13   16 1
  26   14   42 1
  27   14   43 1
  28   14   44 1
  29   15   32 1
  30   15   45 1
  31   15   46 1
  32   16   47 1
  33   16   48 1
  34   16   49 1
  35   17   18 ar
  36   17   22 ar
  37   18   19 ar
  38   18   50 1
  39   19   20 ar
  40   19   51 1
  41   20   21 ar
  42   20   52 1
  43   21   22 ar
  44   21   53 1
  45   22   54 1
  46   23   24 2
  47   23   25 1
  48   25   26 ar
  49   25   30 ar
  50   26   27 ar
  51   26   55 1
  52   27   28 ar
  53   27   34 1
  54   28   29 ar
  55   28   56 1
  56   29   30 ar
  57   29   57 1
  58   30   31 1
  59   32   33 1
  60   33   58 1
  61   33   59 1
  62   33   60 1

#	End of record

