#	Name: ASD01810372
#	Creating user name:	WinNT
#	Creation time:	15. 06. 2019 19:24

#	Modifying user name:	WinNT
#	Modification time:	15. 06. 2019 19:24

#	Program:	/corina/corina34_cracker 3.40 0067  02.08.2006

@<TRIPOS>MOLECULE
ASD01810372
  40   40    0    0    0
SMALL
NO_CHARGES


@<TRIPOS>ATOM
   1 C1             0.1472    -1.5586    -3.0176 C.3     
   2 C2             0.6748    -2.9349    -2.5929 C.3     
   3 C3             2.1848    -2.8266    -2.3697 C.3     
   4 C4             2.4943    -1.6502    -1.4908 C.2     
   5 C5             1.6689    -0.6800    -1.2604 C.2     
   6 C6             0.2836    -0.6010    -1.8319 C.3     
   7 C7             2.1276     0.4396    -0.3619 C.3     
   8 C8             3.8501    -1.5952    -0.8352 C.3     
   9 C9             3.4972     0.9383    -0.8271 C.3     
  10 C10            4.7029    -0.5231    -1.5165 C.3     
  11 C11            1.1188     1.5883    -0.4230 C.3     
  12 C12            2.2324    -0.0712     1.0765 C.3     
  13 C13            3.6866    -1.2513     0.6466 C.3     
  14 C14            4.5374    -2.9555    -0.9702 C.3     
  15 H15            0.7316    -1.1858    -3.8588 H       
  16 H16           -0.9014    -1.6406    -3.3037 H       
  17 H17            0.1889    -3.2440    -1.6675 H       
  18 H18            0.4718    -3.6634    -3.3779 H       
  19 H19            2.5460    -3.7382    -1.8936 H       
  20 H20            2.6840    -2.7010    -3.3305 H       
  21 H21            0.0882     0.4179    -2.1661 H       
  22 H22           -0.4403    -0.8721    -1.0634 H       
  23 H23            3.4260     1.2877    -1.8571 H       
  24 H24            3.8219     1.7584    -0.1868 H       
  25 H25            4.2194     0.1239    -0.7688 H       
  26 H26            5.3630    -0.0625    -0.7815 H       
  27 H27            5.3003    -0.9808    -2.3050 H       
  28 H28            4.0530     0.2379    -1.9485 H       
  29 H29            0.1431     1.2330    -0.0916 H       
  30 H30            1.4506     2.3981     0.2268 H       
  31 H31            1.0442     1.9522    -1.4478 H       
  32 H32            2.9510    -0.8896     1.1200 H       
  33 H33            2.5641     0.7386     1.7263 H       
  34 H34            1.2566    -0.4265     1.4079 H       
  35 H35            3.0790    -2.0151     1.1320 H       
  36 H36            4.6672    -1.2115     1.1208 H       
  37 H37            3.1969    -0.2822     0.7428 H       
  38 H38            4.6539    -3.2005    -2.0259 H       
  39 H39            5.5181    -2.9157    -0.4961 H       
  40 H40            3.9299    -3.7193    -0.4849 H       
@<TRIPOS>BOND
   1    1    2 1
   2    1    6 1
   3    1   15 1
   4    1   16 1
   5    2    3 1
   6    2   17 1
   7    2   18 1
   8    3    4 1
   9    3   19 1
  10    3   20 1
  11    4    5 2
  12    4    8 1
  13    5    6 1
  14    5    7 1
  15    6   21 1
  16    6   22 1
  17    7    9 1
  18    7   11 1
  19    7   12 1
  20    8   10 1
  21    8   13 1
  22    8   14 1
  23    9   23 1
  24    9   24 1
  25    9   25 1
  26   10   26 1
  27   10   27 1
  28   10   28 1
  29   11   29 1
  30   11   30 1
  31   11   31 1
  32   12   32 1
  33   12   33 1
  34   12   34 1
  35   13   35 1
  36   13   36 1
  37   13   37 1
  38   14   38 1
  39   14   39 1
  40   14   40 1

#	End of record

