#	Name: ASD01720177
#	Creating user name:	WinNT
#	Creation time:	15. 06. 2019 19:23

#	Modifying user name:	WinNT
#	Modification time:	15. 06. 2019 19:23

#	Program:	/corina/corina34_cracker 3.40 0067  02.08.2006

@<TRIPOS>MOLECULE
ASD01720177
  50   52    0    0    0
SMALL
NO_CHARGES


@<TRIPOS>ATOM
   1 C1            -0.6127     1.7872     0.7773 C.ar    
   2 N2            -0.7354     0.4928     1.0294 N.ar    
   3 C3             0.3108    -0.3170     0.9566 C.ar    
   4 N4             1.5142     0.1302     0.6316 N.ar    
   5 C5             1.7091     1.4173     0.3660 C.ar    
   6 C6             0.6263     2.2945     0.4340 C.ar    
   7 N7             2.9738     1.8834     0.0256 N.am    
   8 C8             3.3621     3.2976    -0.0889 C.3     
   9 C9             4.8501     3.2386    -0.4847 C.3     
  10 O10            5.1412     1.8125    -0.5510 O.3     
  11 C11            4.0394     1.1178    -0.2462 C.2     
  12 N12            0.1418    -1.6637     1.2274 N.pl3   
  13 C13           -1.1815    -2.1777     1.5892 C.3     
  14 C14           -1.0262    -3.4383     2.4003 C.ar    
  15 C15           -1.9748    -2.4841     0.3173 C.3     
  16 C16           -1.8534    -3.6678     3.4842 C.ar    
  17 C17           -1.7131    -4.8226     4.2293 C.ar    
  18 C18           -0.7412    -5.7524     3.8892 C.ar    
  19 C19            0.0875    -5.5197     2.8012 C.ar    
  20 C20           -0.0606    -4.3660     2.0559 C.ar    
  21 C21            3.1908     4.0122     1.2531 C.3     
  22 C22            4.0519     3.3213     2.3124 C.3     
  23 C23            3.6280     5.4718     1.1130 C.3     
  24 O24            4.0070    -0.0965    -0.2214 O.2     
  25 O25           -0.6009    -6.8889     4.6209 O.3     
  26 C26            0.4206    -7.8012     4.2129 C.3     
  27 H27           -1.4723     2.4385     0.8349 H       
  28 H28            0.7535     3.3461     0.2235 H       
  29 H29            2.7789     3.7932    -0.8650 H       
  30 H30            5.0057     3.7060    -1.4570 H       
  31 H31            5.4669     3.7195     0.2746 H       
  32 H32            0.8996    -2.2672     1.1777 H       
  33 H33           -1.7132    -1.4301     2.1778 H       
  34 H34           -1.4431    -3.2317    -0.2713 H       
  35 H35           -2.9594    -2.8665     0.5865 H       
  36 H36           -2.0871    -1.5723    -0.2694 H       
  37 H37           -2.6096    -2.9436     3.7488 H       
  38 H38           -2.3592    -5.0013     5.0761 H       
  39 H39            0.8448    -6.2420     2.5344 H       
  40 H40            0.5843    -4.1844     1.2088 H       
  41 H41            2.1439     3.9738     1.5541 H       
  42 H42            5.1052     3.4397     2.0582 H       
  43 H43            3.8603     3.7715     3.2864 H       
  44 H44            3.8035     2.2606     2.3472 H       
  45 H45            3.0806     5.9380     0.2939 H       
  46 H46            3.4177     6.0046     2.0404 H       
  47 H47            4.6972     5.5124     0.9051 H       
  48 H48            0.2260    -8.1319     3.1926 H       
  49 H49            1.3897    -7.3042     4.2552 H       
  50 H50            0.4251    -8.6635     4.8797 H       
@<TRIPOS>BOND
   1    1    2 ar
   2    1    6 ar
   3    1   27 1
   4    2    3 ar
   5    3    4 ar
   6    3   12 1
   7    4    5 ar
   8    5    6 ar
   9    5    7 1
  10    6   28 1
  11    7    8 1
  12    7   11 am
  13    8    9 1
  14    8   21 1
  15    8   29 1
  16    9   10 1
  17    9   30 1
  18    9   31 1
  19   10   11 1
  20   11   24 2
  21   12   13 1
  22   12   32 1
  23   13   14 1
  24   13   15 1
  25   13   33 1
  26   14   16 ar
  27   14   20 ar
  28   15   34 1
  29   15   35 1
  30   15   36 1
  31   16   17 ar
  32   16   37 1
  33   17   18 ar
  34   17   38 1
  35   18   19 ar
  36   18   25 1
  37   19   20 ar
  38   19   39 1
  39   20   40 1
  40   21   22 1
  41   21   23 1
  42   21   41 1
  43   22   42 1
  44   22   43 1
  45   22   44 1
  46   23   45 1
  47   23   46 1
  48   23   47 1
  49   25   26 1
  50   26   48 1
  51   26   49 1
  52   26   50 1

#	End of record

