#	Name: ASD06770019
#	Creating user name:	WinNT
#	Creation time:	15. 06. 2019 21:08

#	Modifying user name:	WinNT
#	Modification time:	15. 06. 2019 21:08

#	Program:	/corina/corina34_cracker 3.40 0067  02.08.2006

@<TRIPOS>MOLECULE
ASD06770019
  23   23    0    0    0
SMALL
NO_CHARGES


@<TRIPOS>ATOM
   1 C1            -0.1796     1.4966     0.6070 C.2     
   2 C2            -0.1486    -0.0098     0.5793 C.3     
   3 O3             0.7115     2.1115     1.1538 O.2     
   4 N4            -1.1946     2.1607     0.0195 N.am    
   5 C5            -1.2683     3.5550     0.1175 C.ar    
   6 C6            -2.4962     4.1957     0.0134 C.ar    
   7 C7            -2.5663     5.5714     0.1109 C.ar    
   8 C8            -1.4143     6.3117     0.3122 C.ar    
   9 C9            -0.1898     5.6759     0.4157 C.ar    
  10 C10           -0.1149     4.2996     0.3246 C.ar    
  11 C11           -3.7509     3.3903    -0.2062 C.3     
  12 O12           -4.8748     4.2698    -0.2787 O.3     
  13 Cl13          -1.5058     8.0409     0.4343 Cl      
  14 Br14           1.4592    -0.6495     1.5124 Br      
  15 H15           -1.0367    -0.4007     1.0760 H       
  16 H16           -0.1297    -0.3538    -0.4548 H       
  17 H17           -1.8740     1.6724    -0.4713 H       
  18 H18           -3.5208     6.0701     0.0297 H       
  19 H19            0.7077     6.2559     0.5724 H       
  20 H20            0.8406     3.8035     0.4099 H       
  21 H21           -3.6657     2.8320    -1.1385 H       
  22 H22           -3.8862     2.6953     0.6225 H       
  23 H23           -5.7186     3.8189    -0.4194 H       
@<TRIPOS>BOND
   1    1    2 1
   2    1    3 2
   3    1    4 am
   4    2   14 1
   5    2   15 1
   6    2   16 1
   7    4    5 1
   8    4   17 1
   9    5    6 ar
  10    5   10 ar
  11    6    7 ar
  12    6   11 1
  13    7    8 ar
  14    7   18 1
  15    8    9 ar
  16    8   13 1
  17    9   10 ar
  18    9   19 1
  19   10   20 1
  20   11   12 1
  21   11   21 1
  22   11   22 1
  23   12   23 1

#	End of record

