#	Name: ASD01810651
#	Creating user name:	WinNT
#	Creation time:	15. 06. 2019 19:25

#	Modifying user name:	WinNT
#	Modification time:	15. 06. 2019 19:25

#	Program:	/corina/corina34_cracker 3.40 0067  02.08.2006

@<TRIPOS>MOLECULE
ASD01810651
  68   72    0    0    0
SMALL
NO_CHARGES


@<TRIPOS>ATOM
   1 C1             0.0360     1.1711     0.1374 C.ar    
   2 C2             0.2615    -0.1946    -0.0448 C.ar    
   3 C3            -0.8638    -1.1500     0.0399 C.2     
   4 N4            -1.9970    -0.8013     0.6809 N.am    
   5 O5            -0.7669    -2.2498    -0.4685 O.2     
   6 C6            -2.2506     0.4209     1.4786 C.3     
   7 C7            -3.0849    -0.0659     2.6830 C.3     
   8 C8            -4.6052    -0.1359     2.5260 C.3     
   9 C9            -3.7581    -1.3678     2.2009 C.3     
  10 C10           -3.2737    -1.5504     0.7421 C.3     
  11 C11           -5.4323    -0.1744     3.7852 C.ar    
  12 C12           -6.3588     0.8215     4.0330 C.ar    
  13 C13           -7.1183     0.7885     5.1865 C.ar    
  14 C14           -6.9508    -0.2451     6.0965 C.ar    
  15 C15           -6.0205    -1.2432     5.8455 C.ar    
  16 C16           -5.2674    -1.2086     4.6878 C.ar    
  17 C17            1.5515    -0.6546    -0.3076 C.ar    
  18 C18            2.6016     0.2474    -0.3860 C.ar    
  19 C19            2.3666     1.6048    -0.2031 C.ar    
  20 C20            1.0877     2.0607     0.0574 C.ar    
  21 C21            3.5098     2.5830    -0.2884 C.3     
  22 N22            3.8975    -0.2089    -0.6488 N.am    
  23 C23            4.2911    -1.4164    -0.1978 C.2     
  24 O24            3.5008    -2.1362     0.3819 O.2     
  25 C25            5.6807    -1.8649    -0.4074 C.ar    
  26 C26            6.5961    -1.0469    -1.0715 C.ar    
  27 N27            7.8367    -1.4464    -1.2590 N.ar    
  28 C28            8.2596    -2.6273    -0.8289 C.ar    
  29 C29            7.3997    -3.4954    -0.1580 C.ar    
  30 C30            6.1030    -3.1180     0.0632 C.ar    
  31 N31            9.5737    -3.0035    -1.0498 N.pl3   
  32 C32           10.0518    -4.3058    -0.5790 C.3     
  33 C33            9.7240    -5.3767    -1.6214 C.3     
  34 C34           11.5659    -4.2471    -0.3669 C.3     
  35 O35           -7.6964    -0.2796     7.2322 O.3     
  36 C36           -7.4704    -1.3734     8.1237 C.3     
  37 H37           -0.9623     1.5318     0.3366 H       
  38 H38           -1.3102     0.8550     1.8183 H       
  39 H39           -2.8156     1.1464     0.8933 H       
  40 H40           -2.6519     0.0482     3.6768 H       
  41 H41           -5.0492     0.4035     1.6894 H       
  42 H42           -3.8450    -2.2590     2.8224 H       
  43 H43           -4.0002    -1.1324     0.0453 H       
  44 H44           -3.1032    -2.6054     0.5275 H       
  45 H45           -6.4887     1.6262     3.3244 H       
  46 H46           -7.8416     1.5669     5.3798 H       
  47 H47           -5.8882    -2.0489     6.5524 H       
  48 H48           -4.5431    -1.9854     4.4920 H       
  49 H49            1.7320    -1.7100    -0.4491 H       
  50 H50            0.9112     3.1168     0.1987 H       
  51 H51            3.6186     2.9259    -1.3173 H       
  52 H52            3.3072     3.4360     0.3593 H       
  53 H53            4.4304     2.0947     0.0312 H       
  54 H54            4.5128     0.3437    -1.1557 H       
  55 H55            6.2843    -0.0787    -1.4347 H       
  56 H56            7.7546    -4.4552     0.1873 H       
  57 H57            5.4179    -3.7730     0.5810 H       
  58 H58           10.1778    -2.4048    -1.5162 H       
  59 H59            9.5624    -4.5538     0.3629 H       
  60 H60           10.0797    -6.3457    -1.2712 H       
  61 H61            8.6453    -5.4185    -1.7725 H       
  62 H62           10.2134    -5.1288    -2.5633 H       
  63 H63           11.7994    -3.4842     0.3757 H       
  64 H64           11.9216    -5.2161    -0.0167 H       
  65 H65           12.0553    -3.9992    -1.3088 H       
  66 H66           -7.6782    -2.3111     7.6083 H       
  67 H67           -6.4321    -1.3634     8.4552 H       
  68 H68           -8.1285    -1.2800     8.9875 H       
@<TRIPOS>BOND
   1    1    2 ar
   2    1   20 ar
   3    1   37 1
   4    2    3 1
   5    2   17 ar
   6    3    4 am
   7    3    5 2
   8    4    6 1
   9    4   10 1
  10    6    7 1
  11    6   38 1
  12    6   39 1
  13    7    8 1
  14    7    9 1
  15    7   40 1
  16    8    9 1
  17    8   11 1
  18    8   41 1
  19    9   10 1
  20    9   42 1
  21   10   43 1
  22   10   44 1
  23   11   12 ar
  24   11   16 ar
  25   12   13 ar
  26   12   45 1
  27   13   14 ar
  28   13   46 1
  29   14   15 ar
  30   14   35 1
  31   15   16 ar
  32   15   47 1
  33   16   48 1
  34   17   18 ar
  35   17   49 1
  36   18   19 ar
  37   18   22 1
  38   19   20 ar
  39   19   21 1
  40   20   50 1
  41   21   51 1
  42   21   52 1
  43   21   53 1
  44   22   23 am
  45   22   54 1
  46   23   24 2
  47   23   25 1
  48   25   26 ar
  49   25   30 ar
  50   26   27 ar
  51   26   55 1
  52   27   28 ar
  53   28   29 ar
  54   28   31 1
  55   29   30 ar
  56   29   56 1
  57   30   57 1
  58   31   32 1
  59   31   58 1
  60   32   33 1
  61   32   34 1
  62   32   59 1
  63   33   60 1
  64   33   61 1
  65   33   62 1
  66   34   63 1
  67   34   64 1
  68   34   65 1
  69   35   36 1
  70   36   66 1
  71   36   67 1
  72   36   68 1

#	End of record

