#	Name: ASD00310350
#	Creating user name:	WinNT
#	Creation time:	15. 06. 2019 18:34

#	Modifying user name:	WinNT
#	Modification time:	15. 06. 2019 18:34

#	Program:	/corina/corina34_cracker 3.40 0067  02.08.2006

@<TRIPOS>MOLECULE
ASD00310350
  41   43    0    0    0
SMALL
NO_CHARGES


@<TRIPOS>ATOM
   1 N1            -0.0153     1.2794     0.0091 N.pl3   
   2 N2             0.0021    -0.0041     0.0020 N.2     
   3 C3             1.2292    -0.4800    -0.0123 C.2     
   4 C4             2.1243     0.6858    -0.0145 C.ar    
   5 C5             3.5012     0.8765    -0.0267 C.ar    
   6 C6             4.0085     2.1688    -0.0246 C.ar    
   7 C7             3.1373     3.2656    -0.0099 C.ar    
   8 C8             1.7845     3.0822     0.0020 C.ar    
   9 C9             1.2548     1.7947    -0.0003 C.ar    
  10 C10            1.6260    -1.8977    -0.0229 C.2     
  11 O11            2.8034    -2.1991    -0.0354 O.2     
  12 O12            0.6837    -2.8615    -0.0188 O.3     
  13 C13            5.4758     2.3885    -0.0374 C.ar    
  14 C14            6.0439     3.2632    -0.9615 C.ar    
  15 C15            7.4093     3.4641    -0.9686 C.ar    
  16 C16            8.2136     2.7991    -0.0607 C.ar    
  17 C17            7.6551     1.9297     0.8588 C.ar    
  18 C18            6.2903     1.7252     0.8784 C.ar    
  19 C19           10.3560     2.1753     1.0209 C.3     
  20 C20            9.7039     3.0223    -0.0737 C.3     
  21 C21           10.2685     2.6166    -1.4367 C.3     
  22 C22           10.0004     4.5014     0.1813 C.3     
  23 O23           11.7692     2.3869     1.0086 O.3     
  24 Cl24           3.7851     4.8762    -0.0063 Cl      
  25 H25           -0.8235     1.8157     0.0159 H       
  26 H26            4.1694     0.0281    -0.0372 H       
  27 H27            1.1244     3.9369     0.0137 H       
  28 H28            0.9927    -3.7777    -0.0262 H       
  29 H29            5.4169     3.7826    -1.6711 H       
  30 H30            7.8507     4.1415    -1.6846 H       
  31 H31            8.2877     1.4131     1.5654 H       
  32 H32            5.8548     1.0493     1.5994 H       
  33 H33            9.9538     2.4643     1.9919 H       
  34 H34           10.1448     1.1215     0.8392 H       
  35 H35            9.8039     3.2200    -2.2166 H       
  36 H36           11.3464     2.7780    -1.4461 H       
  37 H37           10.0573     1.5628    -1.6184 H       
  38 H38            9.5982     4.7904     1.1523 H       
  39 H39           11.0783     4.6628     0.1719 H       
  40 H40            9.5358     5.1048    -0.5985 H       
  41 H41           12.2486     1.8802     1.6783 H       
@<TRIPOS>BOND
   1    1    2 1
   2    1    9 1
   3    1   25 1
   4    2    3 2
   5    3    4 1
   6    3   10 1
   7    4    5 ar
   8    4    9 ar
   9    5    6 ar
  10    5   26 1
  11    6    7 ar
  12    6   13 1
  13    7    8 ar
  14    7   24 1
  15    8    9 ar
  16    8   27 1
  17   10   11 2
  18   10   12 1
  19   12   28 1
  20   13   14 ar
  21   13   18 ar
  22   14   15 ar
  23   14   29 1
  24   15   16 ar
  25   15   30 1
  26   16   17 ar
  27   16   20 1
  28   17   18 ar
  29   17   31 1
  30   18   32 1
  31   19   20 1
  32   19   23 1
  33   19   33 1
  34   19   34 1
  35   20   21 1
  36   20   22 1
  37   21   35 1
  38   21   36 1
  39   21   37 1
  40   22   38 1
  41   22   39 1
  42   22   40 1
  43   23   41 1

#	End of record

