#	Name: ASD01884148
#	Creating user name:	WinNT
#	Creation time:	15. 06. 2019 19:47

#	Modifying user name:	WinNT
#	Modification time:	15. 06. 2019 19:47

#	Program:	/corina/corina34_cracker 3.40 0067  02.08.2006

@<TRIPOS>MOLECULE
ASD01884148
  30   31    0    0    0
SMALL
NO_CHARGES


@<TRIPOS>ATOM
   1 C1            -0.3422     1.4812    -0.1396 C.3     
   2 C2             0.0021    -0.0041     0.0020 C.3     
   3 C3             0.9633    -0.1871     1.1798 C.3     
   4 C4             2.2147     0.6625     0.9474 C.3     
   5 N5             1.8325     2.0745     0.8192 N.3     
   6 C6             0.9471     2.2824    -0.3338 C.3     
   7 C7            -1.2773    -0.8034     0.2572 C.3     
   8 F8            -2.1576    -0.6296    -0.8161 F       
   9 F9            -0.9615    -2.1602     0.3864 F       
  10 F10           -1.8826    -0.3513     1.4347 F       
  11 C11            0.6581    -0.4919    -1.2639 C.ar    
  12 C12            0.0650    -0.2473    -2.4884 C.ar    
  13 C13            0.6667    -0.6948    -3.6496 C.ar    
  14 C14            1.8619    -1.3865    -3.5865 C.ar    
  15 C15            2.4556    -1.6303    -2.3621 C.ar    
  16 C16            1.8560    -1.1790    -1.2012 C.ar    
  17 H17           -0.9925     1.6233    -1.0027 H       
  18 H18           -0.8516     1.8241     0.7610 H       
  19 H19            0.4744     0.1296     2.1011 H       
  20 H20            1.2457    -1.2369     1.2593 H       
  21 H21            2.8950     0.5455     1.7910 H       
  22 H22            2.7107     0.3361     0.0332 H       
  23 H23            1.4052     2.4120     1.6687 H       
  24 H24            1.4490     1.9484    -1.2419 H       
  25 H25            0.7067     3.3420    -0.4206 H       
  26 H26           -0.8688     0.2931    -2.5377 H       
  27 H27            0.2029    -0.5043    -4.6062 H       
  28 H28            2.3317    -1.7367    -4.4937 H       
  29 H29            3.3892    -2.1710    -2.3128 H       
  30 H30            2.3217    -1.3662    -0.2449 H       
@<TRIPOS>BOND
   1    1    2 1
   2    1    6 1
   3    1   17 1
   4    1   18 1
   5    2    3 1
   6    2    7 1
   7    2   11 1
   8    3    4 1
   9    3   19 1
  10    3   20 1
  11    4    5 1
  12    4   21 1
  13    4   22 1
  14    5    6 1
  15    5   23 1
  16    6   24 1
  17    6   25 1
  18    7    8 1
  19    7    9 1
  20    7   10 1
  21   11   12 ar
  22   11   16 ar
  23   12   13 ar
  24   12   26 1
  25   13   14 ar
  26   13   27 1
  27   14   15 ar
  28   14   28 1
  29   15   16 ar
  30   15   29 1
  31   16   30 1

#	End of record

