#	Name: ASD01813775
#	Creating user name:	WinNT
#	Creation time:	15. 06. 2019 19:31

#	Modifying user name:	WinNT
#	Modification time:	15. 06. 2019 19:31

#	Program:	/corina/corina34_cracker 3.40 0067  02.08.2006

@<TRIPOS>MOLECULE
ASD01813775
  45   48    0    0    0
SMALL
NO_CHARGES


@<TRIPOS>ATOM
   1 C1             0.0960     1.4749     0.3441 C.ar    
   2 C2             0.0783     0.0877     0.3364 C.ar    
   3 C3             1.2490    -0.6310     0.2097 C.ar    
   4 C4             2.4664     0.0381     0.0878 C.ar    
   5 C5             2.4796     1.4428     0.0960 C.ar    
   6 C6             1.2875     2.1556     0.2250 C.ar    
   7 N7             3.6440    -0.6677    -0.0385 N.pl3   
   8 C8             4.8374    -0.0726    -0.1571 C.2     
   9 C9             4.9772     1.3008    -0.1617 C.2     
  10 C10            3.7738     2.1384    -0.0338 C.2     
  11 O11            3.8439     3.3549    -0.0326 O.2     
  12 C12            6.3054     1.9163    -0.2929 C.2     
  13 O13            6.4289     3.2586    -0.2960 O.3     
  14 O14            7.2926     1.2148    -0.3987 O.2     
  15 C15            3.5871    -2.1316    -0.0427 C.3     
  16 C16            3.4445    -2.6248    -1.4595 C.ar    
  17 C17            4.5577    -2.7728    -2.2735 C.ar    
  18 N18            4.3980    -3.2081    -3.5114 N.ar    
  19 C19            3.1914    -3.5017    -3.9763 C.ar    
  20 N20            2.1072    -3.3713    -3.2242 N.ar    
  21 C21            2.1980    -2.9459    -1.9759 C.ar    
  22 F22            1.2162    -1.9816     0.2043 F       
  23 C23            3.0512    -3.9871    -5.3707 C.ar    
  24 C24            1.7919    -4.3012    -5.8787 C.ar    
  25 C25            1.6673    -4.7520    -7.1771 C.ar    
  26 C26            2.7892    -4.8926    -7.9739 C.ar    
  27 C27            4.0416    -4.5824    -7.4750 C.ar    
  28 C28            4.1775    -4.1253    -6.1799 C.ar    
  29 C29            2.6468    -5.3863    -9.3906 C.3     
  30 F30            2.4611    -4.2963   -10.2478 F       
  31 F31            3.8040    -6.0794    -9.7615 F       
  32 F32            1.5429    -6.2413    -9.4777 F       
  33 H33           -0.8292     2.0237     0.4396 H       
  34 H34           -0.8620    -0.4351     0.4310 H       
  35 H35            1.2987     3.2355     0.2309 H       
  36 H36            5.7202    -0.6875    -0.2520 H       
  37 H37            7.3227     3.6171    -0.3848 H       
  38 H38            4.5034    -2.5321     0.3910 H       
  39 H39            2.7315    -2.4636     0.5454 H       
  40 H40            5.5429    -2.5349    -1.9006 H       
  41 H41            1.3114    -2.8417    -1.3681 H       
  42 H42            0.9153    -4.1924    -5.2573 H       
  43 H43            0.6919    -4.9957    -7.5718 H       
  44 H44            4.9142    -4.6941    -8.1015 H       
  45 H45            5.1557    -3.8830    -5.7916 H       
@<TRIPOS>BOND
   1    1    2 ar
   2    1    6 ar
   3    1   33 1
   4    2    3 ar
   5    2   34 1
   6    3   22 1
   7    3    4 ar
   8    4    5 ar
   9    4    7 1
  10    5    6 ar
  11    5   10 1
  12    6   35 1
  13    7    8 1
  14    7   15 1
  15    8    9 2
  16    8   36 1
  17    9   10 1
  18    9   12 1
  19   10   11 2
  20   12   13 1
  21   12   14 2
  22   13   37 1
  23   15   16 1
  24   15   38 1
  25   15   39 1
  26   16   17 ar
  27   16   21 ar
  28   17   18 ar
  29   17   40 1
  30   18   19 ar
  31   19   20 ar
  32   19   23 1
  33   20   21 ar
  34   21   41 1
  35   23   24 ar
  36   23   28 ar
  37   24   25 ar
  38   24   42 1
  39   25   26 ar
  40   25   43 1
  41   26   27 ar
  42   26   29 1
  43   27   28 ar
  44   27   44 1
  45   28   45 1
  46   29   30 1
  47   29   31 1
  48   29   32 1

#	End of record

