#	Name: ASD01881894
#	Creating user name:	WinNT
#	Creation time:	15. 06. 2019 19:43

#	Modifying user name:	WinNT
#	Modification time:	15. 06. 2019 19:43

#	Program:	/corina/corina34_cracker 3.40 0067  02.08.2006

@<TRIPOS>MOLECULE
ASD01881894
  61   64    0    0    0
SMALL
NO_CHARGES


@<TRIPOS>ATOM
   1 C1            -0.0161     1.3337     0.0094 C.2     
   2 N2             0.0021    -0.0041     0.0020 N.am    
   3 C3             1.2613    -0.4841    -0.0126 C.2     
   4 C4             2.1640     0.7337    -0.0147 C.3     
   5 N5             1.2200     1.8645     0.0004 N.am    
   6 O6            -1.0354     1.9955     0.0180 O.2     
   7 O7             1.6013    -1.6477    -0.0215 O.2     
   8 C8            -1.1986    -0.8435     0.0097 C.3     
   9 C9            -1.6312    -1.1279    -1.4300 C.3     
  10 C10            1.5609     3.2893     0.0041 C.3     
  11 C11            1.6916     3.7708     1.4261 C.ar    
  12 C12            2.9179     3.7120     2.0635 C.ar    
  13 C13            3.0436     4.1515     3.3656 C.ar    
  14 C14            1.9317     4.6556     4.0385 C.ar    
  15 C15            0.6985     4.7125     3.3911 C.ar    
  16 C16            0.5860     4.2753     2.0870 C.ar    
  17 C17            2.1261     6.5455     9.4233 C.2     
  18 N18            0.8494     6.9172     9.6193 N.am    
  19 C19            0.0878     6.6562     8.3927 C.3     
  20 C20            1.0667     6.0706     7.4054 C.ar    
  21 C21            0.9450     5.6335     6.1100 C.ar    
  22 C22            2.0602     5.1290     5.4379 C.ar    
  23 C23            3.2948     5.0702     6.0838 C.ar    
  24 C24            3.4178     5.5084     7.3846 C.ar    
  25 C25            2.3015     6.0144     8.0598 C.ar    
  26 O26            3.0114     6.6391    10.2513 O.2     
  27 C27            0.3074     7.4883    10.8547 C.3     
  28 C28            0.4309     9.0127    10.8090 C.3     
  29 C29           -0.1352     9.6092    12.0992 C.3     
  30 C30            1.9044     9.4010    10.6711 C.3     
  31 C31           -0.3529     9.5521     9.6108 C.3     
  32 O32           -0.0198    11.0329    12.0564 O.3     
  33 Cl33           4.9564     5.4329     8.1849 Cl      
  34 H34            2.7924     0.7467     0.8759 H       
  35 H35            2.7753     0.7564    -0.9169 H       
  36 H36           -0.9813    -1.7838     0.5163 H       
  37 H37           -2.0010    -0.3250     0.5345 H       
  38 H38           -2.5246    -1.7525    -1.4242 H       
  39 H39           -1.8486    -0.1876    -1.9366 H       
  40 H40           -0.8288    -1.6464    -1.9548 H       
  41 H41            2.5060     3.4381    -0.5182 H       
  42 H42            0.7749     3.8522    -0.4994 H       
  43 H43            3.7786     3.3209     1.5412 H       
  44 H44            4.0014     4.1047     3.8624 H       
  45 H45           -0.1664     5.1017     3.9078 H       
  46 H46           -0.3679     4.3233     1.5828 H       
  47 H47           -0.7131     5.9446     8.5932 H       
  48 H48           -0.3257     7.5866     8.0033 H       
  49 H49           -0.0119     5.6793     5.6114 H       
  50 H50            4.1568     4.6799     5.5633 H       
  51 H51           -0.7423     7.2117    10.9529 H       
  52 H52            0.8658     7.1040    11.7083 H       
  53 H53           -1.1849     9.3325    12.1973 H       
  54 H54            0.4232     9.2249    12.9527 H       
  55 H55            2.3077     8.9760     9.7520 H       
  56 H56            1.9924    10.4869    10.6386 H       
  57 H57            2.4628     9.0167    11.5247 H       
  58 H58           -1.4026     9.2755     9.7090 H       
  59 H59           -0.2649    10.6381     9.5782 H       
  60 H60            0.0504     9.1272     8.6917 H       
  61 H61           -0.3599    11.4789    12.8441 H       
@<TRIPOS>BOND
   1    1    2 am
   2    1    5 am
   3    1    6 2
   4    2    3 am
   5    2    8 1
   6    3    4 1
   7    3    7 2
   8    4    5 1
   9    4   34 1
  10    4   35 1
  11    5   10 1
  12    8    9 1
  13    8   36 1
  14    8   37 1
  15    9   38 1
  16    9   39 1
  17    9   40 1
  18   10   11 1
  19   10   41 1
  20   10   42 1
  21   11   12 ar
  22   11   16 ar
  23   12   13 ar
  24   12   43 1
  25   13   14 ar
  26   13   44 1
  27   14   15 ar
  28   14   22 1
  29   15   16 ar
  30   15   45 1
  31   16   46 1
  32   17   18 am
  33   17   25 1
  34   17   26 2
  35   18   19 1
  36   18   27 1
  37   19   20 1
  38   19   47 1
  39   19   48 1
  40   20   21 ar
  41   20   25 ar
  42   21   22 ar
  43   21   49 1
  44   22   23 ar
  45   23   24 ar
  46   23   50 1
  47   24   25 ar
  48   24   33 1
  49   27   28 1
  50   27   51 1
  51   27   52 1
  52   28   29 1
  53   28   30 1
  54   28   31 1
  55   29   32 1
  56   29   53 1
  57   29   54 1
  58   30   55 1
  59   30   56 1
  60   30   57 1
  61   31   58 1
  62   31   59 1
  63   31   60 1
  64   32   61 1

#	End of record

