#	Name: ASD00431078
#	Creating user name:	WinNT
#	Creation time:	15. 06. 2019 18:35

#	Modifying user name:	WinNT
#	Modification time:	15. 06. 2019 18:35

#	Program:	/corina/corina34_cracker 3.40 0067  02.08.2006

@<TRIPOS>MOLECULE
ASD00431078
  52   54    0    0    0
SMALL
NO_CHARGES


@<TRIPOS>ATOM
   1 C1             0.3371     1.7135     0.0131 C.2     
   2 C2             0.3299     0.2083    -0.0616 C.3     
   3 O3             1.3880     2.3106     0.1135 O.2     
   4 N4            -0.8238     2.3963    -0.0372 N.am    
   5 C5            -0.8167     3.8595     0.0354 C.3     
   6 C6            -0.5853     4.4384    -1.3618 C.3     
   7 C7            -2.1419     4.3424     0.5661 C.ar    
   8 C8            -2.1840     5.3927     1.4599 C.ar    
   9 C9            -3.4123     5.8390     1.9500 C.ar    
  10 C10           -4.5909     5.2186     1.5317 C.ar    
  11 C11           -4.5347     4.1697     0.6377 C.ar    
  12 C12           -3.3139     3.7355     0.1516 C.ar    
  13 S13           -2.0816     7.8545     3.5373 S.3     
  14 C14           -3.1246     8.8390     4.4675 C.2     
  15 N15           -4.3590     8.4876     4.2825 N.2     
  16 C16           -4.5803     7.4880     3.4551 C.2     
  17 C17           -3.4649     6.9632     2.9081 C.2     
  18 O18           -2.7193     9.8425     5.2822 O.3     
  19 C19           -3.6737    10.6035     5.8809 C.ar    
  20 C20           -4.5042    10.0454     6.8418 C.ar    
  21 C21           -5.4738    10.8187     7.4498 C.ar    
  22 C22           -5.6171    12.1532     7.0998 C.ar    
  23 C23           -4.7868    12.7113     6.1390 C.ar    
  24 C24           -3.8134    11.9397     5.5349 C.ar    
  25 O25           -6.5719    12.9142     7.6981 O.3     
  26 C26           -6.6115    14.2991     7.3480 C.3     
  27 C27           -8.0078    14.8569     7.6306 C.3     
  28 C28           -5.5789    15.0646     8.1778 C.3     
  29 H29            1.3535    -0.1629    -0.0108 H       
  30 H30           -0.2444    -0.1941     0.7728 H       
  31 H31           -0.1246    -0.1066    -1.0009 H       
  32 H32           -1.6639     1.9189    -0.1216 H       
  33 H33           -0.0179     4.1863     0.7011 H       
  34 H34            0.3732     4.0890    -1.7456 H       
  35 H35           -1.3841     4.1115    -2.0274 H       
  36 H36           -0.5800     5.5270    -1.3077 H       
  37 H37           -1.2686     5.8681     1.7798 H       
  38 H38           -5.5445     5.5590     1.9074 H       
  39 H39           -5.4457     3.6889     0.3133 H       
  40 H40           -3.2758     2.9165    -0.5514 H       
  41 H41           -5.5709     7.1193     3.2335 H       
  42 H42           -4.3929     9.0063     7.1141 H       
  43 H43           -6.1205    10.3841     8.1977 H       
  44 H44           -4.8987    13.7503     5.8662 H       
  45 H45           -3.1640    12.3754     4.7901 H       
  46 H46           -6.3824    14.4126     6.2884 H       
  47 H47           -8.2368    14.7434     8.6902 H       
  48 H48           -8.0379    15.9133     7.3635 H       
  49 H49           -8.7435    14.3116     7.0394 H       
  50 H50           -4.5841    14.6671     7.9765 H       
  51 H51           -5.6090    16.1209     7.9107 H       
  52 H52           -5.8079    14.9510     9.2374 H       
@<TRIPOS>BOND
   1    1    2 1
   2    1    3 2
   3    1    4 am
   4    2   29 1
   5    2   30 1
   6    2   31 1
   7    4    5 1
   8    4   32 1
   9    5    6 1
  10    5    7 1
  11    5   33 1
  12    6   34 1
  13    6   35 1
  14    6   36 1
  15    7    8 ar
  16    7   12 ar
  17    8    9 ar
  18    8   37 1
  19    9   10 ar
  20    9   17 1
  21   10   11 ar
  22   10   38 1
  23   11   12 ar
  24   11   39 1
  25   12   40 1
  26   13   14 1
  27   13   17 1
  28   14   15 2
  29   14   18 1
  30   15   16 1
  31   16   17 2
  32   16   41 1
  33   18   19 1
  34   19   20 ar
  35   19   24 ar
  36   20   21 ar
  37   20   42 1
  38   21   22 ar
  39   21   43 1
  40   22   23 ar
  41   22   25 1
  42   23   24 ar
  43   23   44 1
  44   24   45 1
  45   25   26 1
  46   26   27 1
  47   26   28 1
  48   26   46 1
  49   27   47 1
  50   27   48 1
  51   27   49 1
  52   28   50 1
  53   28   51 1
  54   28   52 1

#	End of record

