#	Name: ASD03331172
#	Creating user name:	WinNT
#	Creation time:	15. 06. 2019 20:38

#	Modifying user name:	WinNT
#	Modification time:	15. 06. 2019 20:38

#	Program:	/corina/corina34_cracker 3.40 0067  02.08.2006

@<TRIPOS>MOLECULE
ASD03331172
  53   55    0    0    0
SMALL
NO_CHARGES


@<TRIPOS>ATOM
   1 N1            -0.2434    -0.3215     0.3529 N.am    
   2 C2            -0.0909    -1.7773     0.4965 C.3     
   3 C3             0.4353    -2.3445    -0.8263 C.3     
   4 N4             1.6579    -1.6269    -1.2112 N.3     
   5 C5             1.3858    -0.2044    -1.4569 C.3     
   6 C6             0.8986     0.4505    -0.1600 C.3     
   7 C7            -1.4007     0.2882     0.6773 C.2     
   8 O8            -2.3674    -0.3749     1.0002 O.2     
   9 N9            -1.4865     1.6328     0.6439 N.am    
  10 C10           -2.7228     2.2600     0.8351 C.ar    
  11 C11           -2.7878     3.4872     1.4817 C.ar    
  12 C12           -4.0094     4.1039     1.6684 C.ar    
  13 C13           -5.1670     3.5006     1.2123 C.ar    
  14 C14           -5.1057     2.2786     0.5680 C.ar    
  15 C15           -3.8866     1.6592     0.3735 C.ar    
  16 C16            2.2889    -2.2520    -2.3813 C.3     
  17 C17            3.3890    -1.3596    -2.8954 C.ar    
  18 C18            4.6767    -1.5037    -2.4129 C.ar    
  19 C19            5.6870    -0.6869    -2.8825 C.ar    
  20 C20            5.4086     0.2785    -3.8392 C.ar    
  21 C21            4.1158     0.4211    -4.3217 C.ar    
  22 C22            3.1102    -0.4020    -3.8529 C.ar    
  23 O23            6.4007     1.0836    -4.3024 O.3     
  24 C24            7.6998     0.9045    -3.7348 C.3     
  25 C25            8.4134    -0.2463    -4.4471 C.3     
  26 C26            8.5117     2.1903    -3.9034 C.3     
  27 H27            0.6179    -1.9942     1.2956 H       
  28 H28           -1.0570    -2.2255     0.7286 H       
  29 H29            0.6587    -3.4044    -0.7043 H       
  30 H30           -0.3200    -2.2186    -1.6021 H       
  31 H31            2.2987     0.2878    -1.7923 H       
  32 H32            0.6174    -0.1083    -2.2239 H       
  33 H33            0.5868     1.4752    -0.3620 H       
  34 H34            1.7026     0.4478     0.5760 H       
  35 H35           -0.6913     2.1657     0.4873 H       
  36 H36           -1.8841     3.9588     1.8385 H       
  37 H37           -4.0606     5.0582     2.1715 H       
  38 H38           -6.1211     3.9846     1.3598 H       
  39 H39           -6.0116     1.8099     0.2129 H       
  40 H40           -3.8389     0.7069    -0.1337 H       
  41 H41            2.7074    -3.2172    -2.0961 H       
  42 H42            1.5428    -2.3961    -3.1628 H       
  43 H43            4.8928    -2.2551    -1.6679 H       
  44 H44            6.6926    -0.7995    -2.5050 H       
  45 H45            3.8966     1.1719    -5.0665 H       
  46 H46            2.1035    -0.2915    -4.2283 H       
  47 H47            7.6040     0.6717    -2.6743 H       
  48 H48            8.5092    -0.0136    -5.5077 H       
  49 H49            9.4043    -0.3829    -4.0142 H       
  50 H50            7.8350    -1.1624    -4.3270 H       
  51 H51            8.0034     3.0102    -3.3960 H       
  52 H52            9.5027     2.0537    -3.4705 H       
  53 H53            8.6075     2.4231    -4.9640 H       
@<TRIPOS>BOND
   1    1    2 1
   2    1    6 1
   3    1    7 am
   4    2    3 1
   5    2   27 1
   6    2   28 1
   7    3    4 1
   8    3   29 1
   9    3   30 1
  10    4    5 1
  11    4   16 1
  12    5    6 1
  13    5   31 1
  14    5   32 1
  15    6   33 1
  16    6   34 1
  17    7    8 2
  18    7    9 am
  19    9   10 1
  20    9   35 1
  21   10   11 ar
  22   10   15 ar
  23   11   12 ar
  24   11   36 1
  25   12   13 ar
  26   12   37 1
  27   13   14 ar
  28   13   38 1
  29   14   15 ar
  30   14   39 1
  31   15   40 1
  32   16   17 1
  33   16   41 1
  34   16   42 1
  35   17   18 ar
  36   17   22 ar
  37   18   19 ar
  38   18   43 1
  39   19   20 ar
  40   19   44 1
  41   20   21 ar
  42   20   23 1
  43   21   22 ar
  44   21   45 1
  45   22   46 1
  46   23   24 1
  47   24   25 1
  48   24   26 1
  49   24   47 1
  50   25   48 1
  51   25   49 1
  52   25   50 1
  53   26   51 1
  54   26   52 1
  55   26   53 1

#	End of record

