#	Name: ASD04530011
#	Creating user name:	WinNT
#	Creation time:	15. 06. 2019 20:49

#	Modifying user name:	WinNT
#	Modification time:	15. 06. 2019 20:49

#	Program:	/corina/corina34_cracker 3.40 0067  02.08.2006

@<TRIPOS>MOLECULE
ASD04530011
  23   24    0    0    0
SMALL
NO_CHARGES


@<TRIPOS>ATOM
   1 C1            -0.0167     1.3789     0.0096 C.ar    
   2 C2             0.0021    -0.0041     0.0020 C.ar    
   3 C3             1.2065    -0.6848    -0.0132 C.ar    
   4 C4             2.3966     0.0134    -0.0208 C.ar    
   5 C5             2.3838     1.4074    -0.0132 C.ar    
   6 C6             1.1676     2.0878     0.0021 C.ar    
   7 C7             3.6596     2.1635    -0.0209 C.2     
   8 C8             3.6996     3.5068    -0.0141 C.2     
   9 S9             5.3880     4.0103    -0.0262 S.3     
  10 C10            5.8940     2.3238    -0.0397 C.2     
  11 N11            4.8468     1.5587    -0.0294 N.2     
  12 N12            7.2073     1.8826    -0.0537 N.pl3   
  13 C13            1.2185    -2.1918    -0.0209 C.3     
  14 H14           -0.9598     1.9051     0.0170 H       
  15 H15           -0.9270    -0.5547     0.0083 H       
  16 H16            3.3361    -0.5191    -0.0324 H       
  17 H17            1.1518     3.1677     0.0077 H       
  18 H18            2.8434     4.1650    -0.0030 H       
  19 H19            7.9345     2.5245    -0.0563 H       
  20 H20            7.3994     0.9319    -0.0608 H       
  21 H21            1.2114    -2.5499    -1.0503 H       
  22 H22            2.1164    -2.5505     0.4824 H       
  23 H23            0.3366    -2.5648     0.4997 H       
@<TRIPOS>BOND
   1    1    2 ar
   2    1    6 ar
   3    1   14 1
   4    2    3 ar
   5    2   15 1
   6    3    4 ar
   7    3   13 1
   8    4    5 ar
   9    4   16 1
  10    5    6 ar
  11    5    7 1
  12    6   17 1
  13    7    8 2
  14    7   11 1
  15    8    9 1
  16    8   18 1
  17    9   10 1
  18   10   11 2
  19   10   12 1
  20   12   19 1
  21   12   20 1
  22   13   21 1
  23   13   22 1
  24   13   23 1

#	End of record

