#	Name: ASD03731461
#	Creating user name:	WinNT
#	Creation time:	15. 06. 2019 20:45

#	Modifying user name:	WinNT
#	Modification time:	15. 06. 2019 20:45

#	Program:	/corina/corina34_cracker 3.40 0067  02.08.2006

@<TRIPOS>MOLECULE
ASD03731461
  60   64    0    0    0
SMALL
NO_CHARGES


@<TRIPOS>ATOM
   1 C1            -0.1818     1.4928    -0.0614 C.2     
   2 C2            -0.0267    -0.0048     0.0045 C.3     
   3 C3            -0.7690    -0.6465    -1.1693 C.3     
   4 C4            -0.7275    -2.1694    -1.0277 C.3     
   5 O5             0.7985     2.2002    -0.1593 O.2     
   6 N6            -1.4101     2.0457    -0.0173 N.am    
   7 C7            -1.5609     3.5015    -0.0814 C.3     
   8 C8            -3.0457     3.8640    -0.0128 C.3     
   9 C9            -3.2031     5.3844    -0.0797 C.3     
  10 O10           -9.0076     2.0724     2.5716 O.3     
  11 C11          -10.4085     2.0163     2.8993 C.3     
  12 O12          -10.7035     3.3448     3.3696 O.3     
  13 C13           -9.8016     4.1612     2.7491 C.ar    
  14 C14           -8.7586     3.3783     2.2595 C.ar    
  15 C15           -9.7866     5.5312     2.5584 C.ar    
  16 C16           -8.7332     6.1372     1.8803 C.ar    
  17 C17           -7.6929     5.3456     1.4031 C.ar    
  18 C18           -7.7080     3.9786     1.5863 C.ar    
  19 O19           -8.5349     7.4512     1.5734 O.3     
  20 C20           -6.7077     6.2790     0.7519 C.3     
  21 C21           -7.1452     7.6607     1.2568 C.3     
  22 N22           -4.6249     5.7315    -0.0140 N.am    
  23 C23           -5.2899     5.9661     1.1348 C.2     
  24 C24           -6.7436     6.1931    -0.7451 C.ar    
  25 C25           -7.7343     6.3711    -1.6848 C.ar    
  26 C26           -7.4489     6.2192    -3.0300 C.ar    
  27 C27           -6.1666     5.8876    -3.4284 C.ar    
  28 C28           -5.1711     5.7073    -2.4909 C.ar    
  29 C29           -5.4492     5.8586    -1.1346 C.ar    
  30 O30           -4.8325     5.9316     2.2577 O.2     
  31 C31            1.4577    -0.3676    -0.0710 C.3     
  32 C32            2.1721     0.1436     1.1816 C.3     
  33 H33           -0.4432    -0.3722     0.9424 H       
  34 H34           -1.8057    -0.3099    -1.1714 H       
  35 H35           -0.2907    -0.3554    -2.1045 H       
  36 H36           -1.1073    -2.4535    -0.0463 H       
  37 H37           -1.3460    -2.6233    -1.8020 H       
  38 H38            0.3004    -2.5163    -1.1339 H       
  39 H39           -2.1943     1.4797     0.0569 H       
  40 H40           -1.0361     3.9584     0.7576 H       
  41 H41           -1.1399     3.8695    -1.0171 H       
  42 H42           -3.5704     3.4071    -0.8518 H       
  43 H43           -3.4667     3.4960     0.9229 H       
  44 H44           -2.6784     5.8413     0.7593 H       
  45 H45           -2.7822     5.7524    -1.0154 H       
  46 H46          -10.9999     1.7835     2.0138 H       
  47 H47          -10.5890     1.2830     3.6852 H       
  48 H48          -10.5978     6.1346     2.9382 H       
  49 H49           -6.8981     3.3750     1.2040 H       
  50 H50           -7.0353     8.4115     0.4743 H       
  51 H51           -6.5836     7.9431     2.1473 H       
  52 H52           -8.7349     6.6298    -1.3715 H       
  53 H53           -8.2254     6.3595    -3.7673 H       
  54 H54           -5.9438     5.7688    -4.4784 H       
  55 H55           -4.1723     5.4479    -2.8097 H       
  56 H56            1.5643    -1.4506    -0.1336 H       
  57 H57            1.8997     0.0927    -0.9547 H       
  58 H58            1.9987     1.2145     1.2873 H       
  59 H59            1.7845    -0.3754     2.0583 H       
  60 H60            3.2421    -0.0441     1.0918 H       
@<TRIPOS>BOND
   1    1    2 1
   2    1    5 2
   3    1    6 am
   4    2    3 1
   5    2   31 1
   6    2   33 1
   7    3    4 1
   8    3   34 1
   9    3   35 1
  10    4   36 1
  11    4   37 1
  12    4   38 1
  13    6    7 1
  14    6   39 1
  15    7    8 1
  16    7   40 1
  17    7   41 1
  18    8    9 1
  19    8   42 1
  20    8   43 1
  21    9   22 1
  22    9   44 1
  23    9   45 1
  24   10   11 1
  25   10   14 1
  26   11   12 1
  27   11   46 1
  28   11   47 1
  29   12   13 1
  30   13   14 ar
  31   13   15 ar
  32   14   18 ar
  33   15   16 ar
  34   15   48 1
  35   16   17 ar
  36   16   19 1
  37   17   18 ar
  38   17   20 1
  39   18   49 1
  40   19   21 1
  41   20   21 1
  42   20   23 1
  43   20   24 1
  44   21   50 1
  45   21   51 1
  46   22   23 am
  47   22   29 1
  48   23   30 2
  49   24   25 ar
  50   24   29 ar
  51   25   26 ar
  52   25   52 1
  53   26   27 ar
  54   26   53 1
  55   27   28 ar
  56   27   54 1
  57   28   29 ar
  58   28   55 1
  59   31   32 1
  60   31   56 1
  61   31   57 1
  62   32   58 1
  63   32   59 1
  64   32   60 1

#	End of record

