#	Name: ASD01410965
#	Creating user name:	WinNT
#	Creation time:	15. 06. 2019 19:19

#	Modifying user name:	WinNT
#	Modification time:	15. 06. 2019 19:19

#	Program:	/corina/corina34_cracker 3.40 0067  02.08.2006

@<TRIPOS>MOLECULE
ASD01410965
  56   58    0    0    0
SMALL
NO_CHARGES


@<TRIPOS>ATOM
   1 C1            -0.0287     1.8097     0.0311 C.ar    
   2 P2            -0.0121    -0.0042     0.0462 P.3     
   3 N3             0.1541    -0.5365     1.5885 N.pl3   
   4 O4            -1.2821    -0.5138    -0.5174 O.2     
   5 C5             0.1931    -1.9027     1.8529 C.2     
   6 C6             0.3306    -2.4128     3.1233 C.2     
   7 S7             0.3374    -4.1696     3.0559 S.3     
   8 C8             0.1535    -4.1429     1.3080 C.2     
   9 C9             0.0916    -2.8561     0.8666 C.2     
  10 C10            0.4483    -1.6430     4.3010 C.2     
  11 O11            0.4320    -0.4273     4.2378 O.2     
  12 O12            0.5788    -2.2552     5.4973 O.3     
  13 C13            0.0723    -5.3402     0.4453 C.ar    
  14 C14            0.1411    -6.6157     1.0086 C.ar    
  15 C15            0.0648    -7.7293     0.1984 C.ar    
  16 C16           -0.0792    -7.5840    -1.1713 C.ar    
  17 C17           -0.1475    -6.3213    -1.7359 C.ar    
  18 C18           -0.0791    -5.2002    -0.9353 C.ar    
  19 O19            1.2210    -0.5370    -0.8413 O.3     
  20 C20            1.3637    -0.2418    -2.2321 C.3     
  21 Cl21          -0.1739    -8.9903    -2.1846 Cl      
  22 C22           -1.2321     2.4898     0.0053 C.ar    
  23 C23           -1.2447     3.8719    -0.0063 C.ar    
  24 C24           -0.0539     4.5742     0.0084 C.ar    
  25 C25            1.1492     3.8943     0.0352 C.ar    
  26 C26            1.1617     2.5118     0.0512 C.ar    
  27 C27            2.4733     1.7705     0.0857 C.3     
  28 C28           -0.0676     6.0811    -0.0052 C.3     
  29 C29            2.6384    -0.8992    -2.7648 C.3     
  30 C30            2.7269    -0.6886    -4.2777 C.3     
  31 C31            3.8580    -0.2683    -2.0899 C.3     
  32 H32            0.2252     0.1006     2.3165 H       
  33 H33           -0.0246    -2.6038    -0.1771 H       
  34 H34            0.6525    -1.6461     6.2448 H       
  35 H35            0.2541    -6.7302     2.0765 H       
  36 H36            0.1179    -8.7166     0.6330 H       
  37 H37           -0.2595    -6.2142    -2.8047 H       
  38 H38           -0.1377    -4.2161    -1.3762 H       
  39 H39            0.5014    -0.6276    -2.7758 H       
  40 H40            1.4268     0.8377    -2.3698 H       
  41 H41           -2.1623     1.9412    -0.0062 H       
  42 H42           -2.1847     4.4031    -0.0272 H       
  43 H43            2.0794     4.4429     0.0464 H       
  44 H44            2.7755     1.5193    -0.9310 H       
  45 H45            3.2346     2.4004     0.5459 H       
  46 H46            2.3584     0.8557     0.6671 H       
  47 H47           -0.0890     6.4535     1.0190 H       
  48 H48            0.8280     6.4481    -0.5066 H       
  49 H49           -0.9517     6.4316    -0.5378 H       
  50 H50            2.6147    -1.9670    -2.5474 H       
  51 H51            2.7507     0.3792    -4.4951 H       
  52 H52            3.6351    -1.1570    -4.6572 H       
  53 H53            1.8581    -1.1380    -4.7585 H       
  54 H54            4.7661    -0.7367    -2.4694 H       
  55 H55            3.8818     0.7995    -2.3073 H       
  56 H56            3.7950    -0.4184    -1.0121 H       
@<TRIPOS>BOND
   1    1    2 1
   2    1   22 ar
   3    1   26 ar
   4    2    3 1
   5    2    4 2
   6    2   19 1
   7    3    5 1
   8    3   32 1
   9    5    6 2
  10    5    9 1
  11    6    7 1
  12    6   10 1
  13    7    8 1
  14    8    9 2
  15    8   13 1
  16    9   33 1
  17   10   11 2
  18   10   12 1
  19   12   34 1
  20   13   14 ar
  21   13   18 ar
  22   14   15 ar
  23   14   35 1
  24   15   16 ar
  25   15   36 1
  26   16   17 ar
  27   16   21 1
  28   17   18 ar
  29   17   37 1
  30   18   38 1
  31   19   20 1
  32   20   29 1
  33   20   39 1
  34   20   40 1
  35   22   23 ar
  36   22   41 1
  37   23   24 ar
  38   23   42 1
  39   24   25 ar
  40   24   28 1
  41   25   26 ar
  42   25   43 1
  43   26   27 1
  44   27   44 1
  45   27   45 1
  46   27   46 1
  47   28   47 1
  48   28   48 1
  49   28   49 1
  50   29   30 1
  51   29   31 1
  52   29   50 1
  53   30   51 1
  54   30   52 1
  55   30   53 1
  56   31   54 1
  57   31   55 1
  58   31   56 1

#	End of record

