#	Name: ASD01915347
#	Creating user name:	WinNT
#	Creation time:	15. 06. 2019 20:05

#	Modifying user name:	WinNT
#	Modification time:	15. 06. 2019 20:05

#	Program:	/corina/corina34_cracker 3.40 0067  02.08.2006

@<TRIPOS>MOLECULE
ASD01915347
  42   45    0    0    0
SMALL
NO_CHARGES


@<TRIPOS>ATOM
   1 C1             0.1293     0.4056     1.0333 C.2     
   2 C2             0.1739    -0.8144     1.6093 C.2     
   3 C3            -1.1752    -1.3336     1.8040 C.2     
   4 C4            -2.0845    -0.4655     1.3619 C.2     
   5 C5            -1.3333     0.7349     0.8318 C.3     
   6 Cl6           -1.5459    -2.8734     2.5146 Cl      
   7 C7             1.2726     1.2480     0.6789 C.2     
   8 N8             2.5547     0.9621     0.8601 N.2     
   9 C9             3.2283     2.0201     0.3871 C.2     
  10 N10            2.3565     2.8815    -0.0498 N.2     
  11 O11            1.2290     2.4607     0.1004 O.3     
  12 C12            4.7263     2.1829     0.3657 C.3     
  13 C13            5.2009     2.3546    -1.0791 C.3     
  14 C14            6.7253     2.4871    -1.1048 C.3     
  15 C15            7.1394     3.7290    -0.3091 C.3     
  16 N16            6.5641     3.6398     1.0399 N.am    
  17 C17            5.1177     3.4213     1.1780 C.3     
  18 C18            7.3482     3.7562     2.1299 C.2     
  19 O19            6.8515     3.7498     3.2394 O.2     
  20 C20            8.8112     3.8918     1.9763 C.ar    
  21 C21            9.3497     4.8409     1.0975 C.ar    
  22 N22           10.9832     3.2003     2.5727 N.ar    
  23 C23            9.6790     3.0803     2.7083 C.ar    
  24 F24           12.8648     4.1640     1.6448 F       
  25 C25           10.7247     4.9286     0.9894 C.ar    
  26 C26           11.5202     4.0819     1.7473 C.ar    
  27 H27            1.0799    -1.3328     1.8862 H       
  28 H28           -3.1568    -0.5933     1.3826 H       
  29 H29           -1.6066     1.6296     1.3913 H       
  30 H30           -1.5410     0.8730    -0.2292 H       
  31 H31            5.1945     1.2995     0.7999 H       
  32 H32            4.9020     1.4855    -1.6652 H       
  33 H33            4.7512     3.2515    -1.5049 H       
  34 H34            7.1751     1.6012    -0.6566 H       
  35 H35            7.0646     2.5859    -2.1360 H       
  36 H36            8.2263     3.7734    -0.2406 H       
  37 H37            6.7657     4.6235    -0.8074 H       
  38 H38            4.5792     4.2908     0.8011 H       
  39 H39            4.8708     3.2628     2.2278 H       
  40 H40            8.7066     5.4875     0.5190 H       
  41 H41            9.2773     2.3476     3.3925 H       
  42 H42           11.1749     5.6483     0.3218 H       
@<TRIPOS>BOND
   1    1    2 2
   2    1    7 1
   3    1    5 1
   4    2    3 1
   5    2   27 1
   6    3    4 2
   7    3    6 1
   8    4    5 1
   9    4   28 1
  10    5   29 1
  11    5   30 1
  12    7    8 2
  13    7   11 1
  14    8    9 1
  15    9   10 2
  16    9   12 1
  17   10   11 1
  18   12   13 1
  19   12   17 1
  20   12   31 1
  21   13   14 1
  22   13   32 1
  23   13   33 1
  24   14   15 1
  25   14   34 1
  26   14   35 1
  27   15   16 1
  28   15   36 1
  29   15   37 1
  30   16   17 1
  31   16   18 am
  32   17   38 1
  33   17   39 1
  34   18   19 2
  35   18   20 1
  36   20   21 ar
  37   20   23 ar
  38   21   25 ar
  39   21   40 1
  40   22   23 ar
  41   22   26 ar
  42   23   41 1
  43   24   26 1
  44   25   26 ar
  45   25   42 1

#	End of record

