#	Name: ASD01180309
#	Creating user name:	WinNT
#	Creation time:	15. 06. 2019 19:07

#	Modifying user name:	WinNT
#	Modification time:	15. 06. 2019 19:07

#	Program:	/corina/corina34_cracker 3.40 0067  02.08.2006

@<TRIPOS>MOLECULE
ASD01180309
  59   62    0    0    0
SMALL
NO_CHARGES


@<TRIPOS>ATOM
   1 C1             0.3355     1.5756    -0.3825 C.2     
   2 C2             0.3008     0.0709    -0.3057 C.3     
   3 C3             1.7266    -0.4771    -0.3925 C.3     
   4 O4             1.3922     2.1506    -0.4952 O.2     
   5 O5            -0.8080     2.2767    -0.3314 O.3     
   6 C6             2.8406    -2.6441    -0.3747 C.2     
   7 C7             2.8067    -4.1172    -0.2995 C.ar    
   8 C8             3.9958    -4.8605    -0.3578 C.ar    
   9 C9             3.9171    -6.2249    -0.2844 C.ar    
  10 C10            2.6689    -6.8319    -0.1549 C.ar    
  11 N11            1.5604    -6.1062    -0.1027 N.ar    
  12 C12            1.5922    -4.7912    -0.1636 C.ar    
  13 O13            3.9040    -2.0655    -0.4880 O.2     
  14 N14            1.6929    -1.9399    -0.3178 N.am    
  15 N15            2.5855    -8.2120    -0.0804 N.pl3   
  16 C16            3.8077    -9.0192    -0.0515 C.3     
  17 C17            5.1005    -9.5025     3.9951 C.ar    
  18 C18            4.2975   -10.4716     3.3971 C.ar    
  19 C19            3.8833   -10.3106     2.0904 C.ar    
  20 C20            4.2635    -9.1896     1.3748 C.ar    
  21 C21            5.0610    -8.2248     1.9633 C.ar    
  22 C22            5.4809    -8.3755     3.2694 C.ar    
  23 C23            5.5438    -9.6672     5.4016 C.ar    
  24 C24            6.3469    -8.6981     5.9996 C.ar    
  25 C25            6.7564    -8.8563     7.3081 C.ar    
  26 C26            6.3714    -9.9746     8.0255 C.ar    
  27 C27            5.5747   -10.9399     7.4367 C.ar    
  28 C28            5.1539   -10.7886     6.1309 C.ar    
  29 C29            6.8221   -10.1420     9.4538 C.3     
  30 F30            5.8838    -9.5567    10.3105 F       
  31 F31            6.9376   -11.5045     9.7496 F       
  32 F32            8.0634    -9.5203     9.6270 F       
  33 C33            1.2751    -8.8650    -0.0305 C.3     
  34 C34            0.8746    -9.7373    -1.2219 C.3     
  35 C35            1.2497   -10.3882     0.1109 C.3     
  36 H36           -0.1489    -0.2343     0.6391 H       
  37 H37           -0.2903    -0.3216    -1.1331 H       
  38 H38            2.1764    -0.1719    -1.3373 H       
  39 H39            2.3178    -0.0846     0.4349 H       
  40 H40           -0.7353     3.2395    -0.3844 H       
  41 H41            4.9511    -4.3671    -0.4586 H       
  42 H42            4.8136    -6.8256    -0.3267 H       
  43 H43            0.6708    -4.2301    -0.1128 H       
  44 H44            0.8446    -2.4014    -0.2274 H       
  45 H45            3.6074    -9.9975    -0.4883 H       
  46 H46            4.5877    -8.5181    -0.6248 H       
  47 H47            4.0000   -11.3472     3.9549 H       
  48 H48            3.2608   -11.0611     1.6259 H       
  49 H49            5.3553    -7.3516     1.3999 H       
  50 H50            6.1030    -7.6212     3.7282 H       
  51 H51            6.6486    -7.8250     5.4401 H       
  52 H52            7.3788    -8.1059     7.7726 H       
  53 H53            5.2774   -11.8112     8.0013 H       
  54 H54            4.5276   -11.5403     5.6738 H       
  55 H55            0.4869    -8.2998     0.4670 H       
  56 H56           -0.1772    -9.7464    -1.5080 H       
  57 H57            1.5861    -9.8253    -2.0429 H       
  58 H58            2.2081   -10.9045     0.1668 H       
  59 H59            0.4448   -10.8255     0.7017 H       
@<TRIPOS>BOND
   1    1    2 1
   2    1    4 2
   3    1    5 1
   4    2    3 1
   5    2   36 1
   6    2   37 1
   7    3   14 1
   8    3   38 1
   9    3   39 1
  10    5   40 1
  11    6    7 1
  12    6   13 2
  13    6   14 am
  14    7    8 ar
  15    7   12 ar
  16    8    9 ar
  17    8   41 1
  18    9   10 ar
  19    9   42 1
  20   10   11 ar
  21   10   15 1
  22   11   12 ar
  23   12   43 1
  24   14   44 1
  25   15   16 1
  26   15   33 1
  27   16   20 1
  28   16   45 1
  29   16   46 1
  30   17   18 ar
  31   17   22 ar
  32   17   23 1
  33   18   19 ar
  34   18   47 1
  35   19   20 ar
  36   19   48 1
  37   20   21 ar
  38   21   22 ar
  39   21   49 1
  40   22   50 1
  41   23   24 ar
  42   23   28 ar
  43   24   25 ar
  44   24   51 1
  45   25   26 ar
  46   25   52 1
  47   26   27 ar
  48   26   29 1
  49   27   28 ar
  50   27   53 1
  51   28   54 1
  52   29   30 1
  53   29   31 1
  54   29   32 1
  55   33   34 1
  56   33   35 1
  57   33   55 1
  58   34   35 1
  59   34   56 1
  60   34   57 1
  61   35   58 1
  62   35   59 1

#	End of record

