#	Name: ASD04560193
#	Creating user name:	WinNT
#	Creation time:	15. 06. 2019 20:49

#	Modifying user name:	WinNT
#	Modification time:	15. 06. 2019 20:49

#	Program:	/corina/corina34_cracker 3.40 0067  02.08.2006

@<TRIPOS>MOLECULE
ASD04560193
  40   42    0    0    0
SMALL
NO_CHARGES


@<TRIPOS>ATOM
   1 C1            -0.9851     6.5603    -2.3793 C.ar    
   2 C2            -2.1110     7.0921    -2.9768 C.ar    
   3 C3            -3.3443     6.9697    -2.3633 C.ar    
   4 C4            -3.4545     6.3148    -1.1504 C.ar    
   5 C5            -2.3324     5.7804    -0.5481 C.ar    
   6 C6            -1.0925     5.9016    -1.1615 C.ar    
   7 N7             0.0463     5.3613    -0.5538 N.am    
   8 C8             1.2303     5.9971    -0.6554 C.2     
   9 N9             2.3068     5.5265     0.0050 N.am    
  10 O10            1.3273     6.9954    -1.3429 O.2     
  11 C11            3.5586     6.1294    -0.1761 C.ar    
  12 C12            3.6492     7.4971    -0.3601 C.ar    
  13 C13            4.7151     5.3537    -0.1656 C.ar    
  14 C14            5.9450     5.9340    -0.3420 C.ar    
  15 C15            4.8922     8.0975    -0.5407 C.ar    
  16 S16            5.3397     9.7827    -0.7952 S.3     
  17 C17            6.0591     7.3268    -0.5370 C.ar    
  18 N18            7.1734     8.0631    -0.7245 N.2     
  19 C19            7.0374     9.3339    -0.8775 C.2     
  20 N20            8.0817    10.2227    -1.0785 N.am    
  21 C21            9.3509     9.7716    -1.1251 C.2     
  22 C22           10.4864    10.7380    -1.3437 C.3     
  23 O23            9.5792     8.5882    -0.9911 O.2     
  24 C24           -4.5707     7.5516    -3.0178 C.3     
  25 F25           -5.1524     6.5928    -3.8541 F       
  26 F26           -5.4894     7.9305    -2.0331 F       
  27 F27           -4.2088     8.6718    -3.7737 F       
  28 H28           -0.0228     6.6527    -2.8609 H       
  29 H29           -2.0282     7.6045    -3.9239 H       
  30 H30           -4.4190     6.2214    -0.6735 H       
  31 H31           -2.4191     5.2693     0.3994 H       
  32 H32           -0.0164     4.5291    -0.0595 H       
  33 H33            2.2150     4.7704     0.6056 H       
  34 H34            2.7536     8.1007    -0.3641 H       
  35 H35            4.6428     4.2864    -0.0170 H       
  36 H36            6.8334     5.3200    -0.3312 H       
  37 H37            7.8992    11.1693    -1.1856 H       
  38 H38           10.0898    11.7486    -1.4414 H       
  39 H39           11.1681    10.6958    -0.4941 H       
  40 H40           11.0228    10.4686    -2.2535 H       
@<TRIPOS>BOND
   1    1    2 ar
   2    1    6 ar
   3    1   28 1
   4    2    3 ar
   5    2   29 1
   6    3    4 ar
   7    3   24 1
   8    4    5 ar
   9    4   30 1
  10    5    6 ar
  11    5   31 1
  12    6    7 1
  13    7    8 am
  14    7   32 1
  15    8    9 am
  16    8   10 2
  17    9   11 1
  18    9   33 1
  19   11   13 ar
  20   11   12 ar
  21   12   15 ar
  22   12   34 1
  23   13   14 ar
  24   13   35 1
  25   14   17 ar
  26   14   36 1
  27   15   17 ar
  28   15   16 1
  29   16   19 1
  30   17   18 1
  31   18   19 2
  32   19   20 1
  33   20   21 am
  34   20   37 1
  35   21   22 1
  36   21   23 2
  37   22   38 1
  38   22   39 1
  39   22   40 1
  40   24   25 1
  41   24   26 1
  42   24   27 1

#	End of record

