#	Name: ASD08710090
#	Creating user name:	WinNT
#	Creation time:	15. 06. 2019 21:19

#	Modifying user name:	WinNT
#	Modification time:	15. 06. 2019 21:19

#	Program:	/corina/corina34_cracker 3.40 0067  02.08.2006

@<TRIPOS>MOLECULE
ASD08710090
  50   52    0    0    0
SMALL
NO_CHARGES


@<TRIPOS>ATOM
   1 N1            -0.1506     1.5092    -0.3538 N.am    
   2 C2            -0.0286     0.0481    -0.4556 C.3     
   3 C3             0.2419    -0.3202    -1.9196 C.3     
   4 N4             1.3400     0.5187    -2.4197 N.am    
   5 C5             1.2181     1.9798    -2.3179 C.3     
   6 C6             0.9475     2.3482    -0.8539 C.3     
   7 S7             2.6909    -0.1699    -3.0856 S.o2    
   8 O8             3.7349     0.7849    -2.9528 O.2     
   9 O9             2.7708    -1.4872    -2.5589 O.2     
  10 C10            2.3909    -0.3421    -4.8133 C.ar    
  11 C11            2.7355     0.6795    -5.6788 C.ar    
  12 C12            2.5013     0.5469    -7.0338 C.ar    
  13 C13            1.9198    -0.6126    -7.5258 C.ar    
  14 C14            1.5750    -1.6363    -6.6553 C.ar    
  15 C15            1.8164    -1.5010    -5.3018 C.ar    
  16 O16            1.6880    -0.7453    -8.8583 O.3     
  17 C17            1.0865    -1.9662    -9.2938 C.3     
  18 F18           -0.1608    -2.1169    -8.6784 F       
  19 F19            0.9206    -1.9349   -10.6826 F       
  20 F20            1.9108    -3.0419    -8.9467 F       
  21 C21           -1.2522     2.0698     0.1835 C.2     
  22 O22           -2.2028     1.3745     0.4844 O.2     
  23 C23           -0.1355     4.2533     0.6490 C.ar    
  24 C24           -1.3044     3.5303     0.4069 C.ar    
  25 C25           -2.5271     4.2113     0.3788 C.ar    
  26 C26           -2.5214     5.5785     0.5935 C.ar    
  27 C27           -1.3196     6.2222     0.8267 C.ar    
  28 N28           -0.1818     5.5541     0.8475 N.ar    
  29 C29           -1.3093     7.7108     1.0609 C.3     
  30 C30           -1.3303    -0.6093     0.0072 C.3     
  31 H31            0.7983    -0.2941     0.1666 H       
  32 H32            0.5246    -1.3708    -1.9862 H       
  33 H33           -0.6545    -0.1417    -2.5134 H       
  34 H34            2.1454     2.4481    -2.6476 H       
  35 H35            0.3911     2.3221    -2.9401 H       
  36 H36            0.6648     3.3987    -0.7873 H       
  37 H37            1.8440     2.1696    -0.2601 H       
  38 H38            3.1878     1.5821    -5.2952 H       
  39 H39            2.7703     1.3453    -7.7095 H       
  40 H40            1.1222    -2.5399    -7.0359 H       
  41 H41            1.5525    -2.2996    -4.6242 H       
  42 H42            0.8147     3.7408     0.6780 H       
  43 H43           -3.4510     3.6835     0.1940 H       
  44 H44           -3.4456     6.1371     0.5787 H       
  45 H45           -1.4181     7.9117     2.1267 H       
  46 H46           -0.3665     8.1278     0.7070 H       
  47 H47           -2.1359     8.1697     0.5185 H       
  48 H48           -2.1578    -0.2453    -0.6018 H       
  49 H49           -1.2490    -1.6910    -0.0995 H       
  50 H50           -1.5116    -0.3599     1.0527 H       
@<TRIPOS>BOND
   1    1    2 1
   2    1    6 1
   3    1   21 am
   4    2    3 1
   5    2   30 1
   6    2   31 1
   7    3    4 1
   8    3   32 1
   9    3   33 1
  10    4    5 1
  11    4    7 am
  12    5    6 1
  13    5   34 1
  14    5   35 1
  15    6   36 1
  16    6   37 1
  17    7    8 2
  18    7    9 2
  19    7   10 1
  20   10   11 ar
  21   10   15 ar
  22   11   12 ar
  23   11   38 1
  24   12   13 ar
  25   12   39 1
  26   13   14 ar
  27   13   16 1
  28   14   15 ar
  29   14   40 1
  30   15   41 1
  31   16   17 1
  32   17   18 1
  33   17   19 1
  34   17   20 1
  35   21   22 2
  36   21   24 1
  37   23   24 ar
  38   23   28 ar
  39   23   42 1
  40   24   25 ar
  41   25   26 ar
  42   25   43 1
  43   26   27 ar
  44   26   44 1
  45   27   28 ar
  46   27   29 1
  47   29   45 1
  48   29   46 1
  49   29   47 1
  50   30   48 1
  51   30   49 1
  52   30   50 1

#	End of record

