#	Name: ASD03430125
#	Creating user name:	WinNT
#	Creation time:	15. 06. 2019 20:40

#	Modifying user name:	WinNT
#	Modification time:	15. 06. 2019 20:40

#	Program:	/corina/corina34_cracker 3.40 0067  02.08.2006

@<TRIPOS>MOLECULE
ASD03430125
  56   62    0    0    0
SMALL
NO_CHARGES


@<TRIPOS>ATOM
   1 C1             0.4622     1.1236    -0.5861 C.ar    
   2 C2             0.4294    -0.2469    -0.4509 C.ar    
   3 C3             1.5971    -0.9491    -0.2385 C.ar    
   4 C4             2.8148    -0.2795    -0.1488 C.ar    
   5 C5             2.8402     1.1022    -0.2952 C.ar    
   6 C6             1.6669     1.8131    -0.5180 C.ar    
   7 O7             3.8371    -1.1482     0.0949 O.3     
   8 C8             1.8985    -2.4142    -0.0770 C.3     
   9 C9             3.4217    -2.4821    -0.2558 C.3     
  10 C10            0.5915    -3.9910     0.9826 C.ar    
  11 C11            1.4675    -2.9461     1.2571 C.ar    
  12 C12            1.1812    -3.2579    -1.0919 C.2     
  13 N13            0.4442    -4.1480    -0.3981 N.am    
  14 O14            1.2512    -3.1576    -2.2986 O.2     
  15 C15            1.7670    -2.6047     2.5684 C.ar    
  16 C16            1.1873    -3.3148     3.6197 C.ar    
  17 C17            0.3187    -4.3527     3.3477 C.ar    
  18 C18            0.0201    -4.6911     2.0431 C.ar    
  19 C19            2.7018    -1.4874     2.8514 C.ar    
  20 C20           -0.6289     2.1532    -0.8054 C.3     
  21 C21            0.0998     3.4716    -0.4529 C.3     
  22 O22            1.4786     3.1495    -0.7021 O.3     
  23 C23           -0.4110    -5.1624    -1.0192 C.3     
  24 C24           -1.8154    -4.5904    -1.2225 C.3     
  25 C25           -2.7234    -5.6504    -1.8757 C.3     
  26 C26           -3.8848    -5.8284    -0.8677 C.3     
  27 C27           -3.8130    -4.5113    -0.0539 C.3     
  28 O28           -2.3958    -4.2558     0.0492 O.3     
  29 C29            2.4311    -0.1933     2.4002 C.ar    
  30 N30            3.2905     0.7730     2.6748 N.ar    
  31 C31            4.3881     0.5287     3.3628 C.ar    
  32 N32            4.6813    -0.6774     3.8068 N.ar    
  33 C33            3.8739    -1.6996     3.5813 C.ar    
  34 H34           -0.5123    -0.7722    -0.5110 H       
  35 H35            3.7811     1.6290    -0.2349 H       
  36 H36            3.6803    -2.7086    -1.2901 H       
  37 H37            3.8588    -3.2145     0.4229 H       
  38 H38            1.4173    -3.0540     4.6422 H       
  39 H39           -0.1299    -4.9038     4.1610 H       
  40 H40           -0.6618    -5.5044     1.8431 H       
  41 H41           -0.9586     2.1561    -1.8443 H       
  42 H42           -1.4686     1.9803    -0.1323 H       
  43 H43           -0.2312     4.2815    -1.1031 H       
  44 H44           -0.0533     3.7292     0.5951 H       
  45 H45            0.0076    -5.4494    -1.9838 H       
  46 H46           -0.4654    -6.0376    -0.3718 H       
  47 H47           -1.7664    -3.7039    -1.8549 H       
  48 H48           -3.1009    -5.2916    -2.8333 H       
  49 H49           -2.1831    -6.5883    -2.0048 H       
  50 H50           -4.8399    -5.9140    -1.3859 H       
  51 H51           -3.7135    -6.6923    -0.2255 H       
  52 H52           -4.3110    -3.7023    -0.5883 H       
  53 H53           -4.2516    -4.6466     0.9348 H       
  54 H54            1.5341     0.0145     1.8358 H       
  55 H55            5.0685     1.3418     3.5688 H       
  56 H56            4.1206    -2.6849     3.9485 H       
@<TRIPOS>BOND
   1    1    2 ar
   2    1    6 ar
   3    1   20 1
   4    2    3 ar
   5    2   34 1
   6    3    4 ar
   7    3    8 1
   8    4    5 ar
   9    4    7 1
  10    5    6 ar
  11    5   35 1
  12    6   22 1
  13    7    9 1
  14    8    9 1
  15    8   11 1
  16    8   12 1
  17    9   36 1
  18    9   37 1
  19   10   11 ar
  20   10   13 1
  21   10   18 ar
  22   11   15 ar
  23   12   13 am
  24   12   14 2
  25   13   23 1
  26   15   16 ar
  27   15   19 1
  28   16   17 ar
  29   16   38 1
  30   17   18 ar
  31   17   39 1
  32   18   40 1
  33   19   29 ar
  34   19   33 ar
  35   20   21 1
  36   20   41 1
  37   20   42 1
  38   21   22 1
  39   21   43 1
  40   21   44 1
  41   23   24 1
  42   23   45 1
  43   23   46 1
  44   24   25 1
  45   24   28 1
  46   24   47 1
  47   25   26 1
  48   25   48 1
  49   25   49 1
  50   26   27 1
  51   26   50 1
  52   26   51 1
  53   27   28 1
  54   27   52 1
  55   27   53 1
  56   29   30 ar
  57   29   54 1
  58   30   31 ar
  59   31   32 ar
  60   31   55 1
  61   32   33 ar
  62   33   56 1

#	End of record

