#	Name: ASD00431048
#	Creating user name:	WinNT
#	Creation time:	15. 06. 2019 18:35

#	Modifying user name:	WinNT
#	Modification time:	15. 06. 2019 18:35

#	Program:	/corina/corina34_cracker 3.40 0067  02.08.2006

@<TRIPOS>MOLECULE
ASD00431048
  65   69    0    0    0
SMALL
NO_CHARGES


@<TRIPOS>ATOM
   1 C1            -0.0966     1.6285     0.0001 C.2     
   2 C2            -0.0772     0.1055    -0.0609 C.3     
   3 C3            -1.3065    -0.2499     0.7998 C.3     
   4 C4            -2.1389     1.0179     0.7489 C.2     
   5 N5            -1.4270     1.9919     0.1481 N.am    
   6 C6            -2.0729    -1.4248     0.1890 C.3     
   7 O7            -3.2663     1.1358     1.1802 O.2     
   8 C8            -3.1733    -1.8489     1.1272 C.2     
   9 O9            -3.9792    -2.8669     0.7976 O.3     
  10 O10           -3.3292    -1.2687     2.1802 O.2     
  11 C11           -1.9871     3.2720    -0.2923 C.3     
  12 C12           -1.9957     4.2403     0.8624 C.ar    
  13 C13           -1.4298     3.8931     2.0508 C.ar    
  14 C14           -2.5827     5.5084     0.7162 C.ar    
  15 C15           -2.5807     6.4058     1.8135 C.ar    
  16 C16           -1.9917     6.0098     3.0261 C.ar    
  17 C17           -1.4277     4.7752     3.1293 C.ar    
  18 C18            0.9754     2.3788    -0.0117 C.2     
  19 C19            2.3599     1.8096    -0.0450 C.3     
  20 C20            2.3917     0.2932    -0.1113 C.3     
  21 C21            1.2221    -0.3416     0.6149 C.3     
  22 N22           -4.8500    -3.1636     1.5958 N.am    
  23 C23           -6.0730    -2.6196     1.5693 C.2     
  24 C24           -6.9026    -3.2049     2.6913 C.3     
  25 C25           -5.9367    -4.1919     3.3781 C.3     
  26 C26           -4.6647    -4.0647     2.5685 C.2     
  27 O27           -6.4553    -1.7891     0.7726 O.2     
  28 O28           -3.6379    -4.6767     2.7727 O.2     
  29 C29           -3.1724     5.9045    -0.4965 C.ar    
  30 C30           -3.7319     7.1406    -0.6012 C.ar    
  31 C31           -3.7298     8.0230     0.4778 C.ar    
  32 C32           -3.1731     7.6721     1.6689 C.ar    
  33 C33           -0.1946    -0.4164    -1.4698 C.2     
  34 O34           -0.4100     0.3474    -2.3809 O.2     
  35 O35           -0.0598    -1.7296    -1.7125 O.3     
  36 C36           -0.0030    -3.6782    -3.1720 C.3     
  37 C37           -0.1849    -2.1611    -3.0932 C.3     
  38 H38           -1.0080    -0.4739     1.8239 H       
  39 H39           -2.5052    -1.1205    -0.7642 H       
  40 H40           -1.3905    -2.2595     0.0284 H       
  41 H41           -1.3780     3.6761    -1.1008 H       
  42 H42           -3.0067     3.1199    -0.6465 H       
  43 H43           -0.9760     2.9191     2.1594 H       
  44 H44           -1.9825     6.6832     3.8704 H       
  45 H45           -0.9760     4.4731     4.0626 H       
  46 H46            0.8568     3.4522     0.0028 H       
  47 H47            2.8798     2.2077    -0.9163 H       
  48 H48            2.8907     2.1307     0.8512 H       
  49 H49            2.3609    -0.0159    -1.1561 H       
  50 H50            3.3219    -0.0609     0.3332 H       
  51 H51            1.2119    -0.0133     1.6542 H       
  52 H52            1.3074    -1.4274     0.5719 H       
  53 H53           -7.2123    -2.4247     3.3867 H       
  54 H54           -7.7698    -3.7314     2.2928 H       
  55 H55           -5.7660    -3.9027     4.4151 H       
  56 H56           -6.3235    -5.2094     3.3213 H       
  57 H57           -3.1811     5.2314    -1.3412 H       
  58 H58           -4.1840     7.4425    -1.5344 H       
  59 H59           -4.1804     8.9984     0.3680 H       
  60 H60           -3.1789     8.3663     2.4963 H       
  61 H61           -0.0969    -4.0021    -4.2085 H       
  62 H62            0.9845    -3.9457    -2.7958 H       
  63 H63           -0.7668    -4.1676    -2.5677 H       
  64 H64           -1.1724    -1.8936    -3.4694 H       
  65 H65            0.5789    -1.6717    -3.6975 H       
@<TRIPOS>BOND
   1    1    2 1
   2    1   18 2
   3    1    5 1
   4    2   33 1
   5    2    3 1
   6    2   21 1
   7    3    4 1
   8    3    6 1
   9    3   38 1
  10    4    5 am
  11    4    7 2
  12    5   11 1
  13    6    8 1
  14    6   39 1
  15    6   40 1
  16    8    9 1
  17    8   10 2
  18    9   22 1
  19   11   12 1
  20   11   41 1
  21   11   42 1
  22   12   13 ar
  23   12   14 ar
  24   13   17 ar
  25   13   43 1
  26   14   29 ar
  27   14   15 ar
  28   15   16 ar
  29   15   32 ar
  30   16   17 ar
  31   16   44 1
  32   17   45 1
  33   18   19 1
  34   18   46 1
  35   19   20 1
  36   19   47 1
  37   19   48 1
  38   20   21 1
  39   20   49 1
  40   20   50 1
  41   21   51 1
  42   21   52 1
  43   22   23 am
  44   22   26 am
  45   23   24 1
  46   23   27 2
  47   24   25 1
  48   24   53 1
  49   24   54 1
  50   25   26 1
  51   25   55 1
  52   25   56 1
  53   26   28 2
  54   29   30 ar
  55   29   57 1
  56   30   31 ar
  57   30   58 1
  58   31   32 ar
  59   31   59 1
  60   32   60 1
  61   33   34 2
  62   33   35 1
  63   35   37 1
  64   36   37 1
  65   36   61 1
  66   36   62 1
  67   36   63 1
  68   37   64 1
  69   37   65 1

#	End of record

