#	Name: ASD07301360
#	Creating user name:	WinNT
#	Creation time:	15. 06. 2019 21:11

#	Modifying user name:	WinNT
#	Modification time:	15. 06. 2019 21:11

#	Program:	/corina/corina34_cracker 3.40 0067  02.08.2006

@<TRIPOS>MOLECULE
ASD07301360
  43   44    0    0    0
SMALL
NO_CHARGES


@<TRIPOS>ATOM
   1 C1            -0.5382     0.5496     1.2999 C.3     
   2 C2             0.0024    -0.0038     0.0067 C.2     
   3 C3             1.3293    -0.6209    -0.0274 C.2     
   4 C4             1.4658    -2.0713     0.1150 C.2     
   5 C5             2.8319    -2.7066     0.0800 C.3     
   6 O6            -0.6623     0.0622    -1.0065 O.2     
   7 O7             0.4788    -2.7621     0.2614 O.2     
   8 N8             2.4057     0.1326    -0.1870 N.2     
   9 N9             2.2805     1.3960    -0.4155 N.pl3   
  10 C10            3.4079     2.1704    -0.6885 C.ar    
  11 C11            3.2750     3.5320    -0.9350 C.ar    
  12 C12            4.3935     4.2954    -1.2043 C.ar    
  13 C13            5.6450     3.7071    -1.2291 C.ar    
  14 C14            5.7812     2.3525    -0.9848 C.ar    
  15 C15            4.6680     1.5837    -0.7090 C.ar    
  16 C16            6.8632     4.5439    -1.5236 C.3     
  17 C17            7.8271     4.4766    -0.3372 C.3     
  18 C18            9.0639     5.3261    -0.6362 C.3     
  19 C19            9.7595     4.7910    -1.8894 C.3     
  20 C20            8.7956     4.8583    -3.0757 C.3     
  21 C21            7.5588     4.0087    -2.7768 C.3     
  22 H22            0.1545     0.3222     2.1102 H       
  23 H23           -0.6534     1.6300     1.2128 H       
  24 H24           -1.5068     0.0969     1.5121 H       
  25 H25            3.5884    -1.9341    -0.0577 H       
  26 H26            3.0135    -3.2297     1.0188 H       
  27 H27            2.8818    -3.4155    -0.7465 H       
  28 H28            1.4022     1.8075    -0.3975 H       
  29 H29            2.2981     3.9921    -0.9161 H       
  30 H30            4.2910     5.3533    -1.3963 H       
  31 H31            6.7599     1.8965    -1.0057 H       
  32 H32            4.7756     0.5269    -0.5136 H       
  33 H33            6.5621     5.5783    -1.6888 H       
  34 H34            7.3315     4.8578     0.5556 H       
  35 H35            8.1281     3.4421    -0.1720 H       
  36 H36            8.7628     6.3606    -0.8014 H       
  37 H37            9.7506     5.2782     0.2090 H       
  38 H38           10.6406     5.3962    -2.1024 H       
  39 H39           10.0606     3.7565    -1.7242 H       
  40 H40            8.4946     5.8928    -3.2410 H       
  41 H41            9.2912     4.4770    -3.9686 H       
  42 H42            7.8599     2.9742    -2.6115 H       
  43 H43            6.8721     4.0567    -3.6220 H       
@<TRIPOS>BOND
   1    1    2 1
   2    1   22 1
   3    1   23 1
   4    1   24 1
   5    2    3 1
   6    2    6 2
   7    3    4 1
   8    3    8 2
   9    4    5 1
  10    4    7 2
  11    5   25 1
  12    5   26 1
  13    5   27 1
  14    8    9 1
  15    9   10 1
  16    9   28 1
  17   10   11 ar
  18   10   15 ar
  19   11   12 ar
  20   11   29 1
  21   12   13 ar
  22   12   30 1
  23   13   14 ar
  24   13   16 1
  25   14   15 ar
  26   14   31 1
  27   15   32 1
  28   16   17 1
  29   16   21 1
  30   16   33 1
  31   17   18 1
  32   17   34 1
  33   17   35 1
  34   18   19 1
  35   18   36 1
  36   18   37 1
  37   19   20 1
  38   19   38 1
  39   19   39 1
  40   20   21 1
  41   20   40 1
  42   20   41 1
  43   21   42 1
  44   21   43 1

#	End of record

