#	Name: ASD03092028
#	Creating user name:	WinNT
#	Creation time:	15. 06. 2019 20:31

#	Modifying user name:	WinNT
#	Modification time:	15. 06. 2019 20:31

#	Program:	/corina/corina34_cracker 3.40 0067  02.08.2006

@<TRIPOS>MOLECULE
ASD03092028
  46   48    0    0    0
SMALL
NO_CHARGES


@<TRIPOS>ATOM
   1 N1            -0.0063     1.4052    -0.2377 N.pl3   
   2 C2             0.0287     0.0421    -0.2422 C.2     
   3 C3            -1.2602    -0.4006    -0.1510 C.2     
   4 C4            -2.0951     0.7221    -0.0897 C.2     
   5 N5            -1.3463     1.7998    -0.1353 N.2     
   6 C6             1.1522     2.2982    -0.3190 C.3     
   7 C7             1.5207     2.5126    -1.7644 C.2     
   8 N8            -3.4917     0.6993     0.0095 N.pl3   
   9 C9            -4.2028     1.8954     0.1317 C.ar    
  10 C10           -3.7101     3.0596    -0.4441 C.ar    
  11 C11           -4.4163     4.2428    -0.3222 C.ar    
  12 C12           -5.6134     4.2674     0.3735 C.ar    
  13 C13           -6.1066     3.1080     0.9484 C.ar    
  14 C14           -5.4067     1.9213     0.8242 C.ar    
  15 F15           -3.9375     5.3753    -0.8820 F       
  16 C16            1.2400    -0.8021    -0.3307 C.ar    
  17 C17            1.1290    -2.1868    -0.2055 C.ar    
  18 C18            2.2715    -2.9630    -0.2905 C.ar    
  19 C19            3.4890    -2.3300    -0.4981 C.ar    
  20 C20            3.5269    -0.9524    -0.6133 C.ar    
  21 N21            2.4242    -0.2362    -0.5341 N.ar    
  22 C22            2.1953    -4.4625    -0.1601 C.3     
  23 N23            2.5636     3.3045    -2.0837 N.am    
  24 O24            0.8788     1.9727    -2.6404 O.2     
  25 C25            2.9218     3.5130    -3.4888 C.3     
  26 C26            3.3389     3.9567    -1.0255 C.3     
  27 F27           -7.2745     3.1351     1.6269 F       
  28 H28           -1.5787    -1.4323    -0.1298 H       
  29 H29            0.9055     3.2560     0.1391 H       
  30 H30            1.9944     1.8497     0.2080 H       
  31 H31           -3.9653    -0.1470    -0.0066 H       
  32 H32           -2.7762     3.0410    -0.9862 H       
  33 H33           -6.1630     5.1922     0.4683 H       
  34 H34           -5.7918     1.0173     1.2724 H       
  35 H35            0.1652    -2.6466    -0.0441 H       
  36 H36            4.3986    -2.9080    -0.5687 H       
  37 H37            4.4731    -0.4573    -0.7745 H       
  38 H38            2.0458    -4.9057    -1.1447 H       
  39 H39            3.1241    -4.8374     0.2699 H       
  40 H40            1.3610    -4.7288     0.4887 H       
  41 H41            2.3819     4.3766    -3.8771 H       
  42 H42            3.9945     3.6893    -3.5680 H       
  43 H43            2.6554     2.6281    -4.0668 H       
  44 H44            4.1599     3.3065    -0.7233 H       
  45 H45            3.7401     4.8994    -1.3975 H       
  46 H46            2.6937     4.1494    -0.1684 H       
@<TRIPOS>BOND
   1    1    2 1
   2    1    6 1
   3    1    5 1
   4    2    3 2
   5    2   16 1
   6    3    4 1
   7    3   28 1
   8    4    5 2
   9    4    8 1
  10    6    7 1
  11    6   29 1
  12    6   30 1
  13    7   23 am
  14    7   24 2
  15    8    9 1
  16    8   31 1
  17    9   10 ar
  18    9   14 ar
  19   10   11 ar
  20   10   32 1
  21   11   12 ar
  22   11   15 1
  23   12   13 ar
  24   12   33 1
  25   13   14 ar
  26   13   27 1
  27   14   34 1
  28   16   17 ar
  29   16   21 ar
  30   17   18 ar
  31   17   35 1
  32   18   19 ar
  33   18   22 1
  34   19   20 ar
  35   19   36 1
  36   20   21 ar
  37   20   37 1
  38   22   38 1
  39   22   39 1
  40   22   40 1
  41   23   25 1
  42   23   26 1
  43   25   41 1
  44   25   42 1
  45   25   43 1
  46   26   44 1
  47   26   45 1
  48   26   46 1

#	End of record

