#	Name: ASD01478043
#	Creating user name:	WinNT
#	Creation time:	15. 06. 2019 19:21

#	Modifying user name:	WinNT
#	Modification time:	15. 06. 2019 19:21

#	Program:	/corina/corina34_cracker 3.40 0067  02.08.2006

@<TRIPOS>MOLECULE
ASD01478043
  79   82    0    0    0
SMALL
NO_CHARGES


@<TRIPOS>ATOM
   1 C1             0.5522     0.7974     2.3385 C.3     
   2 C2             0.4961    -0.7259     2.6105 C.3     
   3 C3             2.0135     1.1827     2.6453 C.3     
   4 C4             2.8542    -0.0940     2.4753 C.3     
   5 C5             1.8621    -1.2223     2.0820 C.3     
   6 C6            -0.8941     2.6489     2.7582 C.2     
   7 O7            -0.3563     1.5053     3.2227 O.3     
   8 N8            -1.7454     3.3548     3.5286 N.am    
   9 O9            -0.6119     3.0446     1.6445 O.2     
  10 C10           -3.5770     4.2776     2.1962 C.3     
  11 C11           -2.3306     4.5991     3.0232 C.3     
  12 C12           -2.7174     5.4960     4.2009 C.3     
  13 C13           -3.2125     6.8444     3.6741 C.3     
  14 N14           -3.4436     7.7534     4.7995 N.am    
  15 S15           -2.2587     8.8124     5.2652 S.o2    
  16 C16           -2.5012    10.3003     4.3531 C.ar    
  17 C17           -3.3093    11.2992     4.8640 C.ar    
  18 C18           -3.5010    12.4667     4.1508 C.ar    
  19 C19           -2.8819    12.6364     2.9210 C.ar    
  20 C20           -2.0715    11.6327     2.4105 C.ar    
  21 C21           -1.8785    10.4694     3.1302 C.ar    
  22 O22           -2.5163     9.1296     6.6262 O.2     
  23 O23           -1.0286     8.2617     4.8149 O.2     
  24 C24           -4.7228     7.7255     5.5129 C.3     
  25 C25           -5.8454     8.1498     4.5638 C.3     
  26 C26           -7.1959     7.9774     5.2620 C.3     
  27 C27           -5.6564     9.6172     4.1741 C.3     
  28 O28           -3.7561     4.8691     4.9560 O.3     
  29 O29            3.3678    -0.4862     3.7656 O.3     
  30 C30            3.5474    -1.9162     3.6973 C.3     
  31 C31            2.3128    -2.4323     2.9263 C.3     
  32 O32           -3.0692    13.7839     2.2173 O.3     
  33 C33           -2.4006    13.8896     0.9588 C.3     
  34 C34           -3.1786     3.4975     0.9699 C.ar    
  35 C35           -3.1340     2.1165     1.0135 C.ar    
  36 C36           -2.7686     1.4010    -0.1114 C.ar    
  37 C37           -2.4482     2.0663    -1.2800 C.ar    
  38 C38           -2.4937     3.4472    -1.3238 C.ar    
  39 C39           -2.8633     4.1626    -0.2002 C.ar    
  40 H40            0.3130     1.0078     1.2962 H       
  41 H41            0.4006    -0.9238     3.6782 H       
  42 H42           -0.3222    -1.1866     2.0571 H       
  43 H43            2.3519     1.9477     1.9464 H       
  44 H44            2.0954     1.5495     3.6685 H       
  45 H45            3.6410     0.0343     1.7319 H       
  46 H46            1.8516    -1.4242     1.0109 H       
  47 H47           -1.9706     3.0389     4.4177 H       
  48 H48           -4.2677     3.6845     2.7956 H       
  49 H49           -4.0623     5.2058     1.8946 H       
  50 H50           -1.6024     5.1152     2.3974 H       
  51 H51           -1.8479     5.6525     4.8394 H       
  52 H52           -2.4622     7.2725     3.0094 H       
  53 H53           -4.1437     6.7006     3.1261 H       
  54 H54           -3.7913    11.1664     5.8213 H       
  55 H55           -4.1325    13.2464     4.5502 H       
  56 H56           -1.5885    11.7625     1.4533 H       
  57 H57           -1.2478     9.6878     2.7332 H       
  58 H58           -4.9152     6.7154     5.8746 H       
  59 H59           -4.6825     8.4125     6.3581 H       
  60 H60           -5.8177     7.5295     3.6680 H       
  61 H61           -7.2236     8.5977     6.1578 H       
  62 H62           -7.9956     8.2797     4.5859 H       
  63 H63           -7.3305     6.9320     5.5396 H       
  64 H64           -5.6910    10.2382     5.0693 H       
  65 H65           -4.6913     9.7413     3.6830 H       
  66 H66           -6.4522     9.9175     3.4926 H       
  67 H67           -4.5913     4.7796     4.4770 H       
  68 H68            4.4617    -2.1583     3.1554 H       
  69 H69            3.5748    -2.3436     4.6996 H       
  70 H70            1.5258    -2.7278     3.6201 H       
  71 H71            2.5872    -3.2668     2.2811 H       
  72 H72           -2.6346    14.8515     0.5027 H       
  73 H73           -1.3242    13.8122     1.1116 H       
  74 H74           -2.7331    13.0857     0.3021 H       
  75 H75           -3.3844     1.5967     1.9264 H       
  76 H76           -2.7331     0.3221    -0.0772 H       
  77 H77           -2.1620     1.5073    -2.1586 H       
  78 H78           -2.2430     3.9671    -2.2366 H       
  79 H79           -2.9024     5.2413    -0.2355 H       
@<TRIPOS>BOND
   1    1    2 1
   2    1    3 1
   3    1    7 1
   4    1   40 1
   5    2    5 1
   6    2   41 1
   7    2   42 1
   8    3    4 1
   9    3   43 1
  10    3   44 1
  11    4    5 1
  12    4   29 1
  13    4   45 1
  14    5   31 1
  15    5   46 1
  16    6    7 1
  17    6    8 am
  18    6    9 2
  19    8   11 1
  20    8   47 1
  21   10   11 1
  22   10   34 1
  23   10   48 1
  24   10   49 1
  25   11   12 1
  26   11   50 1
  27   12   13 1
  28   12   28 1
  29   12   51 1
  30   13   14 1
  31   13   52 1
  32   13   53 1
  33   14   15 am
  34   14   24 1
  35   15   16 1
  36   15   22 2
  37   15   23 2
  38   16   17 ar
  39   16   21 ar
  40   17   18 ar
  41   17   54 1
  42   18   19 ar
  43   18   55 1
  44   19   20 ar
  45   19   32 1
  46   20   21 ar
  47   20   56 1
  48   21   57 1
  49   24   25 1
  50   24   58 1
  51   24   59 1
  52   25   26 1
  53   25   27 1
  54   25   60 1
  55   26   61 1
  56   26   62 1
  57   26   63 1
  58   27   64 1
  59   27   65 1
  60   27   66 1
  61   28   67 1
  62   29   30 1
  63   30   31 1
  64   30   68 1
  65   30   69 1
  66   31   70 1
  67   31   71 1
  68   32   33 1
  69   33   72 1
  70   33   73 1
  71   33   74 1
  72   34   35 ar
  73   34   39 ar
  74   35   36 ar
  75   35   75 1
  76   36   37 ar
  77   36   76 1
  78   37   38 ar
  79   37   77 1
  80   38   39 ar
  81   38   78 1
  82   39   79 1

#	End of record

