#	Name: ASD01814868
#	Creating user name:	WinNT
#	Creation time:	15. 06. 2019 19:33

#	Modifying user name:	WinNT
#	Modification time:	15. 06. 2019 19:33

#	Program:	/corina/corina34_cracker 3.40 0067  02.08.2006

@<TRIPOS>MOLECULE
ASD01814868
  54   57    0    0    0
SMALL
NO_CHARGES


@<TRIPOS>ATOM
   1 C1            -0.0169     1.3972     0.0097 C.2     
   2 C2             0.0021    -0.0041     0.0020 C.2     
   3 C3             1.1986    -0.6593    -0.0129 C.2     
   4 C4             2.3918     0.0821    -0.0204 C.2     
   5 N5             2.3437     1.4497    -0.0122 N.am    
   6 C6             1.1421     2.0937     0.0024 C.2     
   7 C7             3.6227    -0.5889    -0.0356 C.2     
   8 C8             4.7877     0.1218    -0.0425 C.2     
   9 C9             4.7345     1.5280    -0.0346 C.2     
  10 C10            3.4812     2.1736    -0.0189 C.2     
  11 O11            3.4258     3.3917    -0.0123 O.2     
  12 C12            5.9703     2.3140    -0.0413 C.2     
  13 O13            5.9124     3.6618    -0.0337 O.3     
  14 O14            7.0487     1.7516    -0.0537 O.2     
  15 C15            3.6593    -2.0954    -0.0439 C.3     
  16 N16            3.7787    -2.5747    -1.4274 N.3     
  17 C17            4.0550    -4.0176    -1.4629 C.3     
  18 C18            4.0930    -4.4914    -2.9177 C.3     
  19 N19            5.1256    -3.7424    -3.6473 N.3     
  20 C20            4.8494    -2.2994    -3.6118 C.3     
  21 C21            4.8113    -1.8256    -2.1570 C.3     
  22 H22            5.0173    -4.2153    -0.9907 H       
  23 C23            5.2391    -4.1981    -4.9627 C.ar    
  24 C24            6.1630    -3.6183    -5.8230 C.ar    
  25 C25            4.4325    -5.2359    -5.4119 C.ar    
  26 C26            4.5473    -5.6840    -6.7132 C.ar    
  27 C27            5.4643    -5.1011    -7.5685 C.ar    
  28 C28            6.2726    -4.0713    -7.1230 C.ar    
  29 H29            4.3265    -5.5557    -2.9475 H       
  30 H30            3.1221    -4.3186    -3.3819 H       
  31 C31            7.2705    -3.4391    -8.0587 C.3     
  32 F32            7.1930    -4.0583    -9.3108 F       
  33 F33            6.9847    -2.0763    -8.1938 F       
  34 F34            8.5603    -3.5958    -7.5400 F       
  35 C35            3.6726    -6.8099    -7.2014 C.3     
  36 F36            2.4903    -6.2846    -7.7338 F       
  37 F37            4.3495    -7.5310    -8.1908 F       
  38 F38            3.3659    -7.6592    -6.1329 F       
  39 H39           -0.9605     1.9226     0.0170 H       
  40 H40           -0.9233    -0.5609     0.0082 H       
  41 H41            1.2282    -1.7389    -0.0187 H       
  42 H42            1.1156     3.1733     0.0087 H       
  43 H43            5.7393    -0.3889    -0.0536 H       
  44 H44            6.7544     4.1373    -0.0385 H       
  45 H45            4.5153    -2.4412     0.5356 H       
  46 H46            2.7412    -2.4836     0.3971 H       
  47 H47            3.2701    -4.5514    -0.9270 H       
  48 H48            5.6342    -1.7656    -4.1477 H       
  49 H49            3.8870    -2.1017    -4.0839 H       
  50 H50            4.5779    -0.7613    -2.1271 H       
  51 H51            5.7823    -1.9984    -1.6927 H       
  52 H52            6.7945    -2.8140    -5.4757 H       
  53 H53            3.7165    -5.6920    -4.7442 H       
  54 H54            5.5526    -5.4540    -8.5854 H       
@<TRIPOS>BOND
   1    1    2 1
   2    1    6 2
   3    1   39 1
   4    2    3 2
   5    2   40 1
   6    3    4 1
   7    3   41 1
   8    4    5 1
   9    4    7 2
  10    5    6 1
  11    5   10 am
  12    6   42 1
  13    7   15 1
  14    7    8 1
  15    8    9 2
  16    8   43 1
  17    9   10 1
  18    9   12 1
  19   10   11 2
  20   12   13 1
  21   12   14 2
  22   13   44 1
  23   15   16 1
  24   15   45 1
  25   15   46 1
  26   16   17 1
  27   16   21 1
  28   17   18 1
  29   17   22 1
  30   17   47 1
  31   18   19 1
  32   18   29 1
  33   18   30 1
  34   19   20 1
  35   19   23 1
  36   20   21 1
  37   20   48 1
  38   20   49 1
  39   21   50 1
  40   21   51 1
  41   23   24 ar
  42   23   25 ar
  43   24   28 ar
  44   24   52 1
  45   25   26 ar
  46   25   53 1
  47   26   27 ar
  48   26   35 1
  49   27   28 ar
  50   27   54 1
  51   28   31 1
  52   31   32 1
  53   31   33 1
  54   31   34 1
  55   35   36 1
  56   35   37 1
  57   35   38 1

#	End of record

