#	Name: ASD02030726
#	Creating user name:	WinNT
#	Creation time:	15. 06. 2019 20:15

#	Modifying user name:	WinNT
#	Modification time:	15. 06. 2019 20:15

#	Program:	/corina/corina34_cracker 3.40 0067  02.08.2006

@<TRIPOS>MOLECULE
ASD02030726
  31   32    0    0    0
SMALL
NO_CHARGES


@<TRIPOS>ATOM
   1 N1            -0.0169     1.3957     0.0097 N.2     
   2 N2             0.0021    -0.0041     0.0020 N.am    
   3 C3             1.1646    -0.6797    -0.0123 C.2     
   4 N4             2.3448    -0.0325    -0.0200 N.am    
   5 C5             2.3757     1.3164    -0.0131 C.2     
   6 C6             1.1074     2.0610     0.0026 C.2     
   7 O7             1.1494    -1.8958    -0.0178 O.2     
   8 O8             3.4386     1.9089    -0.0192 O.2     
   9 C9            -1.2627    -0.7434     0.0101 C.3     
  10 C10           -1.6892    -1.0085     1.4554 C.3     
  11 O11           -4.5882    -4.0059     1.8352 O.3     
  12 C12           -4.6335    -2.9420     2.7899 C.3     
  13 C13           -3.2791    -2.2287     2.8157 C.3     
  14 N14           -2.9574    -1.7498     1.4635 N.3     
  15 C15           -2.9200    -2.8682     0.5100 C.3     
  16 C16           -4.2781    -3.5750     0.5073 C.3     
  17 O17            1.1051     3.4197     0.0094 O.3     
  18 H18            3.1737    -0.5362    -0.0303 H       
  19 H19           -2.0303    -0.1556    -0.4933 H       
  20 H20           -1.1322    -1.6923    -0.5101 H       
  21 H21           -0.9215    -1.5962     1.9587 H       
  22 H22           -1.8197    -0.0596     1.9756 H       
  23 H23           -5.4126    -2.2335     2.5086 H       
  24 H24           -4.8497    -3.3484     3.7779 H       
  25 H25           -3.3268    -1.3817     3.5000 H       
  26 H26           -2.5081    -2.9235     3.1487 H       
  27 H27           -2.7057    -2.4879    -0.4888 H       
  28 H28           -2.1433    -3.5732     0.8061 H       
  29 H29           -4.2372    -4.4393    -0.1556 H       
  30 H30           -5.0469    -2.8850     0.1596 H       
  31 H31            0.2211     3.8114     0.0197 H       
@<TRIPOS>BOND
   1    1    2 1
   2    1    6 2
   3    2    3 am
   4    2    9 1
   5    3    4 am
   6    3    7 2
   7    4    5 am
   8    4   18 1
   9    5    6 1
  10    5    8 2
  11    6   17 1
  12    9   10 1
  13    9   19 1
  14    9   20 1
  15   10   14 1
  16   10   21 1
  17   10   22 1
  18   11   12 1
  19   11   16 1
  20   12   13 1
  21   12   23 1
  22   12   24 1
  23   13   14 1
  24   13   25 1
  25   13   26 1
  26   14   15 1
  27   15   16 1
  28   15   27 1
  29   15   28 1
  30   16   29 1
  31   16   30 1
  32   17   31 1

#	End of record

