#	Name: ASD06350013
#	Creating user name:	WinNT
#	Creation time:	15. 06. 2019 21:06

#	Modifying user name:	WinNT
#	Modification time:	15. 06. 2019 21:06

#	Program:	/corina/corina34_cracker 3.40 0067  02.08.2006

@<TRIPOS>MOLECULE
ASD06350013
  25   26    0    0    0
SMALL
NO_CHARGES


@<TRIPOS>ATOM
   1 F1             0.0007    -0.0041     0.0005 F       
   2 C2            -0.0172     1.3468     0.0085 C.ar    
   3 C3            -0.1226     2.0300     1.2086 C.ar    
   4 C4            -0.1410     3.4107     1.2188 C.ar    
   5 C5            -0.0538     4.1142     0.0247 C.ar    
   6 C6             0.0519     3.4273    -1.1776 C.ar    
   7 C7             0.0757     2.0466    -1.1831 C.ar    
   8 N8            -0.0728     5.5147     0.0328 N.am    
   9 C9             1.0947     6.1972     0.1287 C.2     
  10 C10            1.1177     7.5548     0.1403 C.2     
  11 C11           -0.0726     8.2757     0.0528 C.2     
  12 C12           -1.2775     7.5805    -0.0465 C.2     
  13 C13           -1.2499     6.1619    -0.0601 C.2     
  14 O14           -2.2893     5.5311    -0.1462 O.2     
  15 C15           -2.5525     8.3043    -0.1406 C.2     
  16 O16           -2.5635     9.5200    -0.1323 O.2     
  17 O17           -3.7105     7.6204    -0.2362 O.3     
  18 H18           -0.1908     1.4825     2.1370 H       
  19 H19           -0.2236     3.9431     2.1548 H       
  20 H20            0.1195     3.9726    -2.1074 H       
  21 H21            0.1578     1.5120    -2.1179 H       
  22 H22            2.0238     5.6508     0.1974 H       
  23 H23            2.0597     8.0773     0.2177 H       
  24 H24           -0.0616     9.3556     0.0622 H       
  25 H25           -4.5237     8.1402    -0.2957 H       
@<TRIPOS>BOND
   1    1    2 1
   2    2    3 ar
   3    2    7 ar
   4    3    4 ar
   5    3   18 1
   6    4    5 ar
   7    4   19 1
   8    5    6 ar
   9    5    8 1
  10    6    7 ar
  11    6   20 1
  12    7   21 1
  13    8    9 1
  14    8   13 am
  15    9   10 2
  16    9   22 1
  17   10   11 1
  18   10   23 1
  19   11   12 2
  20   11   24 1
  21   12   13 1
  22   12   15 1
  23   13   14 2
  24   15   16 2
  25   15   17 1
  26   17   25 1

#	End of record

