#	Name: ASD02198354
#	Creating user name:	WinNT
#	Creation time:	15. 06. 2019 20:19

#	Modifying user name:	WinNT
#	Modification time:	15. 06. 2019 20:19

#	Program:	/corina/corina34_cracker 3.40 0067  02.08.2006

@<TRIPOS>MOLECULE
ASD02198354
  34   36    0    0    0
SMALL
NO_CHARGES


@<TRIPOS>ATOM
   1 C1            -0.0312     1.3689     0.1493 C.2     
   2 C2            -0.0282    -0.0137     0.1860 C.2     
   3 S3             1.6393     1.9115     0.2864 S.3     
   4 C4             2.1756     0.2918     0.3777 C.2     
   5 N5             1.1709    -0.5334     0.3084 N.2     
   6 N6            -1.1811    -0.7773     0.1021 N.pl3   
   7 C7            -1.1639     2.1935     0.0197 C.2     
   8 C8            -1.0274     3.6626     0.1388 C.ar    
   9 O9            -2.2579     1.6979    -0.1907 O.2     
  10 N10            3.4916    -0.0891     0.5066 N.pl3   
  11 C11           -1.9143     4.5051    -0.5319 C.ar    
  12 C12           -0.0145     4.2106     0.9269 C.ar    
  13 C13            0.1071     5.5805     1.0341 C.ar    
  14 C14           -0.7726     6.4108     0.3622 C.ar    
  15 C15           -1.7820     5.8738    -0.4165 C.ar    
  16 C16            3.8394    -1.5106     0.5755 C.3     
  17 C17            1.2001     6.1740     1.8852 C.3     
  18 F18            2.3452     6.3677     1.1053 F       
  19 F19            0.7740     7.4026     2.4012 F       
  20 F20            1.4955     5.3027     2.9392 F       
  21 C21            5.2483    -1.9152     0.1373 C.3     
  22 C22            4.8732    -1.9350     1.6205 C.3     
  23 H23           -2.0444    -0.3440     0.0128 H       
  24 H24           -1.1251    -1.7452     0.1326 H       
  25 H25            4.1890     0.5836     0.5517 H       
  26 H26           -2.7026     4.0870    -1.1404 H       
  27 H27            0.6725     3.5636     1.4521 H       
  28 H28           -0.6734     7.4827     0.4496 H       
  29 H29           -2.4652     6.5271    -0.9387 H       
  30 H30            3.0267    -2.2044     0.3604 H       
  31 H31            5.3626    -2.8754    -0.3657 H       
  32 H32            5.9165    -1.1238    -0.2023 H       
  33 H33            5.2946    -1.1566     2.2567 H       
  34 H34            4.7407    -2.9082     2.0932 H       
@<TRIPOS>BOND
   1    1    2 2
   2    1    3 1
   3    1    7 1
   4    2    6 1
   5    2    5 1
   6    3    4 1
   7    4    5 2
   8    4   10 1
   9    6   23 1
  10    6   24 1
  11    7    8 1
  12    7    9 2
  13    8   11 ar
  14    8   12 ar
  15   10   16 1
  16   10   25 1
  17   11   15 ar
  18   11   26 1
  19   12   13 ar
  20   12   27 1
  21   13   14 ar
  22   13   17 1
  23   14   15 ar
  24   14   28 1
  25   15   29 1
  26   16   21 1
  27   16   22 1
  28   16   30 1
  29   17   18 1
  30   17   19 1
  31   17   20 1
  32   21   22 1
  33   21   31 1
  34   21   32 1
  35   22   33 1
  36   22   34 1

#	End of record

