#	Name: ASD04640007
#	Creating user name:	WinNT
#	Creation time:	15. 06. 2019 20:52

#	Modifying user name:	WinNT
#	Modification time:	15. 06. 2019 20:52

#	Program:	/corina/corina34_cracker 3.40 0067  02.08.2006

@<TRIPOS>MOLECULE
ASD04640007
  61   64    0    0    0
SMALL
NO_CHARGES


@<TRIPOS>ATOM
   1 C1            -0.0180     1.4736     0.0101 C.ar    
   2 C2             0.0021    -0.0041     0.0020 C.2     
   3 O3             1.0629    -0.5975    -0.0113 O.2     
   4 N4            -1.1558    -0.6938     0.0094 N.am    
   5 C5            -1.1360    -2.1586     0.0013 C.3     
   6 C6            -2.5713    -2.6882     0.0122 C.3     
   7 C7            -2.5506    -4.2180     0.0038 C.3     
   8 C8            -3.9860    -4.7476     0.0146 C.3     
   9 N9            -3.9661    -6.2165     0.0065 N.3     
  10 C10           -5.3076    -6.7627     0.2547 C.3     
  11 C11           -3.0000    -6.7354     0.9848 C.3     
  12 C12           -2.9518    -8.2622     0.8896 C.3     
  13 N13           -4.2933    -8.8085     1.1378 N.3     
  14 C14           -5.2594    -8.2895     0.1595 C.3     
  15 C15           -4.2744   -10.2058     1.1301 C.ar    
  16 C16           -3.8647   -10.8901    -0.0071 C.ar    
  17 C17           -4.6599   -10.9136     2.2620 C.ar    
  18 C18           -4.6393   -12.2966     2.2506 C.ar    
  19 C19           -4.2353   -12.9740     1.1134 C.ar    
  20 C20           -3.8464   -12.2711    -0.0121 C.ar    
  21 Cl21          -5.1661   -10.0635     3.6885 Cl      
  22 Cl22          -5.1199   -13.1832     3.6636 Cl      
  23 C23            1.1817     2.1888     0.0025 C.ar    
  24 C24            1.1620     3.5657     0.0102 C.ar    
  25 C25           -0.0556     4.2461     0.0255 C.ar    
  26 C26           -1.2542     3.5328     0.0331 C.ar    
  27 C27           -1.2367     2.1559     0.0196 C.ar    
  28 C28           -0.0757     5.7289     0.0342 C.ar    
  29 N29            1.0676     6.4025     0.0273 N.ar    
  30 C30           -1.2947     6.4032     0.0437 C.ar    
  31 C31           -1.2975     7.7879     0.0513 C.ar    
  32 C32           -0.0799     8.4525     0.0491 C.ar    
  33 C33            1.0932     7.7192     0.0342 C.ar    
  34 H34           -2.0023    -0.2203     0.0200 H       
  35 H35           -0.6258    -2.5101    -0.8955 H       
  36 H36           -0.6088    -2.5197     0.8844 H       
  37 H37           -3.0815    -2.3367     0.9090 H       
  38 H38           -3.0985    -2.3271    -0.8709 H       
  39 H39           -2.0404    -4.5695    -0.8930 H       
  40 H40           -2.0234    -4.5791     0.8868 H       
  41 H41           -4.4962    -4.3961     0.9114 H       
  42 H42           -4.5132    -4.3865    -0.8684 H       
  43 H43           -5.6406    -6.4708     1.2507 H       
  44 H44           -6.0021    -6.3737    -0.4899 H       
  45 H45           -2.0122    -6.3265     0.7726 H       
  46 H46           -3.3068    -6.4432     1.9891 H       
  47 H47           -2.6188    -8.5541    -0.1064 H       
  48 H48           -2.2573    -8.6513     1.6342 H       
  49 H49           -6.2472    -8.6984     0.3717 H       
  50 H50           -4.9526    -8.5817    -0.8448 H       
  51 H51           -3.5609   -10.3425    -0.8871 H       
  52 H52           -4.2199   -14.0539     1.1064 H       
  53 H53           -3.5320   -12.8029    -0.8979 H       
  54 H54            2.1246     1.6622    -0.0090 H       
  55 H55            2.0895     4.1189     0.0046 H       
  56 H56           -2.1964     4.0605     0.0450 H       
  57 H57           -2.1648     1.6038     0.0251 H       
  58 H58           -2.2245     5.8537     0.0448 H       
  59 H59           -2.2269     8.3381     0.0584 H       
  60 H60           -0.0480     9.5320     0.0549 H       
  61 H61            2.0429     8.2335     0.0328 H       
@<TRIPOS>BOND
   1    1    2 1
   2    1   23 ar
   3    1   27 ar
   4    2    3 2
   5    2    4 am
   6    4    5 1
   7    4   34 1
   8    5    6 1
   9    5   35 1
  10    5   36 1
  11    6    7 1
  12    6   37 1
  13    6   38 1
  14    7    8 1
  15    7   39 1
  16    7   40 1
  17    8    9 1
  18    8   41 1
  19    8   42 1
  20    9   10 1
  21    9   11 1
  22   10   14 1
  23   10   43 1
  24   10   44 1
  25   11   12 1
  26   11   45 1
  27   11   46 1
  28   12   13 1
  29   12   47 1
  30   12   48 1
  31   13   14 1
  32   13   15 1
  33   14   49 1
  34   14   50 1
  35   15   16 ar
  36   15   17 ar
  37   16   20 ar
  38   16   51 1
  39   17   18 ar
  40   17   21 1
  41   18   19 ar
  42   18   22 1
  43   19   20 ar
  44   19   52 1
  45   20   53 1
  46   23   24 ar
  47   23   54 1
  48   24   25 ar
  49   24   55 1
  50   25   26 ar
  51   25   28 1
  52   26   27 ar
  53   26   56 1
  54   27   57 1
  55   28   29 ar
  56   28   30 ar
  57   29   33 ar
  58   30   31 ar
  59   30   58 1
  60   31   32 ar
  61   31   59 1
  62   32   33 ar
  63   32   60 1
  64   33   61 1

#	End of record

