#	Name: ASD05143099
#	Creating user name:	WinNT
#	Creation time:	15. 06. 2019 20:57

#	Modifying user name:	WinNT
#	Modification time:	15. 06. 2019 20:57

#	Program:	/corina/corina34_cracker 3.40 0067  02.08.2006

@<TRIPOS>MOLECULE
ASD05143099
 149  152    0    0    0
SMALL
NO_CHARGES


@<TRIPOS>ATOM
   1 C1            -2.1048     5.4033     7.5370 C.2     
   2 C2            -1.6193     4.6661     8.7583 C.3     
   3 N3            -1.2171     5.9389     6.6758 N.am    
   4 O4            -3.2944     5.5104     7.3263 O.2     
   5 C5            -1.6891     6.6555     5.4885 C.3     
   6 C6            -2.5225     5.7108     4.6203 C.3     
   7 C7            -2.5369     7.8270     5.9128 C.2     
   8 C8            -1.6305     4.5878     4.0872 C.3     
   9 C9            -2.4639     3.6430     3.2190 C.3     
  10 N10           -1.6097     2.5678     2.7087 N.pl3   
  11 C11           -2.1423     1.5924     1.8992 C.2     
  12 N12           -1.3407     0.5833     1.4203 N.pl3   
  13 N13           -3.4071     1.6243     1.5859 N.2     
  14 O14           -3.0296     7.8492     7.0208 O.2     
  15 N15           -2.7476     8.8499     5.0609 N.am    
  16 C16           -3.5717     9.9887     5.4734 C.3     
  17 C17           -2.6690    11.1801     5.7995 C.3     
  18 C18           -1.5128    10.7168     6.6878 C.3     
  19 C19           -0.3717    10.2464     5.8232 C.2     
  20 N20            0.8954    10.6593     6.1246 N.am    
  21 C21            1.9587    10.1471     5.2304 C.3     
  22 C22            2.1089    11.1064     4.0480 C.3     
  23 C23            2.7723    10.3748     2.8795 C.3     
  24 C24            3.7307    11.3257     2.1596 C.3     
  25 N25            3.6791    11.0471     0.7103 N.am    
  26 C26            5.1332    11.1081     2.6661 C.2     
  27 N27            5.5208    11.6578     3.8341 N.am    
  28 O28            5.9133    10.4384     2.0227 O.2     
  29 C29            2.8529    11.8343    -0.0312 C.2     
  30 O30            2.2089    12.7166     0.4959 O.2     
  31 C31            2.7487    11.5963    -1.5157 C.3     
  32 N32            1.5339    12.2784    -2.0182 N.am    
  33 C33            3.9844    12.1657    -2.2154 C.3     
  34 C34            0.4809    11.4584    -2.3104 C.2     
  35 O35            0.5726    10.2582    -2.1619 O.2     
  36 C36           -0.7969    12.0736    -2.8202 C.3     
  37 N37           -1.9236    11.1808    -2.4833 N.am    
  38 C38           -1.0084    13.4374    -2.1597 C.3     
  39 C39           -3.0283    11.7694    -1.9478 C.2     
  40 O40           -3.0579    12.9675    -1.7617 O.2     
  41 C41           -4.2139    10.9108    -1.5900 C.3     
  42 C42            3.9363    11.8188    -3.6811 C.2     
  43 C43            3.2379    12.5647    -4.7307 C.ar    
  44 C44            3.4759    11.8660    -5.9282 C.ar    
  45 N45            4.2611    10.7792    -5.6151 N.pl3   
  46 C46            4.5300    10.7706    -4.2735 C.2     
  47 C47            2.4610    13.7249    -4.7436 C.ar    
  48 C48            1.9352    14.1759    -5.9212 C.ar    
  49 C49            2.1667    13.4896    -7.1056 C.ar    
  50 C50            2.9309    12.3436    -7.1158 C.ar    
  51 N51           -4.7997    11.4134    -0.3263 N.am    
  52 C52           -3.7607     9.4612    -1.4048 C.3     
  53 C53           -4.9591     8.5924    -1.1218 C.ar    
  54 C54           -5.9875     8.5149    -2.0405 C.ar    
  55 C55           -7.0904     7.7144    -1.7795 C.ar    
  56 C56           -7.1571     6.9940    -0.5961 C.ar    
  57 C57           -6.1258     7.0750     0.3197 C.ar    
  58 C58           -5.0256     7.8691     0.0550 C.ar    
  59 C59           -4.5101    10.3613     4.3544 C.2     
  60 O60           -5.7084    10.2295     4.4868 O.2     
  61 C61           -1.0185    13.2714    -0.6387 C.3     
  62 C62           -1.3766    14.6062     0.0176 C.3     
  63 N63           -1.3863    14.4473     1.4739 N.pl3   
  64 C64           -1.6836    15.5202     2.2806 C.2     
  65 N65           -1.9719    16.7423     1.7205 N.pl3   
  66 N66           -1.6922    15.3788     3.5763 N.2     
  67 N67           -3.9932    10.8476     3.1926 N.am    
  68 C68           -4.9610    11.1956     2.1331 C.3     
  69 C69           -4.4063    10.7537     0.8035 C.2     
  70 O70           -3.6248     9.8286     0.7375 O.2     
  71 C71           -5.1828    12.7094     2.1186 C.3     
  72 C72           -5.8461    13.1403     3.4283 C.3     
  73 N73           -6.0591    14.5937     3.4143 N.3     
  74 O74           -0.5742     9.5146     4.8776 O.2     
  75 O75           -8.1038     7.6368    -2.6817 O.3     
  76 C76           -9.2075     6.7932    -2.3466 C.3     
  77 H77           -1.5135     5.3662     9.5871 H       
  78 H78           -2.3391     3.8925     9.0258 H       
  79 H79           -0.6541     4.2065     8.5455 H       
  80 H80           -0.2656     5.8498     6.8422 H       
  81 H81           -0.8334     7.0145     4.9167 H       
  82 H82           -3.3272     5.2828     5.2181 H       
  83 H83           -2.9470     6.2657     3.7836 H       
  84 H84           -0.8258     5.0157     3.4894 H       
  85 H85           -1.2059     4.0329     4.9239 H       
  86 H86           -3.2686     3.2151     3.8169 H       
  87 H87           -2.8884     4.1979     2.3824 H       
  88 H88           -0.6685     2.5440     2.9418 H       
  89 H89           -0.3995     0.5595     1.6534 H       
  90 H90           -1.7164    -0.1049     0.8492 H       
  91 H91           -3.7828     0.9361     1.0148 H       
  92 H92           -2.3535     8.8322     4.1747 H       
  93 H93           -4.1495     9.7180     6.3572 H       
  94 H94           -2.2715    11.5985     4.8748 H       
  95 H95           -3.2471    11.9413     6.3234 H       
  96 H96           -1.1785    11.5462     7.3110 H       
  97 H97           -1.8488     9.8974     7.3233 H       
  98 H98            1.0852    11.2474     6.8723 H       
  99 H99            2.9001    10.0902     5.7769 H       
 100 H100           1.6845     9.1572     4.8657 H       
 101 H101           1.1253    11.4629     3.7422 H       
 102 H102           2.7269    11.9541     4.3440 H       
 103 H103           3.3277     9.5162     3.2568 H       
 104 H104           2.0067    10.0342     2.1824 H       
 105 H105           3.4294    12.3568     2.3442 H       
 106 H106           4.2065    10.3394     0.3078 H       
 107 H107           4.8969    12.1935     4.3486 H       
 108 H108           6.4236    11.5178     4.1601 H       
 109 H109           2.6748    10.5264    -1.7105 H       
 110 H110           1.4892    13.2406    -2.1322 H       
 111 H111           4.0008    13.2494    -2.0989 H       
 112 H112           4.8831    11.7388    -1.7702 H       
 113 H113          -0.7378    12.1948    -3.9018 H       
 114 H114          -1.8790    10.2238    -2.6355 H       
 115 H115          -0.1995    14.1093    -2.4465 H       
 116 H116          -1.9608    13.8553    -2.4859 H       
 117 H117          -4.9578    10.9650    -2.3849 H       
 118 H118           4.5794    10.1199    -6.2514 H       
 119 H119           5.1253    10.0266    -3.7652 H       
 120 H120           2.2761    14.2635    -3.8260 H       
 121 H121           1.3343    15.0733    -5.9307 H       
 122 H122           1.7440    13.8584    -8.0285 H       
 123 H123           3.1055    11.8170    -8.0424 H       
 124 H124          -5.4194    12.1593    -0.3024 H       
 125 H125          -3.2679     9.1157    -2.3135 H       
 126 H126          -3.0638     9.4025    -0.5687 H       
 127 H127          -5.9334     9.0770    -2.9611 H       
 128 H128          -8.0147     6.3705    -0.3905 H       
 129 H129          -6.1772     6.5142     1.2413 H       
 130 H130          -4.2204     7.9311     0.7721 H       
 131 H131          -1.7572    12.5198    -0.3602 H       
 132 H132          -0.0319    12.9537    -0.3014 H       
 133 H133          -0.6379    15.3578    -0.2610 H       
 134 H134          -2.3632    14.9239    -0.3197 H       
 135 H135          -1.1829    13.5851     1.8691 H       
 136 H136          -1.9655    16.8475     0.7563 H       
 137 H137          -2.1817    17.4992     2.2897 H       
 138 H138          -1.9020    16.1357     4.1454 H       
 139 H139          -3.0379    10.9600     3.0674 H       
 140 H140          -5.9069    10.6877     2.3213 H       
 141 H141          -4.2236    13.2162     2.0132 H       
 142 H142          -5.8276    12.9741     1.2805 H       
 143 H143          -6.8053    12.6335     3.5337 H       
 144 H144          -5.2013    12.8756     4.2663 H       
 145 H145          -6.4963    14.9033     4.2693 H       
 146 H146          -5.1924    15.0846     3.2530 H       
 147 H147          -8.8555     5.7703    -2.2128 H       
 148 H148          -9.6651     7.1438    -1.4216 H       
 149 H149          -9.9438     6.8219    -3.1499 H       
@<TRIPOS>BOND
   1    1    2 1
   2    1    3 am
   3    1    4 2
   4    2   77 1
   5    2   78 1
   6    2   79 1
   7    3    5 1
   8    3   80 1
   9    5    6 1
  10    5    7 1
  11    5   81 1
  12    6    8 1
  13    6   82 1
  14    6   83 1
  15    7   14 2
  16    7   15 am
  17    8    9 1
  18    8   84 1
  19    8   85 1
  20    9   10 1
  21    9   86 1
  22    9   87 1
  23   10   11 1
  24   10   88 1
  25   11   12 1
  26   11   13 2
  27   12   89 1
  28   12   90 1
  29   13   91 1
  30   15   16 1
  31   15   92 1
  32   16   17 1
  33   16   59 1
  34   16   93 1
  35   17   18 1
  36   17   94 1
  37   17   95 1
  38   18   19 1
  39   18   96 1
  40   18   97 1
  41   19   20 am
  42   19   74 2
  43   20   21 1
  44   20   98 1
  45   21   22 1
  46   21   99 1
  47   21  100 1
  48   22   23 1
  49   22  101 1
  50   22  102 1
  51   23   24 1
  52   23  103 1
  53   23  104 1
  54   24   25 1
  55   24   26 1
  56   24  105 1
  57   25   29 am
  58   25  106 1
  59   26   27 am
  60   26   28 2
  61   27  107 1
  62   27  108 1
  63   29   30 2
  64   29   31 1
  65   31   32 1
  66   31   33 1
  67   31  109 1
  68   32   34 am
  69   32  110 1
  70   33   42 1
  71   33  111 1
  72   33  112 1
  73   34   35 2
  74   34   36 1
  75   36   37 1
  76   36   38 1
  77   36  113 1
  78   37   39 am
  79   37  114 1
  80   38   61 1
  81   38  115 1
  82   38  116 1
  83   39   40 2
  84   39   41 1
  85   41   51 1
  86   41   52 1
  87   41  117 1
  88   42   43 1
  89   42   46 2
  90   43   44 ar
  91   43   47 ar
  92   44   45 1
  93   44   50 ar
  94   45   46 1
  95   45  118 1
  96   46  119 1
  97   47   48 ar
  98   47  120 1
  99   48   49 ar
 100   48  121 1
 101   49   50 ar
 102   49  122 1
 103   50  123 1
 104   51   69 am
 105   51  124 1
 106   52   53 1
 107   52  125 1
 108   52  126 1
 109   53   54 ar
 110   53   58 ar
 111   54   55 ar
 112   54  127 1
 113   55   56 ar
 114   55   75 1
 115   56   57 ar
 116   56  128 1
 117   57   58 ar
 118   57  129 1
 119   58  130 1
 120   59   60 2
 121   59   67 am
 122   61   62 1
 123   61  131 1
 124   61  132 1
 125   62   63 1
 126   62  133 1
 127   62  134 1
 128   63   64 1
 129   63  135 1
 130   64   65 1
 131   64   66 2
 132   65  136 1
 133   65  137 1
 134   66  138 1
 135   67   68 1
 136   67  139 1
 137   68   69 1
 138   68   71 1
 139   68  140 1
 140   69   70 2
 141   71   72 1
 142   71  141 1
 143   71  142 1
 144   72   73 1
 145   72  143 1
 146   72  144 1
 147   73  145 1
 148   73  146 1
 149   75   76 1
 150   76  147 1
 151   76  148 1
 152   76  149 1

#	End of record

