#	Name: ASD01028788
#	Creating user name:	WinNT
#	Creation time:	15. 06. 2019 18:58

#	Modifying user name:	WinNT
#	Modification time:	15. 06. 2019 18:58

#	Program:	/corina/corina34_cracker 3.40 0067  02.08.2006

@<TRIPOS>MOLECULE
ASD01028788
  16   17    0    0    0
SMALL
NO_CHARGES


@<TRIPOS>ATOM
   1 N1            -0.0169     1.3966     0.0097 N.pl3   
   2 N2             0.0021    -0.0041     0.0020 N.2     
   3 C3             1.2503    -0.3962    -0.0120 C.2     
   4 C4             2.0658     0.7407    -0.0137 C.2     
   5 C5             1.2619     1.8297    -0.0002 C.2     
   6 C6            -1.2132     2.2423     0.0202 C.3     
   7 C7            -1.7147     2.7398     1.3774 C.3     
   8 C8            -1.0364     3.7113     0.4095 C.3     
   9 Br9            3.9567     0.7537    -0.0307 Br      
  10 H10            1.5921    -1.4207    -0.0205 H       
  11 H11            1.5853     2.8601     0.0017 H       
  12 H12           -1.9608     2.0086    -0.7378 H       
  13 H13           -2.7922     2.8337     1.5121 H       
  14 H14           -1.1546     2.4379     2.2624 H       
  15 H15           -0.0300     4.0486     0.6577 H       
  16 H16           -1.6677     4.4445    -0.0926 H       
@<TRIPOS>BOND
   1    1    2 1
   2    1    5 1
   3    1    6 1
   4    2    3 2
   5    3    4 1
   6    3   10 1
   7    4    5 2
   8    4    9 1
   9    5   11 1
  10    6    7 1
  11    6    8 1
  12    6   12 1
  13    7    8 1
  14    7   13 1
  15    7   14 1
  16    8   15 1
  17    8   16 1

#	End of record

