#	Name: ASD01881205
#	Creating user name:	WinNT
#	Creation time:	15. 06. 2019 19:42

#	Modifying user name:	WinNT
#	Modification time:	15. 06. 2019 19:42

#	Program:	/corina/corina34_cracker 3.40 0067  02.08.2006

@<TRIPOS>MOLECULE
ASD01881205
  39   41    0    0    0
SMALL
NO_CHARGES


@<TRIPOS>ATOM
   1 N1            -0.0159     1.3188     0.0093 N.ar    
   2 C2             0.0021    -0.0041     0.0020 C.ar    
   3 N3             1.1382    -0.6824    -0.0125 N.ar    
   4 C4             2.3022    -0.0534    -0.0202 C.ar    
   5 C5             2.3215     1.3321    -0.0130 C.ar    
   6 C6             1.1124     2.0110     0.0022 C.ar    
   7 C7             3.6273     2.0844    -0.0209 C.3     
   8 O8             4.7125     1.1548    -0.0358 O.3     
   9 C9             5.9670     1.6723    -0.0445 C.ar    
  10 C10            7.0693     0.8226    -0.0592 C.ar    
  11 C11            8.3379     1.3462    -0.0685 C.ar    
  12 C12            8.5322     2.7317    -0.0633 C.ar    
  13 C13            7.4212     3.5818    -0.0486 C.ar    
  14 C14            6.1492     3.0494    -0.0446 C.ar    
  15 C15            9.7120     0.7240    -0.0850 C.3     
  16 N16           10.6661     1.8387    -0.0886 N.am    
  17 C17            9.9808     2.9948    -0.0761 C.2     
  18 O18           10.4855     4.1011    -0.0757 O.2     
  19 Cl19           7.6435     5.3035    -0.0414 Cl      
  20 I20            1.0720     4.1056     0.0132 I       
  21 C21           12.6192     1.6760    -1.5516 C.3     
  22 C22           12.1256     1.7123    -0.1039 C.3     
  23 O23           -1.1713    -0.6808     0.0100 O.3     
  24 C24           -1.0973    -2.1078     0.0017 C.3     
  25 H25            3.2259    -0.6129    -0.0317 H       
  26 H26            3.6775     2.7158    -0.9080 H       
  27 H27            3.6938     2.7062     0.8719 H       
  28 H28            6.9264    -0.2479    -0.0629 H       
  29 H29            5.2915     3.7055    -0.0336 H       
  30 H30            9.8561     0.1102     0.8041 H       
  31 H31            9.8387     0.1193    -0.9830 H       
  32 H32           12.3289     2.5968    -2.0577 H       
  33 H33           13.7051     1.5820    -1.5630 H       
  34 H34           12.1753     0.8235    -2.0656 H       
  35 H35           12.5695     2.5649     0.4101 H       
  36 H36           12.4159     0.7916     0.4021 H       
  37 H37           -0.5743    -2.4393    -0.8954 H       
  38 H38           -0.5566    -2.4488     0.8845 H       
  39 H39           -2.1048    -2.5239     0.0094 H       
@<TRIPOS>BOND
   1    1    2 ar
   2    1    6 ar
   3    2    3 ar
   4    2   23 1
   5    3    4 ar
   6    4    5 ar
   7    4   25 1
   8    5    6 ar
   9    5    7 1
  10    6   20 1
  11    7    8 1
  12    7   26 1
  13    7   27 1
  14    8    9 1
  15    9   10 ar
  16    9   14 ar
  17   10   11 ar
  18   10   28 1
  19   11   12 ar
  20   11   15 1
  21   12   13 ar
  22   12   17 1
  23   13   14 ar
  24   13   19 1
  25   14   29 1
  26   15   16 1
  27   15   30 1
  28   15   31 1
  29   16   17 am
  30   16   22 1
  31   17   18 2
  32   21   22 1
  33   21   32 1
  34   21   33 1
  35   21   34 1
  36   22   35 1
  37   22   36 1
  38   23   24 1
  39   24   37 1
  40   24   38 1
  41   24   39 1

#	End of record

