#	Name: ASD07330037
#	Creating user name:	WinNT
#	Creation time:	15. 06. 2019 21:11

#	Modifying user name:	WinNT
#	Modification time:	15. 06. 2019 21:11

#	Program:	/corina/corina34_cracker 3.40 0067  02.08.2006

@<TRIPOS>MOLECULE
ASD07330037
  47   50    0    0    0
SMALL
NO_CHARGES


@<TRIPOS>ATOM
   1 Cl1            1.8816     0.4518    -0.9591 Cl      
   2 C2             1.8588     2.1806    -0.8027 C.ar    
   3 C3             0.7441     2.8968    -1.2010 C.ar    
   4 C4             0.7265     4.2732    -1.0763 C.ar    
   5 C5             1.8226     4.9342    -0.5540 C.ar    
   6 C6             1.8030     6.4350    -0.4188 C.3     
   7 N7             1.2636     6.8010     0.8977 N.3     
   8 C8             2.1585     6.3575     1.9750 C.3     
   9 C9             1.4795     6.5939     3.3283 C.3     
  10 N10            1.0663     8.0034     3.4038 N.am    
  11 C11            0.2811     8.5589     2.2911 C.3     
  12 C12            1.0072     8.2452     0.9787 C.3     
  13 C13            1.3979     8.7656     4.4647 C.2     
  14 O14            1.9875     8.2727     5.4068 O.2     
  15 C15            1.0452    10.1994     4.4828 C.ar    
  16 C16           -0.2547    10.6164     4.1636 C.ar    
  17 C17           -0.5360    11.9678     4.1945 C.ar    
  18 C18            0.4708    12.8641     4.5384 C.ar    
  19 N19            1.6897    12.4385     4.8349 N.ar    
  20 C20            1.9995    11.1595     4.8236 C.ar    
  21 N21            0.1929    14.2307     4.5709 N.pl3   
  22 C22            1.0720    15.2196     4.8817 C.2     
  23 C23            0.4108    16.3963     4.7970 C.2     
  24 C24           -0.9107    16.1233     4.4239 C.2     
  25 N25           -1.0405    14.8295     4.2831 N.2     
  26 C26            2.9365     4.2191    -0.1554 C.ar    
  27 C27            2.9530     2.8422    -0.2743 C.ar    
  28 H28           -0.1120     2.3805    -1.6096 H       
  29 H29           -0.1435     4.8324    -1.3872 H       
  30 H30            2.8173     6.8219    -0.5162 H       
  31 H31            1.1746     6.8621    -1.2003 H       
  32 H32            2.3724     5.2953     1.8560 H       
  33 H33            3.0890     6.9235     1.9311 H       
  34 H34            0.6041     5.9504     3.4161 H       
  35 H35            2.1810     6.3743     4.1332 H       
  36 H36           -0.7095     8.1044     2.2792 H       
  37 H37            0.1902     9.6386     2.4103 H       
  38 H38            1.9538     8.7849     0.9486 H       
  39 H39            0.3862     8.5520     0.1370 H       
  40 H40           -1.0170     9.8983     3.8998 H       
  41 H41           -1.5264    12.3250     3.9541 H       
  42 H42            3.0030    10.8500     5.0760 H       
  43 H43            2.1105    15.0893     5.1481 H       
  44 H44            0.8286    17.3744     4.9844 H       
  45 H45           -1.6892    16.8566     4.2735 H       
  46 H46            3.7925     4.7361     0.2525 H       
  47 H47            3.8215     2.2832     0.0413 H       
@<TRIPOS>BOND
   1    1    2 1
   2    2   27 ar
   3    2    3 ar
   4    3    4 ar
   5    3   28 1
   6    4    5 ar
   7    4   29 1
   8    5    6 1
   9    5   26 ar
  10    6    7 1
  11    6   30 1
  12    6   31 1
  13    7   12 1
  14    7    8 1
  15    8    9 1
  16    8   32 1
  17    8   33 1
  18    9   10 1
  19    9   34 1
  20    9   35 1
  21   10   11 1
  22   10   13 am
  23   11   12 1
  24   11   36 1
  25   11   37 1
  26   12   38 1
  27   12   39 1
  28   13   14 2
  29   13   15 1
  30   15   20 ar
  31   15   16 ar
  32   16   17 ar
  33   16   40 1
  34   17   18 ar
  35   17   41 1
  36   18   19 ar
  37   18   21 1
  38   19   20 ar
  39   20   42 1
  40   21   25 1
  41   21   22 1
  42   22   23 2
  43   22   43 1
  44   23   24 1
  45   23   44 1
  46   24   25 2
  47   24   45 1
  48   26   27 ar
  49   26   46 1
  50   27   47 1

#	End of record

