#	Name: ASD01884095
#	Creating user name:	WinNT
#	Creation time:	15. 06. 2019 19:47

#	Modifying user name:	WinNT
#	Modification time:	15. 06. 2019 19:47

#	Program:	/corina/corina34_cracker 3.40 0067  02.08.2006

@<TRIPOS>MOLECULE
ASD01884095
  62   65    0    0    0
SMALL
NO_CHARGES


@<TRIPOS>ATOM
   1 C1             0.6292     1.5396    -0.1297 C.2     
   2 C2             0.3883     0.1697    -0.0597 C.2     
   3 C3            -0.9288    -0.2807     0.0403 C.2     
   4 C4            -1.9528     0.6091     0.0678 C.2     
   5 N5            -1.7261     1.9435     0.0002 N.am    
   6 C6            -0.4744     2.4314    -0.0913 C.2     
   7 O7            -0.2901     3.6350    -0.1512 O.2     
   8 C8            -2.8604     2.8700     0.0326 C.3     
   9 C9            -3.1669     3.2505     1.4825 C.3     
  10 C10           -4.3516     4.2181     1.5164 C.3     
  11 C11           -4.7376     4.5011     2.9696 C.3     
  12 C12           -3.9604     5.5275     0.8283 C.3     
  13 C13            1.9670     2.0398    -0.2325 C.1     
  14 N14            3.0283     2.4366    -0.3141 N.1     
  15 C15            1.5320    -0.8110    -0.0921 C.3     
  16 N16            1.9116    -1.1661     1.2819 N.3     
  17 C17            2.8567    -2.2913     1.2931 C.3     
  18 C18            3.2876    -2.5778     2.7335 C.3     
  19 N19            2.1012    -2.8822     3.5456 N.3     
  20 C20            1.1561    -1.7570     3.5344 C.3     
  21 C21            0.7252    -1.4705     2.0940 C.3     
  22 C22            2.4591    -3.2170     4.8411 C.ar    
  23 C23            1.7500    -4.2137     5.5492 C.ar    
  24 C24            2.1707    -4.5069     6.8726 C.ar    
  25 C25            3.2636    -3.7855     7.3875 C.ar    
  26 N26            3.8441    -2.8809     6.6332 N.ar    
  27 N27            3.4735    -2.6143     5.4365 N.ar    
  28 C28            0.6672    -4.9075     4.9992 C.ar    
  29 C29            0.0317    -5.8565     5.7445 C.ar    
  30 C30            0.4438    -6.1450     7.0435 C.ar    
  31 C31            1.4958    -5.4884     7.6097 C.ar    
  32 C32            3.7608    -4.0471     8.7858 C.3     
  33 H33           -1.1334    -1.3397     0.0955 H       
  34 H34           -2.9674     0.2472     0.1448 H       
  35 H35           -2.6127     3.7676    -0.5340 H       
  36 H36           -3.7338     2.3907    -0.4096 H       
  37 H37           -3.4146     2.3528     2.0491 H       
  38 H38           -2.2935     3.7298     1.9247 H       
  39 H39           -5.1993     3.7730     0.9953 H       
  40 H40           -3.8899     4.9461     3.4906 H       
  41 H41           -5.5816     5.1904     2.9937 H       
  42 H42           -5.0163     3.5682     3.4597 H       
  43 H43           -3.1127     5.9726     1.3494 H       
  44 H44           -3.6854     5.3259    -0.2070 H       
  45 H45           -4.8044     6.2168     0.8525 H       
  46 H46            1.2254    -1.7093    -0.6279 H       
  47 H47            2.3843    -0.3586    -0.5990 H       
  48 H48            2.3749    -3.1751     0.8750 H       
  49 H49            3.7321    -2.0369     0.6955 H       
  50 H50            3.9663    -3.4306     2.7473 H       
  51 H51            3.7937    -1.7033     3.1425 H       
  52 H52            0.2807    -2.0114     4.1321 H       
  53 H53            1.6379    -0.8731     3.9525 H       
  54 H54            0.0465    -0.6176     2.0803 H       
  55 H55            0.2191    -2.3450     1.6851 H       
  56 H56            0.3371    -4.6935     3.9934 H       
  57 H57           -0.8048    -6.3926     5.3210 H       
  58 H58           -0.0780    -6.9015     7.6108 H       
  59 H59            1.8053    -5.7221     8.6177 H       
  60 H60            4.5235    -4.8254     8.7606 H       
  61 H61            4.1885    -3.1325     9.1965 H       
  62 H62            2.9301    -4.3727     9.4119 H       
@<TRIPOS>BOND
   1    1    2 2
   2    1   13 1
   3    1    6 1
   4    2    3 1
   5    2   15 1
   6    3    4 2
   7    3   33 1
   8    4    5 1
   9    4   34 1
  10    5    6 am
  11    5    8 1
  12    6    7 2
  13    8    9 1
  14    8   35 1
  15    8   36 1
  16    9   10 1
  17    9   37 1
  18    9   38 1
  19   10   11 1
  20   10   12 1
  21   10   39 1
  22   11   40 1
  23   11   41 1
  24   11   42 1
  25   12   43 1
  26   12   44 1
  27   12   45 1
  28   13   14 3
  29   15   16 1
  30   15   46 1
  31   15   47 1
  32   16   17 1
  33   16   21 1
  34   17   18 1
  35   17   48 1
  36   17   49 1
  37   18   19 1
  38   18   50 1
  39   18   51 1
  40   19   20 1
  41   19   22 1
  42   20   21 1
  43   20   52 1
  44   20   53 1
  45   21   54 1
  46   21   55 1
  47   22   23 ar
  48   22   27 ar
  49   23   24 ar
  50   23   28 ar
  51   24   25 ar
  52   24   31 ar
  53   25   26 ar
  54   25   32 1
  55   26   27 ar
  56   28   29 ar
  57   28   56 1
  58   29   30 ar
  59   29   57 1
  60   30   31 ar
  61   30   58 1
  62   31   59 1
  63   32   60 1
  64   32   61 1
  65   32   62 1

#	End of record

