#	Name: ASD02039297
#	Creating user name:	WinNT
#	Creation time:	15. 06. 2019 20:18

#	Modifying user name:	WinNT
#	Modification time:	15. 06. 2019 20:18

#	Program:	/corina/corina34_cracker 3.40 0067  02.08.2006

@<TRIPOS>MOLECULE
ASD02039297
  54   57    0    0    0
SMALL
NO_CHARGES


@<TRIPOS>ATOM
   1 C1             0.1356     1.1847    -0.3169 C.ar    
   2 C2             0.5173    -0.0933     0.0493 C.ar    
   3 C3            -0.3871    -1.1375    -0.0189 C.ar    
   4 C4            -1.6788    -0.9084    -0.4545 C.ar    
   5 C5            -2.0683     0.3797    -0.8251 C.ar    
   6 C6            -1.1533     1.4272    -0.7478 C.ar    
   7 C7            -3.4527     0.6331    -1.2940 C.ar    
   8 C8             1.1276     2.3165    -0.2395 C.3     
   9 N9             1.9438     2.3345    -1.4559 N.am    
  10 C10            1.4504     3.0089    -2.6592 C.3     
  11 C11            3.1487     1.7307    -1.4680 C.2     
  12 C12            3.6002     0.9640    -0.2938 C.2     
  13 C13            4.7330     0.2084    -0.2110 C.2     
  14 C14            2.4335     4.1080    -3.0673 C.3     
  15 N15            2.9678     0.8855     0.9049 N.2     
  16 C16            3.6604     0.1190     1.6969 C.2     
  17 N17            4.7634    -0.3188     1.0356 N.pl3   
  18 O18            3.8633     1.8187    -2.4482 O.2     
  19 C19            5.7993    -1.2035     1.5744 C.3     
  20 F20           -2.5617    -1.9287    -0.5219 F       
  21 C21            1.3204     1.9932    -3.7961 C.3     
  22 C22           -4.1978     1.6732    -0.7415 C.ar    
  23 C23           -4.0088    -0.1644    -2.2917 C.ar    
  24 C24           -5.3013     0.0742    -2.7281 C.ar    
  25 C25           -6.0435     1.1084    -2.1674 C.ar    
  26 C26           -5.4853     1.9065    -1.1780 C.ar    
  27 O27           -5.8283    -0.7090    -3.7090 O.3     
  28 C28           -7.2518    -0.6814    -3.8596 C.3     
  29 C29           -7.7096     0.7831    -3.8327 C.3     
  30 O30           -7.3180     1.3523    -2.5789 O.3     
  31 H31            1.5258    -0.2766     0.3895 H       
  32 H32           -0.0835    -2.1333     0.2684 H       
  33 H33           -1.4492     2.4259    -1.0332 H       
  34 H34            0.5934     3.2621    -0.1464 H       
  35 H35            1.7719     2.1762     0.6284 H       
  36 H36            0.4756     3.4513    -2.4539 H       
  37 H37            5.4652     0.0591    -0.9907 H       
  38 H38            3.4241     3.6756    -3.2078 H       
  39 H39            2.1010     4.5651    -3.9993 H       
  40 H40            2.4756     4.8664    -2.2855 H       
  41 H41            3.4016    -0.1267     2.7162 H       
  42 H42            5.5312    -2.2409     1.3746 H       
  43 H43            6.7538    -0.9769     1.0992 H       
  44 H44            5.8839    -1.0509     2.6504 H       
  45 H45            0.5860     1.2351    -3.5238 H       
  46 H46            0.9969     2.5030    -4.7036 H       
  47 H47            2.2856     1.5179    -3.9708 H       
  48 H48           -3.7673     2.2962     0.0286 H       
  49 H49           -3.4320    -0.9682    -2.7250 H       
  50 H50           -6.0629     2.7100    -0.7453 H       
  51 H51           -7.5297    -1.1360    -4.8105 H       
  52 H52           -7.7188    -1.2277    -3.0400 H       
  53 H53           -7.2376     1.3308    -4.6483 H       
  54 H54           -8.7936     0.8313    -3.9357 H       
@<TRIPOS>BOND
   1    1    2 ar
   2    1    8 1
   3    1    6 ar
   4    2    3 ar
   5    2   31 1
   6    3    4 ar
   7    3   32 1
   8    4    5 ar
   9    4   20 1
  10    5    6 ar
  11    5    7 1
  12    6   33 1
  13    7   22 ar
  14    7   23 ar
  15    8    9 1
  16    8   34 1
  17    8   35 1
  18    9   10 1
  19    9   11 am
  20   10   21 1
  21   10   14 1
  22   10   36 1
  23   11   12 1
  24   11   18 2
  25   12   13 2
  26   12   15 1
  27   13   17 1
  28   13   37 1
  29   14   38 1
  30   14   39 1
  31   14   40 1
  32   15   16 2
  33   16   17 1
  34   16   41 1
  35   17   19 1
  36   19   42 1
  37   19   43 1
  38   19   44 1
  39   21   45 1
  40   21   46 1
  41   21   47 1
  42   22   26 ar
  43   22   48 1
  44   23   24 ar
  45   23   49 1
  46   24   25 ar
  47   24   27 1
  48   25   26 ar
  49   25   30 1
  50   26   50 1
  51   27   28 1
  52   28   29 1
  53   28   51 1
  54   28   52 1
  55   29   30 1
  56   29   53 1
  57   29   54 1

#	End of record

