#	Name: ASD02039459
#	Creating user name:	WinNT
#	Creation time:	15. 06. 2019 20:18

#	Modifying user name:	WinNT
#	Modification time:	15. 06. 2019 20:18

#	Program:	/corina/corina34_cracker 3.40 0067  02.08.2006

@<TRIPOS>MOLECULE
ASD02039459
  54   57    0    0    0
SMALL
NO_CHARGES


@<TRIPOS>ATOM
   1 C1             0.1216     1.5626    -0.0223 C.ar    
   2 C2             0.4693     0.2239    -0.0501 C.ar    
   3 C3             1.1970     2.6184    -0.0255 C.3     
   4 N4             1.6117     2.8889    -1.4043 N.am    
   5 C5             1.0739     3.9243    -2.0789 C.2     
   6 C6            -0.0115     4.7146    -1.4724 C.2     
   7 C7            -0.7135     5.7167    -2.0756 C.2     
   8 N8            -0.4993     4.5742    -0.2133 N.2     
   9 C9            -1.4516     5.4429    -0.0315 C.2     
  10 N10           -1.6107     6.1691    -1.1685 N.pl3   
  11 O11            1.4846     4.2063    -3.1884 O.2     
  12 C12           -2.5791     7.2488    -1.3754 C.3     
  13 C13            2.6110     2.0339    -2.0498 C.3     
  14 C14           -0.5110    -0.7513    -0.0478 C.ar    
  15 C15           -2.2016     0.9577    -0.0004 C.ar    
  16 C16           -1.2072     1.9341     0.0025 C.ar    
  17 C17           -3.6307     1.3506     0.0262 C.ar    
  18 C18           -4.0917     2.2919     0.9507 C.ar    
  19 C19           -5.4344     2.6244     0.9337 C.ar    
  20 N20           -6.2322     2.0450     0.0497 N.ar    
  21 C21           -5.7666     1.1603    -0.8097 C.ar    
  22 N22           -4.4959     0.8166    -0.8342 N.ar    
  23 C23           -1.8459    -0.3926    -0.0183 C.ar    
  24 F24           -2.8036    -1.3455    -0.0170 F       
  25 C25           -5.9825     3.6334     1.9097 C.3     
  26 F26           -5.9015     4.9137     1.3516 F       
  27 F27           -7.3191     3.3312     2.1914 F       
  28 F28           -5.2358     3.5919     3.0920 F       
  29 C29            2.0296     1.4519    -3.3419 C.3     
  30 C30            3.1059     0.6242    -4.0491 C.3     
  31 O31            4.2444     1.4479    -4.3088 O.3     
  32 C32            4.8585     1.9817    -3.1340 C.3     
  33 C33            3.8526     2.8640    -2.3900 C.3     
  34 H34            1.5108    -0.0608    -0.0740 H       
  35 H35            0.8096     3.5330     0.4235 H       
  36 H36            2.0537     2.2662     0.5491 H       
  37 H37           -0.5789     6.0799    -3.0838 H       
  38 H38           -2.0248     5.5644     0.8757 H       
  39 H39           -2.1306     8.1994    -1.0866 H       
  40 H40           -2.8629     7.2857    -2.4272 H       
  41 H41           -3.4642     7.0647    -0.7665 H       
  42 H42            2.8866     1.2226    -1.3761 H       
  43 H43           -0.2335    -1.7949    -0.0696 H       
  44 H44           -1.4762     2.9800     0.0163 H       
  45 H45           -3.4171     2.7477     1.6603 H       
  46 H46           -6.4462     0.7075    -1.5164 H       
  47 H47            1.1781     0.8146    -3.1035 H       
  48 H48            1.7071     2.2635    -3.9941 H       
  49 H49            3.3990    -0.2108    -3.4127 H       
  50 H50            2.7109     0.2427    -4.9907 H       
  51 H51            5.1745     1.1644    -2.4856 H       
  52 H52            5.7261     2.5782    -3.4163 H       
  53 H53            3.5669     3.7040    -3.0230 H       
  54 H54            4.3048     3.2365    -1.4709 H       
@<TRIPOS>BOND
   1    1    2 ar
   2    1    3 1
   3    1   16 ar
   4    2   14 ar
   5    2   34 1
   6    3    4 1
   7    3   35 1
   8    3   36 1
   9    4    5 am
  10    4   13 1
  11    5    6 1
  12    5   11 2
  13    6    7 2
  14    6    8 1
  15    7   10 1
  16    7   37 1
  17    8    9 2
  18    9   10 1
  19    9   38 1
  20   10   12 1
  21   12   39 1
  22   12   40 1
  23   12   41 1
  24   13   29 1
  25   13   33 1
  26   13   42 1
  27   14   23 ar
  28   14   43 1
  29   15   16 ar
  30   15   17 1
  31   15   23 ar
  32   16   44 1
  33   17   18 ar
  34   17   22 ar
  35   18   19 ar
  36   18   45 1
  37   19   20 ar
  38   19   25 1
  39   20   21 ar
  40   21   22 ar
  41   21   46 1
  42   23   24 1
  43   25   26 1
  44   25   27 1
  45   25   28 1
  46   29   30 1
  47   29   47 1
  48   29   48 1
  49   30   31 1
  50   30   49 1
  51   30   50 1
  52   31   32 1
  53   32   33 1
  54   32   51 1
  55   32   52 1
  56   33   53 1
  57   33   54 1

#	End of record

