#	Name: ASD02400002
#	Creating user name:	WinNT
#	Creation time:	15. 06. 2019 20:20

#	Modifying user name:	WinNT
#	Modification time:	15. 06. 2019 20:20

#	Program:	/corina/corina34_cracker 3.40 0067  02.08.2006

@<TRIPOS>MOLECULE
ASD02400002
  34   37    0    0    0
SMALL
NO_CHARGES


@<TRIPOS>ATOM
   1 C1            -0.0159     1.3248     0.0093 C.ar    
   2 N2             0.0021    -0.0041     0.0020 N.ar    
   3 C3             1.1419    -0.6728    -0.0125 C.ar    
   4 N4             2.3141    -0.0710    -0.0204 N.ar    
   5 C5             1.2099     2.0115     0.0013 C.ar    
   6 N6             1.5700     3.3178     0.0045 N.2     
   7 C7             2.3943     1.2556    -0.0141 C.ar    
   8 N8             3.4226     2.1637    -0.0194 N.pl3   
   9 C9             2.8680     3.4093    -0.0077 C.2     
  10 N10           -1.2146     2.0163     0.0188 N.pl3   
  11 Cl11           1.0930    -2.4081    -0.0207 Cl      
  12 C12            4.8540     1.8523    -0.0349 C.3     
  13 O13            5.5927     2.9670    -0.5789 O.3     
  14 C14            5.3599     1.6240     1.4148 C.3     
  15 C15            6.4060     3.5082     0.4473 C.3     
  16 C16            6.7421     2.3022     1.3644 C.3     
  17 C17            7.6892     4.1947     0.0283 C.3     
  18 O18            8.2591     4.7817     1.2230 O.3     
  19 O19            7.1607     2.8606     2.6148 O.3     
  20 P20            8.4244     3.8915     2.5704 P.3     
  21 S21           10.2434     2.8047     2.5015 S.3     
  22 O22            8.4031     4.7690     3.7619 O.2     
  23 O23            4.5068     2.2677     2.3634 O.3     
  24 H24            3.4240     4.3352    -0.0084 H       
  25 H25           -2.0545     1.5311     0.0202 H       
  26 H26           -1.2148     2.9863     0.0241 H       
  27 H27            5.0325     0.9609    -0.6363 H       
  28 H28            5.4529     0.5603     1.6340 H       
  29 H29            5.8125     4.2207     1.0202 H       
  30 H30            7.5000     1.6512     0.9287 H       
  31 H31            8.3806     3.4661    -0.3950 H       
  32 H32            7.4734     4.9736    -0.7030 H       
  33 H33           11.1716     3.7738     2.4105 H       
  34 H34            3.5966     1.9411     2.3589 H       
@<TRIPOS>BOND
   1    1    2 ar
   2    1    5 ar
   3    1   10 1
   4    2    3 ar
   5    3    4 ar
   6    3   11 1
   7    4    7 ar
   8    5    7 ar
   9    5    6 1
  10    6    9 2
  11    7    8 1
  12    8    9 1
  13    8   12 1
  14    9   24 1
  15   10   25 1
  16   10   26 1
  17   12   13 1
  18   12   14 1
  19   12   27 1
  20   13   15 1
  21   14   23 1
  22   14   16 1
  23   14   28 1
  24   15   16 1
  25   15   17 1
  26   15   29 1
  27   16   19 1
  28   16   30 1
  29   17   18 1
  30   17   31 1
  31   17   32 1
  32   18   20 1
  33   19   20 1
  34   20   21 1
  35   20   22 2
  36   21   33 1
  37   23   34 1

#	End of record

