#	Name: ASD01915807
#	Creating user name:	WinNT
#	Creation time:	15. 06. 2019 20:06

#	Modifying user name:	WinNT
#	Modification time:	15. 06. 2019 20:06

#	Program:	/corina/corina34_cracker 3.40 0067  02.08.2006

@<TRIPOS>MOLECULE
ASD01915807
  43   46    0    0    0
SMALL
NO_CHARGES


@<TRIPOS>ATOM
   1 C1            -0.0166     1.3728     0.0096 C.2     
   2 N2             0.0021    -0.0041     0.0020 N.pl3   
   3 C3            -1.2433    -0.7807    -0.0178 C.3     
   4 C4            -2.3411     0.0068     0.6954 C.3     
   5 N5            -2.4043     1.3989     0.2637 N.am    
   6 C6            -1.2811     2.1228     0.0392 C.2     
   7 C7             1.2846     1.7904    -0.0006 C.2     
   8 C8             2.0437     0.6125    -0.0024 C.2     
   9 N9             1.2133    -0.4042     0.0045 N.2     
  10 C10            3.5483     0.5278    -0.0107 C.3     
  11 O11            4.0996     1.8461    -0.0166 O.3     
  12 C12            5.4547     1.9482    -0.0244 C.ar    
  13 O13           -1.3168     3.3269    -0.1285 O.2     
  14 C14            6.0574     3.1978    -0.0305 C.ar    
  15 C15            6.2378     0.8030    -0.0207 C.ar    
  16 C16            7.6151     0.9094    -0.0288 C.ar    
  17 C17            8.2133     2.1559    -0.0405 C.ar    
  18 C18            7.4351     3.2988    -0.0385 C.ar    
  19 C19           -3.6450     1.9962     0.0783 C.ar    
  20 N20           -3.7334     3.2280    -0.4141 N.ar    
  21 C21           -4.8148     1.3105     0.4004 C.ar    
  22 C22           -6.0291     1.9465     0.1985 C.ar    
  23 N23           -6.0405     3.1796    -0.2916 N.ar    
  24 C24           -4.9121     3.8013    -0.5926 C.ar    
  25 F25           -7.1876     1.3186     0.4967 F       
  26 O26           -4.9649     5.0597    -1.0908 O.3     
  27 C27           -6.2612     5.6370    -1.2590 C.3     
  28 H28           -1.5404    -0.9656    -1.0502 H       
  29 H29           -1.0875    -1.7313     0.4923 H       
  30 H30           -3.3017    -0.4679     0.4955 H       
  31 H31           -2.1536    -0.0208     1.7688 H       
  32 H32            1.6488     2.8072    -0.0064 H       
  33 H33            3.8872    -0.0038     0.8785 H       
  34 H34            3.8771    -0.0076    -0.9014 H       
  35 H35            5.4500     4.0908    -0.0293 H       
  36 H36            5.7710    -0.1709    -0.0111 H       
  37 H37            8.2251     0.0182    -0.0255 H       
  38 H38            9.2902     2.2370    -0.0468 H       
  39 H39            7.9047     4.2713    -0.0481 H       
  40 H40           -4.7757     0.3070     0.7977 H       
  41 H41           -6.1607     6.6438    -1.6644 H       
  42 H42           -6.8450     5.0250    -1.9466 H       
  43 H43           -6.7666     5.6825    -0.2944 H       
@<TRIPOS>BOND
   1    1    2 1
   2    1    7 2
   3    1    6 1
   4    2    3 1
   5    2    9 1
   6    3    4 1
   7    3   28 1
   8    3   29 1
   9    4    5 1
  10    4   30 1
  11    4   31 1
  12    5    6 am
  13    5   19 1
  14    6   13 2
  15    7    8 1
  16    7   32 1
  17    8    9 2
  18    8   10 1
  19   10   11 1
  20   10   33 1
  21   10   34 1
  22   11   12 1
  23   12   14 ar
  24   12   15 ar
  25   14   18 ar
  26   14   35 1
  27   15   16 ar
  28   15   36 1
  29   16   17 ar
  30   16   37 1
  31   17   18 ar
  32   17   38 1
  33   18   39 1
  34   19   21 ar
  35   19   20 ar
  36   20   24 ar
  37   21   22 ar
  38   21   40 1
  39   22   23 ar
  40   22   25 1
  41   23   24 ar
  42   24   26 1
  43   26   27 1
  44   27   41 1
  45   27   42 1
  46   27   43 1

#	End of record

