#	Name: ASD05143070
#	Creating user name:	WinNT
#	Creation time:	15. 06. 2019 20:57

#	Modifying user name:	WinNT
#	Modification time:	15. 06. 2019 20:57

#	Program:	/corina/corina34_cracker 3.40 0067  02.08.2006

@<TRIPOS>MOLECULE
ASD05143070
 141  144    0    0    0
SMALL
NO_CHARGES


@<TRIPOS>ATOM
   1 C1            -1.9052     2.7052     4.9626 C.2     
   2 C2            -1.3587     1.6129     5.8454 C.3     
   3 N3            -1.0664     3.4538     4.2194 N.am    
   4 O4            -3.1001     2.9072     4.9172 O.2     
   5 C5            -1.5976     4.5157     3.3612 C.3     
   6 C6            -2.5590     3.9102     2.3365 C.3     
   7 C7            -2.3334     5.5235     4.2061 C.2     
   8 C8            -1.7859     2.9807     1.3988 C.3     
   9 C9            -2.7473     2.3752     0.3742 C.3     
  10 N10           -2.0071     1.4852    -0.5237 N.pl3   
  11 C11           -2.6660     0.8235    -1.5327 C.2     
  12 N12           -1.9713    -0.0117    -2.3753 N.pl3   
  13 N13           -3.9493     0.9881    -1.6906 N.2     
  14 O14           -2.7244     5.2172     5.3125 O.2     
  15 N15           -2.5570     6.7652     3.7322 N.am    
  16 C16           -3.2723     7.7449     4.5536 C.3     
  17 C17           -2.2688     8.7155     5.1795 C.3     
  18 C18           -1.1020     7.9279     5.7785 C.3     
  19 C19           -0.0475     7.7113     4.7241 C.2     
  20 N20            1.2608     7.9375     5.0461 N.am    
  21 C21            2.2332     7.6951     3.9560 C.3     
  22 C22            2.3871     8.9811     3.1416 C.3     
  23 C23            2.9301     8.6422     1.7519 C.3     
  24 C24            3.9138     9.7274     1.3095 C.3     
  25 N25            3.7622     9.9441    -0.1434 N.am    
  26 C26            5.3227     9.2848     1.6098 C.2     
  27 N27            5.8130     9.3992     2.8599 N.am    
  28 O28            6.0153     8.8255     0.7264 O.2     
  29 C29            2.9556    10.9722    -0.5240 C.2     
  30 O30            2.4074    11.6632     0.3085 O.2     
  31 C31            2.7526    11.2413    -1.9928 C.3     
  32 N32            1.5647    12.1112    -2.1526 N.am    
  33 C33            3.9858    11.9462    -2.5612 C.3     
  34 C34            0.4404    11.4873    -2.6145 C.2     
  35 O35            0.4528    10.3021    -2.8715 O.2     
  36 C36           -0.8156    12.2996    -2.7982 C.3     
  37 N37           -1.9838    11.4038    -2.6852 N.am    
  38 C38           -0.8908    13.3790    -1.7164 C.3     
  39 C39           -3.0116    11.8384    -1.9052 C.2     
  40 O40           -2.9439    12.9084    -1.3383 O.2     
  41 C41           -4.2349    10.9709    -1.7568 C.3     
  42 C42            3.8318    12.1037    -4.0520 C.2     
  43 C43            3.1326    13.1878    -4.7461 C.ar    
  44 C44            3.2527    12.9108    -6.1200 C.ar    
  45 N45            3.9731    11.7434    -6.2376 N.pl3   
  46 C46            4.3144    11.2803    -4.9960 C.2     
  47 C47            2.4424    14.3252    -4.3224 C.ar    
  48 C48            1.8865    15.1645    -5.2460 C.ar    
  49 C49            2.0018    14.8954    -6.6031 C.ar    
  50 C50            2.6791    13.7795    -7.0430 C.ar    
  51 N51           -4.7120    11.0586    -0.3578 N.am    
  52 C52           -3.8785     9.5202    -2.0875 C.3     
  53 C53           -5.1193     8.6683    -2.0117 C.ar    
  54 C54           -6.1084     8.7986    -2.9715 C.ar    
  55 C55           -7.2481     8.0152    -2.9005 C.ar    
  56 C56           -7.3967     7.1043    -1.8721 C.ar    
  57 C57           -6.4081     6.9750    -0.9142 C.ar    
  58 C58           -5.2676     7.7525    -0.9872 C.ar    
  59 C59           -4.2415     8.5118     3.6910 C.2     
  60 O60           -5.4371     8.4044     3.8640 O.2     
  61 C61           -0.7748    12.7275    -0.3370 C.3     
  62 C62           -0.9540    13.7925     0.7468 C.3     
  63 N63           -0.8429    13.1687     2.0677 N.pl3   
  64 C64           -0.9706    13.9343     3.2024 C.2     
  65 N65           -1.2025    15.2854     3.0976 N.pl3   
  66 N66           -0.8718    13.3793     4.3776 N.2     
  67 N67           -3.7556     9.3265     2.7145 N.am    
  68 C68           -4.7526    10.0522     1.9023 C.3     
  69 C69           -4.3057    10.0450     0.4632 C.2     
  70 O70           -3.5982     9.1549     0.0411 O.2     
  71 C71           -4.8645    11.4956     2.3972 C.3     
  72 O72           -3.6275    12.1742     2.1702 O.3     
  73 F73           -5.9622     9.6898    -3.9763 F       
  74 O74           -0.3546     7.3426     3.6102 O.2     
  75 H75           -0.6738     2.0442     6.5754 H       
  76 H76           -2.1806     1.1204     6.3651 H       
  77 H77           -0.8265     0.8839     5.2343 H       
  78 H78           -0.1110     3.2896     4.2527 H       
  79 H79           -0.7757     5.0081     2.8415 H       
  80 H80           -3.3320     3.3426     2.8546 H       
  81 H81           -3.0218     4.7086     1.7564 H       
  82 H82           -1.0129     3.5482     0.8807 H       
  83 H83           -1.3232     2.1823     1.9789 H       
  84 H84           -3.5203     1.8076     0.8923 H       
  85 H85           -3.2101     3.1736    -0.2059 H       
  86 H86           -1.0520     1.3627    -0.4062 H       
  87 H87           -1.0162    -0.1342    -2.2579 H       
  88 H88           -2.4362    -0.4786    -3.0873 H       
  89 H89           -4.4142     0.5212    -2.4025 H       
  90 H90           -2.2443     7.0102     2.8473 H       
  91 H91           -3.8185     7.2280     5.3426 H       
  92 H92           -1.8937     9.3942     4.4135 H       
  93 H93           -2.7604     9.2901     5.9646 H       
  94 H94           -0.6745     8.4881     6.6101 H       
  95 H95           -1.4610     6.9632     6.1369 H       
  96 H96            1.5338     8.2365     5.9276 H       
  97 H97            3.1967     7.4140     4.3812 H       
  98 H98            1.8681     6.8955     3.3114 H       
  99 H99            1.4166     9.4676     3.0438 H       
 100 H100           3.0804     9.6519     3.6491 H       
 101 H101           3.4418     7.6804     1.7865 H       
 102 H102           2.1045     8.5891     1.0423 H       
 103 H103           3.6988    10.6542     1.8414 H       
 104 H104           4.2138     9.3827    -0.7928 H       
 105 H105           5.2590     9.7665     3.5664 H       
 106 H106           6.7198     9.1143     3.0532 H       
 107 H107           2.5906    10.3003    -2.5184 H       
 108 H108           1.5836    13.0583    -1.9441 H       
 109 H109           4.0873    12.9289    -2.1006 H       
 110 H110           4.8744    11.3518    -2.3485 H       
 111 H111          -0.8076    12.7669    -3.7830 H       
 112 H112          -2.0172    10.5492    -3.1429 H       
 113 H113          -0.0743    14.0880    -1.8532 H       
 114 H114          -1.8435    13.9032    -1.7917 H       
 115 H115          -5.0156    11.3211    -2.4320 H       
 116 H116           4.2071    11.3150    -7.0758 H       
 117 H117           4.8812    10.3814    -4.8038 H       
 118 H118           2.3480    14.5405    -3.2683 H       
 119 H119           1.3527    16.0442    -4.9178 H       
 120 H120           1.5567    15.5681    -7.3212 H       
 121 H121           2.7636    13.5790    -8.1009 H       
 122 H122          -5.2736    11.7854    -0.0458 H       
 123 H123          -3.4631     9.4685    -3.0940 H       
 124 H124          -3.1424     9.1546    -1.3715 H       
 125 H125          -8.0205     8.1163    -3.6485 H       
 126 H126          -8.2856     6.4935    -1.8164 H       
 127 H127          -6.5253     6.2631    -0.1105 H       
 128 H128          -4.4960     7.6506    -0.2383 H       
 129 H129          -1.5469    11.9657    -0.2289 H       
 130 H130           0.2075    12.2664    -0.2343 H       
 131 H131          -0.1819    14.5543     0.6387 H       
 132 H132          -1.9363    14.2536     0.6442 H       
 133 H133          -0.6793    12.2154     2.1416 H       
 134 H134          -1.2761    15.6985     2.2231 H       
 135 H135          -1.2926    15.8256     3.8982 H       
 136 H136          -0.9619    13.9194     5.1782 H       
 137 H137          -2.8030     9.4255     2.5604 H       
 138 H138          -5.7210     9.5591     1.9865 H       
 139 H139          -5.6625    12.0043     1.8564 H       
 140 H140          -5.0896    11.4976     3.4637 H       
 141 H141          -3.6259    13.0966     2.4604 H       
@<TRIPOS>BOND
   1    1    2 1
   2    1    3 am
   3    1    4 2
   4    2   75 1
   5    2   76 1
   6    2   77 1
   7    3    5 1
   8    3   78 1
   9    5    6 1
  10    5    7 1
  11    5   79 1
  12    6    8 1
  13    6   80 1
  14    6   81 1
  15    7   14 2
  16    7   15 am
  17    8    9 1
  18    8   82 1
  19    8   83 1
  20    9   10 1
  21    9   84 1
  22    9   85 1
  23   10   11 1
  24   10   86 1
  25   11   12 1
  26   11   13 2
  27   12   87 1
  28   12   88 1
  29   13   89 1
  30   15   16 1
  31   15   90 1
  32   16   17 1
  33   16   59 1
  34   16   91 1
  35   17   18 1
  36   17   92 1
  37   17   93 1
  38   18   19 1
  39   18   94 1
  40   18   95 1
  41   19   20 am
  42   19   74 2
  43   20   21 1
  44   20   96 1
  45   21   22 1
  46   21   97 1
  47   21   98 1
  48   22   23 1
  49   22   99 1
  50   22  100 1
  51   23   24 1
  52   23  101 1
  53   23  102 1
  54   24   25 1
  55   24   26 1
  56   24  103 1
  57   25   29 am
  58   25  104 1
  59   26   27 am
  60   26   28 2
  61   27  105 1
  62   27  106 1
  63   29   30 2
  64   29   31 1
  65   31   32 1
  66   31   33 1
  67   31  107 1
  68   32   34 am
  69   32  108 1
  70   33   42 1
  71   33  109 1
  72   33  110 1
  73   34   35 2
  74   34   36 1
  75   36   37 1
  76   36   38 1
  77   36  111 1
  78   37   39 am
  79   37  112 1
  80   38   61 1
  81   38  113 1
  82   38  114 1
  83   39   40 2
  84   39   41 1
  85   41   51 1
  86   41   52 1
  87   41  115 1
  88   42   43 1
  89   42   46 2
  90   43   44 ar
  91   43   47 ar
  92   44   45 1
  93   44   50 ar
  94   45   46 1
  95   45  116 1
  96   46  117 1
  97   47   48 ar
  98   47  118 1
  99   48   49 ar
 100   48  119 1
 101   49   50 ar
 102   49  120 1
 103   50  121 1
 104   51   69 am
 105   51  122 1
 106   52   53 1
 107   52  123 1
 108   52  124 1
 109   53   54 ar
 110   53   58 ar
 111   54   55 ar
 112   54   73 1
 113   55   56 ar
 114   55  125 1
 115   56   57 ar
 116   56  126 1
 117   57   58 ar
 118   57  127 1
 119   58  128 1
 120   59   60 2
 121   59   67 am
 122   61   62 1
 123   61  129 1
 124   61  130 1
 125   62   63 1
 126   62  131 1
 127   62  132 1
 128   63   64 1
 129   63  133 1
 130   64   65 1
 131   64   66 2
 132   65  134 1
 133   65  135 1
 134   66  136 1
 135   67   68 1
 136   67  137 1
 137   68   69 1
 138   68   71 1
 139   68  138 1
 140   69   70 2
 141   71   72 1
 142   71  139 1
 143   71  140 1
 144   72  141 1

#	End of record

