#	Name: ASD09740023
#	Creating user name:	WinNT
#	Creation time:	15. 06. 2019 21:22

#	Modifying user name:	WinNT
#	Modification time:	15. 06. 2019 21:22

#	Program:	/corina/corina34_cracker 3.40 0067  02.08.2006

@<TRIPOS>MOLECULE
ASD09740023
  41   45    0    0    0
SMALL
NO_CHARGES


@<TRIPOS>ATOM
   1 S1            -0.0211     1.7018     0.0114 S.3     
   2 C2             0.0021    -0.0041     0.0020 C.2     
   3 C3             1.7344     1.7801    -0.0049 C.2     
   4 C4             2.2459     0.5298    -0.0165 C.2     
   5 C5             1.2797    -0.4652    -0.0127 C.2     
   6 C6             1.6135    -1.9112    -0.0228 C.ar    
   7 C7             2.5255     3.0175    -0.0066 C.2     
   8 O8             3.8660     3.1113    -0.0252 O.3     
   9 C9             2.5168    -2.4138    -0.9571 C.ar    
  10 C10            1.0291    -2.7702     0.9056 C.ar    
  11 C11            1.3434    -4.1141     0.8920 C.ar    
  12 C12            2.2368    -4.6085    -0.0412 C.ar    
  13 C13            2.8239    -3.7594    -0.9618 C.ar    
  14 N14            2.0554     4.2545     0.0042 N.2     
  15 C15            3.1430     5.0530    -0.0026 C.2     
  16 N16            4.1984     4.2775    -0.0208 N.2     
  17 C17            3.1433     6.5350     0.0044 C.ar    
  18 C18            4.3575     7.2443    -0.0040 C.ar    
  19 C19            1.9442     7.2361     0.0135 C.ar    
  20 C20            1.9460     8.6208     0.0200 C.ar    
  21 C21            3.1313     9.3260     0.0176 C.ar    
  22 C22            4.3468     8.6504     0.0028 C.ar    
  23 N23            5.6602     9.0660    -0.0031 N.pl3   
  24 C24            6.4908     7.9802    -0.0189 C.2     
  25 C25            5.7650     6.8491    -0.0195 C.2     
  26 C26           -1.2253    -0.8785     0.0095 C.3     
  27 F27           -1.5923    -1.1557     1.3307 F       
  28 F28           -2.2742    -0.2155    -0.6366 F       
  29 F29           -0.9487    -2.0761    -0.6587 F       
  30 H30            3.3062     0.3246    -0.0278 H       
  31 H31            2.9754    -1.7517    -1.6766 H       
  32 H32            0.3317    -2.3851     1.6348 H       
  33 H33            0.8913    -4.7807     1.6114 H       
  34 H34            2.4799    -5.6608    -0.0483 H       
  35 H35            3.5208    -4.1507    -1.6882 H       
  36 H36            1.0070     6.6993     0.0151 H       
  37 H37            1.0076     9.1553     0.0267 H       
  38 H38            3.1154    10.4058     0.0225 H       
  39 H39            5.9521     9.9911     0.0030 H       
  40 H40            7.5699     8.0247    -0.0264 H       
  41 H41            6.1487     5.8396    -0.0299 H       
@<TRIPOS>BOND
   1    1    2 1
   2    1    3 1
   3    2   26 1
   4    2    5 2
   5    3    4 2
   6    3    7 1
   7    4    5 1
   8    4   30 1
   9    5    6 1
  10    6    9 ar
  11    6   10 ar
  12    7   14 2
  13    7    8 1
  14    8   16 1
  15    9   13 ar
  16    9   31 1
  17   10   11 ar
  18   10   32 1
  19   11   12 ar
  20   11   33 1
  21   12   13 ar
  22   12   34 1
  23   13   35 1
  24   14   15 1
  25   15   16 2
  26   15   17 1
  27   17   18 ar
  28   17   19 ar
  29   18   22 ar
  30   18   25 1
  31   19   20 ar
  32   19   36 1
  33   20   21 ar
  34   20   37 1
  35   21   22 ar
  36   21   38 1
  37   22   23 1
  38   23   24 1
  39   23   39 1
  40   24   25 2
  41   24   40 1
  42   25   41 1
  43   26   27 1
  44   26   28 1
  45   26   29 1

#	End of record

