#	Name: ASD06090005
#	Creating user name:	WinNT
#	Creation time:	15. 06. 2019 21:05

#	Modifying user name:	WinNT
#	Modification time:	15. 06. 2019 21:05

#	Program:	/corina/corina34_cracker 3.40 0067  02.08.2006

@<TRIPOS>MOLECULE
ASD06090005
  54   57    0    0    0
SMALL
NO_CHARGES


@<TRIPOS>ATOM
   1 N1            -0.0155     1.2917     0.0091 N.2     
   2 C2             2.3531     1.3454    -0.0132 C.2     
   3 O3             3.3934    -0.6962    -0.0341 O.2     
   4 O4            -1.8734    -4.0471    -4.9965 O.2     
   5 C5            -1.0311    -4.6551    -4.3706 C.2     
   6 C6            -1.0345    -6.1621    -4.3701 C.3     
   7 C7            -2.1943    -6.6698    -5.2292 C.3     
   8 C8            -1.9641    -6.2661    -6.6869 C.3     
   9 C9            -2.2729    -8.1715    -5.1302 C.ar    
  10 C10           -3.4185    -8.7731    -4.6436 C.ar    
  11 C11           -3.4906   -10.1506    -4.5528 C.ar    
  12 C12           -2.4172   -10.9265    -4.9486 C.ar    
  13 C13           -1.2716   -10.3249    -5.4352 C.ar    
  14 C14           -1.2017    -8.9476    -5.5314 C.ar    
  15 N15           -0.0921    -3.9831    -3.6756 N.am    
  16 C16            0.9384    -4.7058    -2.9175 C.3     
  17 C17            0.9303    -4.2020    -1.4708 C.3     
  18 C18           -0.0757    -2.5140    -3.6665 C.3     
  19 C19           -0.0747    -2.0299    -2.2131 C.3     
  20 C20            1.0958    -2.6806    -1.4636 C.3     
  21 O21            2.3207    -2.3319    -2.1119 O.3     
  22 C22            1.1229    -2.1776    -0.0190 C.3     
  23 N23            1.1611    -0.7131    -0.0124 N.am    
  24 C24            0.0021    -0.0041     0.0020 C.2     
  25 C25            2.3468    -0.0701    -0.0211 C.2     
  26 S26            3.6788     2.5001    -0.0196 S.3     
  27 C27            2.5583     3.8519    -0.0017 C.2     
  28 C28            1.3037     3.4170     0.0080 C.2     
  29 C29            1.1405     2.0270     0.0021 C.2     
  30 Br30          -0.1702     4.6016     0.0284 Br      
  31 H31           -0.0925    -6.5278    -4.7787 H       
  32 H32           -1.1528    -6.5248    -3.3490 H       
  33 H33           -3.1278    -6.2330    -4.8743 H       
  34 H34           -1.9072    -5.1800    -6.7584 H       
  35 H35           -1.0306    -6.7030    -7.0418 H       
  36 H36           -2.7903    -6.6278    -7.2989 H       
  37 H37           -4.2570    -8.1669    -4.3341 H       
  38 H38           -4.3854   -10.6206    -4.1723 H       
  39 H39           -2.4734   -12.0026    -4.8773 H       
  40 H40           -0.4329   -10.9311    -5.7441 H       
  41 H41           -0.3084    -8.4778    -5.9156 H       
  42 H42            0.7222    -5.7740    -2.9337 H       
  43 H43            1.9160    -4.5220    -3.3630 H       
  44 H44           -0.0155    -4.4673    -0.9984 H       
  45 H45            1.7529    -4.6601    -0.9215 H       
  46 H46            0.8211    -2.1554    -4.1717 H       
  47 H47           -0.9613    -2.1356    -4.1770 H       
  48 H48            0.0342    -0.9456    -2.1908 H       
  49 H49           -1.0132    -2.3111    -1.7353 H       
  50 H50            2.4916    -1.3807    -2.1444 H       
  51 H51            0.2287    -2.5201     0.5018 H       
  52 H52            2.0080    -2.5664     0.4846 H       
  53 H53           -0.9364    -0.5385     0.0081 H       
  54 H54            2.8491     4.8920     0.0017 H       
@<TRIPOS>BOND
   1    1   24 2
   2    1   29 1
   3    2   29 2
   4    2   25 1
   5    2   26 1
   6    3   25 2
   7    4    5 2
   8    5   15 am
   9    5    6 1
  10    6   31 1
  11    6   32 1
  12    6    7 1
  13    7    9 1
  14    7   33 1
  15    7    8 1
  16    8   34 1
  17    8   35 1
  18    8   36 1
  19    9   10 ar
  20    9   14 ar
  21   10   11 ar
  22   10   37 1
  23   11   38 1
  24   11   12 ar
  25   12   39 1
  26   12   13 ar
  27   13   40 1
  28   13   14 ar
  29   14   41 1
  30   15   18 1
  31   15   16 1
  32   16   17 1
  33   16   42 1
  34   16   43 1
  35   17   20 1
  36   17   44 1
  37   17   45 1
  38   18   19 1
  39   18   46 1
  40   18   47 1
  41   19   48 1
  42   19   49 1
  43   19   20 1
  44   20   22 1
  45   20   21 1
  46   21   50 1
  47   22   23 1
  48   22   51 1
  49   22   52 1
  50   23   24 1
  51   23   25 am
  52   24   53 1
  53   26   27 1
  54   27   28 2
  55   27   54 1
  56   28   29 1
  57   28   30 1

#	End of record

