#	Name: ASD01820214
#	Creating user name:	WinNT
#	Creation time:	15. 06. 2019 19:36

#	Modifying user name:	WinNT
#	Modification time:	15. 06. 2019 19:36

#	Program:	/corina/corina34_cracker 3.40 0067  02.08.2006

@<TRIPOS>MOLECULE
ASD01820214
  71   72    0    0    0
SMALL
NO_CHARGES


@<TRIPOS>ATOM
   1 C1            -0.3077    -0.2463    -1.1070 C.ar    
   2 C2            -0.7663    -1.5598    -1.1335 C.ar    
   3 C3            -2.0927    -1.8334    -0.8404 C.ar    
   4 C4            -2.9571    -0.8025    -0.5225 C.ar    
   5 C5            -2.5016     0.5026    -0.4966 C.ar    
   6 C6            -1.1780     0.7817    -0.7820 C.ar    
   7 C7            -3.4484     1.6227    -0.1504 C.3     
   8 C8            -3.3732     2.7057    -1.2286 C.3     
   9 C9            -4.3345     3.8429    -0.8771 C.3     
  10 C10           -4.2593     4.9259    -1.9553 C.3     
  11 N11           -5.1823     6.0177    -1.6178 N.3     
  12 C12           -4.9692     7.1770    -2.4945 C.3     
  13 C13           -5.7628     8.3718    -1.9619 C.3     
  14 C14           -5.5442     9.5612    -2.8612 C.ar    
  15 C15           -6.3853     9.7762    -3.9366 C.ar    
  16 C16           -6.1889    10.8661    -4.7648 C.ar    
  17 C17           -5.1473    11.7452    -4.5174 C.ar    
  18 C18           -4.3002    11.5286    -3.4344 C.ar    
  19 C19           -4.5060    10.4380    -2.6053 C.ar    
  20 O20            0.9932     0.0272    -1.3940 O.3     
  21 C21            1.3934     1.3982    -1.3473 C.3     
  22 O22            0.0853    -2.5728    -1.4468 O.3     
  23 C23           -0.4551    -3.8957    -1.4544 C.3     
  24 C24           -4.8761     1.0781    -0.0733 C.3     
  25 C25           -5.2352     0.3992    -1.3966 C.3     
  26 C26           -4.9730     0.0603     1.0649 C.3     
  27 C27           -6.5782     5.5637    -1.6753 C.3     
  28 O28           -3.2763    12.3888    -3.1873 O.3     
  29 C29           -2.4476    12.1039    -2.0586 C.3     
  30 O30           -4.9526    12.8172    -5.3312 O.3     
  31 C31           -5.8603    12.9761    -6.4233 C.3     
  32 C32           -3.0721     2.1988     1.1508 C.1     
  33 N33           -2.7816     2.6435     2.1550 N.1     
  34 H34           -2.4512    -2.8519    -0.8606 H       
  35 H35           -3.9907    -1.0170    -0.2942 H       
  36 H36           -0.8246     1.8021    -0.7611 H       
  37 H37           -2.3561     3.0937    -1.2835 H       
  38 H38           -3.6519     2.2791    -2.1921 H       
  39 H39           -5.3516     3.4549    -0.8222 H       
  40 H40           -4.0558     4.2695     0.0864 H       
  41 H41           -3.2422     5.3138    -2.0102 H       
  42 H42           -4.5380     4.4992    -2.9188 H       
  43 H43           -3.9083     7.4261    -2.5161 H       
  44 H44           -5.3068     6.9370    -3.5027 H       
  45 H45           -6.8237     8.1228    -1.9402 H       
  46 H46           -5.4252     8.6119    -0.9536 H       
  47 H47           -7.1975     9.0914    -4.1308 H       
  48 H48           -6.8474    11.0317    -5.6047 H       
  49 H49           -3.8501    10.2677    -1.7643 H       
  50 H50            2.4518     1.4764    -1.5960 H       
  51 H51            0.8081     1.9722    -2.0656 H       
  52 H52            1.2257     1.7917    -0.3448 H       
  53 H53            0.3277    -4.6064    -1.7193 H       
  54 H54           -0.8435    -4.1352    -0.4645 H       
  55 H55           -1.2617    -3.9545    -2.1852 H       
  56 H56           -5.5685     1.8990     0.1135 H       
  57 H57           -4.4160    -0.2500    -1.7058 H       
  58 H58           -6.1400    -0.1945    -1.2665 H       
  59 H59           -5.4053     1.1583    -2.1600 H       
  60 H60           -4.0593    -0.5330     1.1004 H       
  61 H61           -5.1025     0.5850     2.0115 H       
  62 H62           -5.8261    -0.5962     0.8937 H       
  63 H63           -6.7251     4.7499    -0.9652 H       
  64 H64           -7.2402     6.3916    -1.4212 H       
  65 H65           -6.8050     5.2129    -2.6820 H       
  66 H66           -1.6721    12.8654    -1.9757 H       
  67 H67           -3.0545    12.1032    -1.1532 H       
  68 H68           -1.9840    11.1256    -2.1859 H       
  69 H69           -5.5933    13.8675    -6.9910 H       
  70 H70           -5.8047    12.1020    -7.0721 H       
  71 H71           -6.8754    13.0801    -6.0399 H       
@<TRIPOS>BOND
   1    1    2 ar
   2    1   20 1
   3    1    6 ar
   4    2    3 ar
   5    2   22 1
   6    3    4 ar
   7    3   34 1
   8    4    5 ar
   9    4   35 1
  10    5    6 ar
  11    5    7 1
  12    6   36 1
  13    7    8 1
  14    7   24 1
  15    7   32 1
  16    8    9 1
  17    8   37 1
  18    8   38 1
  19    9   10 1
  20    9   39 1
  21    9   40 1
  22   10   11 1
  23   10   41 1
  24   10   42 1
  25   11   12 1
  26   11   27 1
  27   12   13 1
  28   12   43 1
  29   12   44 1
  30   13   14 1
  31   13   45 1
  32   13   46 1
  33   14   15 ar
  34   14   19 ar
  35   15   16 ar
  36   15   47 1
  37   16   17 ar
  38   16   48 1
  39   17   18 ar
  40   17   30 1
  41   18   19 ar
  42   18   28 1
  43   19   49 1
  44   20   21 1
  45   21   50 1
  46   21   51 1
  47   21   52 1
  48   22   23 1
  49   23   53 1
  50   23   54 1
  51   23   55 1
  52   24   25 1
  53   24   26 1
  54   24   56 1
  55   25   57 1
  56   25   58 1
  57   25   59 1
  58   26   60 1
  59   26   61 1
  60   26   62 1
  61   27   63 1
  62   27   64 1
  63   27   65 1
  64   28   29 1
  65   29   66 1
  66   29   67 1
  67   29   68 1
  68   30   31 1
  69   31   69 1
  70   31   70 1
  71   31   71 1
  72   32   33 3

#	End of record

