#	Name: ASD07300251
#	Creating user name:	WinNT
#	Creation time:	15. 06. 2019 21:09

#	Modifying user name:	WinNT
#	Modification time:	15. 06. 2019 21:09

#	Program:	/corina/corina34_cracker 3.40 0067  02.08.2006

@<TRIPOS>MOLECULE
ASD07300251
  71   73    0    0    0
SMALL
NO_CHARGES


@<TRIPOS>ATOM
   1 C1             2.9923     4.6907    -3.2510 C.2     
   2 C2             3.3772     3.3015    -3.6901 C.3     
   3 O3             3.8342     5.5535    -3.1695 O.2     
   4 O4             1.7133     4.9711    -2.9557 O.3     
   5 C5             1.4154     6.3299    -2.5397 C.3     
   6 C6            -1.9746     7.7419    -1.5783 C.ar    
   7 C7            -0.6024     7.6612    -1.8352 C.ar    
   8 C8            -0.0586     6.4556    -2.2523 C.ar    
   9 C9            -0.9080     5.3683    -2.3986 C.ar    
  10 C10           -2.2547     5.5196    -2.1267 C.ar    
  11 N11           -2.7457     6.6781    -1.7313 N.ar    
  12 C12           -1.0712     9.7368    -1.2071 C.2     
  13 N13           -2.2297     9.0519    -1.1889 N.am    
  14 N14           -0.0686     8.9226    -1.5886 N.am    
  15 C15           -3.4840     9.5726    -0.8370 C.ar    
  16 C16           -3.6033    10.9047    -0.4649 C.ar    
  17 C17           -4.8382    11.4169    -0.1191 C.ar    
  18 C18           -5.9594    10.6003    -0.1429 C.ar    
  19 C19           -5.8407     9.2690    -0.5141 C.ar    
  20 C20           -4.6073     8.7574    -0.8661 C.ar    
  21 O21           -7.1750    11.1050     0.1982 O.3     
  22 Si22          -8.0917    11.5459    -1.0768 Si      
  23 C23           -8.1916    10.1337    -2.2877 C.3     
  24 C24           -9.0489     9.0135    -1.6953 C.3     
  25 C25           -8.8235    10.6241    -3.5920 C.3     
  26 C26           -9.8047    11.9821    -0.4887 C.3     
  27 C27          -10.7693    11.9732    -1.6763 C.3     
  28 C28          -10.2643    10.9562     0.5492 C.3     
  29 C29           -7.3257    13.0256    -1.9102 C.3     
  30 C30           -6.9394    14.0628    -0.8538 C.3     
  31 C31           -6.0758    12.5888    -2.6770 C.3     
  32 O32           -0.9476    10.9123    -0.9181 O.2     
  33 C33            1.3396     9.3015    -1.7284 C.3     
  34 C34            1.5943     9.8018    -3.1517 C.3     
  35 H35            4.4484     3.2669    -3.8888 H       
  36 H36            3.1308     2.5900    -2.9020 H       
  37 H37            2.8308     3.0427    -4.5971 H       
  38 H38            1.9825     6.5669    -1.6395 H       
  39 H39            1.6907     7.0221    -3.3353 H       
  40 H40           -0.5207     4.4134    -2.7219 H       
  41 H41           -2.9169     4.6740    -2.2405 H       
  42 H42           -2.7303    11.5403    -0.4457 H       
  43 H43           -4.9311    12.4532     0.1704 H       
  44 H44           -6.7139     8.6336    -0.5322 H       
  45 H45           -4.5158     7.7221    -1.1598 H       
  46 H46           -7.1891     9.7562    -2.4892 H       
  47 H47           -8.9610     8.1218    -2.3159 H       
  48 H48           -8.7057     8.7887    -0.6854 H       
  49 H49          -10.0908     9.3321    -1.6624 H       
  50 H50           -8.2305    11.4440    -3.9973 H       
  51 H51           -8.8523     9.8060    -4.3118 H       
  52 H52           -9.8379    10.9715    -3.3961 H       
  53 H53           -9.7925    12.9744    -0.0379 H       
  54 H54          -10.8969    10.9512    -2.0331 H       
  55 H55          -11.7344    12.3720    -1.3635 H       
  56 H56          -10.3639    12.5902    -2.4782 H       
  57 H57           -9.4655    10.7872     1.2714 H       
  58 H58          -11.1474    11.3323     1.0656 H       
  59 H59          -10.5072    10.0181     0.0501 H       
  60 H60           -8.0431    13.4636    -2.6041 H       
  61 H61           -7.8149    14.3155    -0.2556 H       
  62 H62           -6.1641    13.6516    -0.2074 H       
  63 H63           -6.5642    14.9601    -1.3458 H       
  64 H64           -6.3255    11.7561    -3.3345 H       
  65 H65           -5.7047    13.4231    -3.2722 H       
  66 H66           -5.3069    12.2761    -1.9705 H       
  67 H67            1.5751    10.0934    -1.0173 H       
  68 H68            1.9705     8.4352    -1.5295 H       
  69 H69            1.3588     9.0100    -3.8628 H       
  70 H70            0.9634    10.6682    -3.3506 H       
  71 H71            2.6420    10.0838    -3.2557 H       
@<TRIPOS>BOND
   1    1    2 1
   2    1    3 2
   3    1    4 1
   4    2   35 1
   5    2   36 1
   6    2   37 1
   7    4    5 1
   8    5    8 1
   9    5   38 1
  10    5   39 1
  11    6    7 ar
  12    6   11 ar
  13    6   13 1
  14    7    8 ar
  15    7   14 1
  16    8    9 ar
  17    9   10 ar
  18    9   40 1
  19   10   11 ar
  20   10   41 1
  21   12   13 am
  22   12   14 am
  23   12   32 2
  24   13   15 1
  25   14   33 1
  26   15   16 ar
  27   15   20 ar
  28   16   17 ar
  29   16   42 1
  30   17   18 ar
  31   17   43 1
  32   18   19 ar
  33   18   21 1
  34   19   20 ar
  35   19   44 1
  36   20   45 1
  37   21   22 1
  38   22   23 1
  39   22   26 1
  40   22   29 1
  41   23   24 1
  42   23   25 1
  43   23   46 1
  44   24   47 1
  45   24   48 1
  46   24   49 1
  47   25   50 1
  48   25   51 1
  49   25   52 1
  50   26   27 1
  51   26   28 1
  52   26   53 1
  53   27   54 1
  54   27   55 1
  55   27   56 1
  56   28   57 1
  57   28   58 1
  58   28   59 1
  59   29   30 1
  60   29   31 1
  61   29   60 1
  62   30   61 1
  63   30   62 1
  64   30   63 1
  65   31   64 1
  66   31   65 1
  67   31   66 1
  68   33   34 1
  69   33   67 1
  70   33   68 1
  71   34   69 1
  72   34   70 1
  73   34   71 1

#	End of record

