#	Name: ASD03740166
#	Creating user name:	WinNT
#	Creation time:	15. 06. 2019 20:46

#	Modifying user name:	WinNT
#	Modification time:	15. 06. 2019 20:46

#	Program:	/corina/corina34_cracker 3.40 0067  02.08.2006

@<TRIPOS>MOLECULE
ASD03740166
  72   76    0    0    0
SMALL
NO_CHARGES


@<TRIPOS>ATOM
   1 C1             0.0825     1.3696    -0.3273 C.ar    
   2 C2             0.0423    -0.0066    -0.5525 C.ar    
   3 C3            -1.1500    -0.6683    -0.6190 C.ar    
   4 C4            -2.3452     0.0288    -0.4616 C.ar    
   5 C5            -2.3161     1.4177    -0.2339 C.ar    
   6 C6            -1.0885     2.0836    -0.1622 C.ar    
   7 N7            -3.6669    -0.3421    -0.4756 N.pl3   
   8 N8            -4.4626     0.7878    -0.2612 N.2     
   9 C9            -3.7102     1.8440    -0.1140 C.2     
  10 O10           -4.1442     3.1126     0.1104 O.3     
  11 C11           -4.1645    -1.7044    -0.6827 C.3     
  12 C12           -4.2850    -2.4027     0.6472 C.ar    
  13 C13           -5.4657    -2.3279     1.3624 C.ar    
  14 C14           -5.5769    -2.9682     2.5822 C.ar    
  15 C15           -4.5062    -3.6841     3.0875 C.ar    
  16 C16           -3.3249    -3.7587     2.3713 C.ar    
  17 C17           -3.2168    -3.1226     1.1489 C.ar    
  18 C18           -5.5572     3.3099     0.1926 C.3     
  19 C19           -5.8516     4.7896     0.4469 C.3     
  20 C20           -7.3644     5.0008     0.5350 C.3     
  21 Cl21          -4.6449    -4.4881     4.6198 Cl      
  22 N22           -7.6470     6.4216     0.7792 N.3     
  23 C23           -9.0918     6.6978     0.6781 C.3     
  24 C24           -7.1822     6.8312     2.1215 C.3     
  25 C25           -8.2047     7.8983     2.5857 C.3     
  26 C26           -9.5310     7.3303     2.0155 C.3     
  27 C27           -9.8560     5.3933     0.4435 C.3     
  28 N28            1.3156     2.0293    -0.2626 N.pl3   
  29 C29            1.6978     2.8977    -1.2878 C.ar    
  30 C30            2.2052     1.8088     0.8803 C.3     
  31 C31            2.9648     3.4677    -1.2814 C.ar    
  32 C32            0.8138     3.1889    -2.3194 C.ar    
  33 C33            1.1950     4.0479    -3.3313 C.ar    
  34 C34            2.4550     4.6176    -3.3189 C.ar    
  35 C35            3.3393     4.3258    -2.2965 C.ar    
  36 O36           -9.7290     4.5535     1.5927 O.3     
  37 C37          -10.4099     3.3026     1.4766 C.3     
  38 H38            0.9647    -0.5546    -0.6760 H       
  39 H39           -1.1663    -1.7339    -0.7943 H       
  40 H40           -1.0564     3.1489     0.0125 H       
  41 H41           -5.1425    -1.6650    -1.1624 H       
  42 H42           -3.4695    -2.2522    -1.3191 H       
  43 H43           -6.3013    -1.7687     0.9681 H       
  44 H44           -6.4992    -2.9093     3.1410 H       
  45 H45           -2.4888    -4.3174     2.7652 H       
  46 H46           -2.2947    -3.1808     0.5897 H       
  47 H47           -6.0221     3.0027    -0.7442 H       
  48 H48           -5.9603     2.7134     1.0110 H       
  49 H49           -5.3867     5.0968     1.3837 H       
  50 H50           -5.4485     5.3861    -0.3715 H       
  51 H51           -7.8293     4.6936    -0.4018 H       
  52 H52           -7.7675     4.4043     1.3534 H       
  53 H53           -9.2804     7.3905    -0.1421 H       
  54 H54           -7.1877     5.9792     2.8014 H       
  55 H55           -6.1833     7.2635     2.0617 H       
  56 H56           -8.2409     7.9572     3.6735 H       
  57 H57           -7.9778     8.8716     2.1508 H       
  58 H58          -10.2513     8.1305     1.8452 H       
  59 H59           -9.9444     6.5736     2.6823 H       
  60 H60          -10.9090     5.6152     0.2703 H       
  61 H61           -9.4444     4.8825    -0.4270 H       
  62 H62            2.8702     0.9719     0.6670 H       
  63 H63            2.7967     2.7067     1.0588 H       
  64 H64            1.6104     1.5836     1.7656 H       
  65 H65            3.6559     3.2402    -0.4832 H       
  66 H66           -0.1701     2.7438    -2.3300 H       
  67 H67            0.5083     4.2747    -4.1334 H       
  68 H68            2.7507     5.2888    -4.1117 H       
  69 H69            4.3226     4.7724    -2.2899 H       
  70 H70          -10.0097     2.7485     0.6276 H       
  71 H71          -10.2650     2.7240     2.3890 H       
  72 H72          -11.4744     3.4811     1.3249 H       
@<TRIPOS>BOND
   1    1    2 ar
   2    1   28 1
   3    1    6 ar
   4    2    3 ar
   5    2   38 1
   6    3    4 ar
   7    3   39 1
   8    4    5 ar
   9    4    7 1
  10    5    6 ar
  11    5    9 1
  12    6   40 1
  13    7    8 1
  14    7   11 1
  15    8    9 2
  16    9   10 1
  17   10   18 1
  18   11   12 1
  19   11   41 1
  20   11   42 1
  21   12   13 ar
  22   12   17 ar
  23   13   14 ar
  24   13   43 1
  25   14   15 ar
  26   14   44 1
  27   15   16 ar
  28   15   21 1
  29   16   17 ar
  30   16   45 1
  31   17   46 1
  32   18   19 1
  33   18   47 1
  34   18   48 1
  35   19   20 1
  36   19   49 1
  37   19   50 1
  38   20   22 1
  39   20   51 1
  40   20   52 1
  41   22   23 1
  42   22   24 1
  43   23   27 1
  44   23   26 1
  45   23   53 1
  46   24   25 1
  47   24   54 1
  48   24   55 1
  49   25   26 1
  50   25   56 1
  51   25   57 1
  52   26   58 1
  53   26   59 1
  54   27   36 1
  55   27   60 1
  56   27   61 1
  57   28   30 1
  58   28   29 1
  59   29   31 ar
  60   29   32 ar
  61   30   62 1
  62   30   63 1
  63   30   64 1
  64   31   35 ar
  65   31   65 1
  66   32   33 ar
  67   32   66 1
  68   33   34 ar
  69   33   67 1
  70   34   35 ar
  71   34   68 1
  72   35   69 1
  73   36   37 1
  74   37   70 1
  75   37   71 1
  76   37   72 1

#	End of record

