#	Name: ASD08150158
#	Creating user name:	WinNT
#	Creation time:	15. 06. 2019 21:15

#	Modifying user name:	WinNT
#	Modification time:	15. 06. 2019 21:15

#	Program:	/corina/corina34_cracker 3.40 0067  02.08.2006

@<TRIPOS>MOLECULE
ASD08150158
  43   47    0    0    0
SMALL
NO_CHARGES


@<TRIPOS>ATOM
   1 N1            -0.0155     1.2942     0.0092 N.2     
   2 C2             0.0021    -0.0041     0.0020 C.2     
   3 N3             1.1488    -0.7360    -0.0129 N.am    
   4 C4             2.3561    -0.1243    -0.0211 C.2     
   5 C5             2.3704     1.3449    -0.0133 C.ar    
   6 C6             3.5614     2.0710    -0.0203 C.ar    
   7 C7             3.5161     3.4495    -0.0121 C.ar    
   8 C8             2.2981     4.1155     0.0035 C.ar    
   9 C9             1.1114     3.4169     0.0107 C.ar    
  10 C10            1.1299     2.0209     0.0021 C.ar    
  11 O11            3.3902    -0.7666    -0.0340 O.2     
  12 C12            1.0794    -2.1352    -0.0193 C.ar    
  13 C13            1.0566    -2.8369     1.1803 C.ar    
  14 C14            0.9880    -4.2171     1.1700 C.ar    
  15 C15            0.9427    -4.8994    -0.0321 C.ar    
  16 C16            0.9653    -4.2037    -1.2267 C.ar    
  17 C17            1.0274    -2.8235    -1.2235 C.ar    
  18 Cl18           1.1146    -1.9808     2.6894 Cl      
  19 Cl19           5.0887     1.2460    -0.0387 Cl      
  20 C20           -1.3145    -0.7374     0.0112 C.3     
  21 N21           -3.4548     0.2999    -0.8699 N.pl3   
  22 C22           -2.4446     0.2595     0.0277 C.2     
  23 N23           -2.5907     1.2083     0.9102 N.2     
  24 C24           -3.7018     1.9178     0.6368 C.ar    
  25 N25           -4.3053     2.9684     1.2013 N.ar    
  26 C26           -5.4143     3.4564     0.6910 C.ar    
  27 N27           -5.9843     2.9476    -0.3861 N.ar    
  28 C28           -5.4547     1.9013    -1.0149 C.ar    
  29 C29           -4.2766     1.3473    -0.5110 C.ar    
  30 N30           -6.0593     1.3732    -2.1442 N.pl3   
  31 H31            4.4358     4.0156    -0.0175 H       
  32 H32            2.2810     5.1953     0.0106 H       
  33 H33            0.1704     3.9467     0.0232 H       
  34 H34            0.9703    -4.7634     2.1014 H       
  35 H35            0.8899    -5.9781    -0.0378 H       
  36 H36            0.9297    -4.7397    -2.1637 H       
  37 H37            1.0401    -2.2809    -2.1572 H       
  38 H38           -1.3907    -1.3583    -0.8814 H       
  39 H39           -1.3730    -1.3678     0.8984 H       
  40 H40           -3.5765    -0.2941    -1.6271 H       
  41 H41           -5.8772     4.3057     1.1713 H       
  42 H42           -6.8780     1.7664    -2.4849 H       
  43 H43           -5.6640     0.6102    -2.5941 H       
@<TRIPOS>BOND
   1    1    2 2
   2    1   10 1
   3    2    3 1
   4    2   20 1
   5    3    4 am
   6    3   12 1
   7    4    5 1
   8    4   11 2
   9    5    6 ar
  10    5   10 ar
  11    6    7 ar
  12    6   19 1
  13    7    8 ar
  14    7   31 1
  15    8    9 ar
  16    8   32 1
  17    9   10 ar
  18    9   33 1
  19   12   13 ar
  20   12   17 ar
  21   13   14 ar
  22   13   18 1
  23   14   15 ar
  24   14   34 1
  25   15   16 ar
  26   15   35 1
  27   16   17 ar
  28   16   36 1
  29   17   37 1
  30   20   22 1
  31   20   38 1
  32   20   39 1
  33   21   22 1
  34   21   29 1
  35   21   40 1
  36   22   23 2
  37   23   24 1
  38   24   25 ar
  39   24   29 ar
  40   25   26 ar
  41   26   27 ar
  42   26   41 1
  43   27   28 ar
  44   28   29 ar
  45   28   30 1
  46   30   42 1
  47   30   43 1

#	End of record

