#	Name: ASD04880018
#	Creating user name:	WinNT
#	Creation time:	15. 06. 2019 20:52

#	Modifying user name:	WinNT
#	Modification time:	15. 06. 2019 20:52

#	Program:	/corina/corina34_cracker 3.40 0067  02.08.2006

@<TRIPOS>MOLECULE
ASD04880018
  38   40    0    0    0
SMALL
NO_CHARGES


@<TRIPOS>ATOM
   1 C1            -0.0254     1.5231     0.3591 C.2     
   2 C2            -0.0084     0.0163     0.3792 C.3     
   3 C3             1.2372     2.2711     0.2925 C.ar    
   4 C4             1.2218     3.6717     0.2738 C.ar    
   5 C5             2.3954     4.3660     0.2118 C.ar    
   6 C6             3.6138     3.6790     0.1670 C.ar    
   7 C7             3.6300     2.2797     0.1857 C.ar    
   8 C8             2.4574     1.5841     0.2534 C.ar    
   9 N9             6.2949     6.1778     0.0123 N.am    
  10 N10            4.9827     5.7139     0.0773 N.2     
  11 C11            4.8793     4.4287     0.0997 C.2     
  12 C12            6.2581     3.8104     0.0467 C.3     
  13 C13            7.2073     5.0235    -0.0124 C.3     
  14 C14            6.6675     7.4724    -0.0273 C.2     
  15 C15            5.6436     8.5333    -0.1290 C.ar    
  16 C16            6.0127     9.8757    -0.0263 C.ar    
  17 C17            5.0502    10.8622    -0.1222 C.ar    
  18 C18            3.7216    10.5201    -0.3195 C.ar    
  19 C19            3.3515     9.1914    -0.4218 C.ar    
  20 C20            4.3043     8.1973    -0.3338 C.ar    
  21 O21            7.8459     7.7676     0.0206 O.2     
  22 F22            5.4044    12.1621    -0.0232 F       
  23 O23           -1.0818     2.1182     0.3929 O.2     
  24 H24            0.0414    -0.3327     1.4106 H       
  25 H25           -0.9162    -0.3635    -0.0895 H       
  26 H26            0.8618    -0.3446    -0.1690 H       
  27 H27            0.2816     4.2021     0.3080 H       
  28 H28            2.3837     5.4459     0.1971 H       
  29 H29            4.5706     1.7502     0.1510 H       
  30 H30            2.4703     0.5044     0.2727 H       
  31 H31            6.4472     3.2204     0.9435 H       
  32 H32            6.3673     3.1956    -0.8467 H       
  33 H33            7.7867     5.0125    -0.9356 H       
  34 H34            7.8667     5.0372     0.8554 H       
  35 H35            7.0478    10.1424     0.1281 H       
  36 H36            2.9722    11.2942    -0.3932 H       
  37 H37            2.3146     8.9314    -0.5751 H       
  38 H38            4.0138     7.1606    -0.4189 H       
@<TRIPOS>BOND
   1    1    2 1
   2    1    3 1
   3    1   23 2
   4    2   24 1
   5    2   25 1
   6    2   26 1
   7    3    4 ar
   8    3    8 ar
   9    4    5 ar
  10    4   27 1
  11    5    6 ar
  12    5   28 1
  13    6    7 ar
  14    6   11 1
  15    7    8 ar
  16    7   29 1
  17    8   30 1
  18    9   10 1
  19    9   13 1
  20    9   14 am
  21   10   11 2
  22   11   12 1
  23   12   13 1
  24   12   31 1
  25   12   32 1
  26   13   33 1
  27   13   34 1
  28   14   15 1
  29   14   21 2
  30   15   16 ar
  31   15   20 ar
  32   16   17 ar
  33   16   35 1
  34   17   18 ar
  35   17   22 1
  36   18   19 ar
  37   18   36 1
  38   19   20 ar
  39   19   37 1
  40   20   38 1

#	End of record

