#	Name: ASD01148826
#	Creating user name:	WinNT
#	Creation time:	15. 06. 2019 19:03

#	Modifying user name:	WinNT
#	Modification time:	15. 06. 2019 19:03

#	Program:	/corina/corina34_cracker 3.40 0067  02.08.2006

@<TRIPOS>MOLECULE
ASD01148826
  34   34    0    0    0
SMALL
NO_CHARGES


@<TRIPOS>ATOM
   1 C1            -0.0184     1.5028     0.0103 C.2     
   2 C2             0.0021    -0.0041     0.0020 C.3     
   3 C3            -0.7132    -0.5094    -1.2244 C.2     
   4 C4            -2.2111    -0.6738    -1.2090 C.3     
   5 O5             1.0197     2.1211     0.0037 O.2     
   6 O6            -1.1898     2.1580     0.0194 O.3     
   7 O7            -0.0860    -0.7827    -2.2195 O.2     
   8 C8             1.4513    -0.4944    -0.0145 C.3     
   9 C9             1.4746    -1.9968     0.1011 C.2     
  10 O10            0.4347    -2.6144     0.1880 O.2     
  11 C11            2.7588    -2.7139     0.1084 C.ar    
  12 C12            2.7843    -4.1086     0.2155 C.ar    
  13 C13            3.9912    -4.7739     0.2212 C.ar    
  14 C14            5.1776    -4.0648     0.1217 C.ar    
  15 C15            5.1600    -2.6833     0.0157 C.ar    
  16 C16            3.9603    -2.0051     0.0024 C.ar    
  17 Cl17           6.6932    -4.9112     0.1303 Cl      
  18 C18           -1.1335     3.6089     0.0270 C.3     
  19 C19           -2.5551     4.1744     0.0369 C.3     
  20 H20           -0.4983    -0.3791     0.8948 H       
  21 H21           -2.6803     0.2895    -1.0087 H       
  22 H22           -2.5457    -1.0466    -2.1770 H       
  23 H23           -2.4908    -1.3831    -0.4300 H       
  24 H24            1.9257    -0.1944    -0.9488 H       
  25 H25            1.9924    -0.0570     0.8246 H       
  26 H26            1.8605    -4.6625     0.2939 H       
  27 H27            4.0125    -5.8505     0.3039 H       
  28 H28            6.0885    -2.1371    -0.0611 H       
  29 H29            3.9479    -0.9287    -0.0847 H       
  30 H30           -0.6017     3.9472     0.9164 H       
  31 H31           -0.6102     3.9569    -0.8636 H       
  32 H32           -2.5128     5.2636     0.0426 H       
  33 H33           -3.0869     3.8361    -0.8525 H       
  34 H34           -3.0784     3.8265     0.9275 H       
@<TRIPOS>BOND
   1    1    2 1
   2    1    5 2
   3    1    6 1
   4    2    3 1
   5    2    8 1
   6    2   20 1
   7    3    4 1
   8    3    7 2
   9    4   21 1
  10    4   22 1
  11    4   23 1
  12    6   18 1
  13    8    9 1
  14    8   24 1
  15    8   25 1
  16    9   10 2
  17    9   11 1
  18   11   12 ar
  19   11   16 ar
  20   12   13 ar
  21   12   26 1
  22   13   14 ar
  23   13   27 1
  24   14   15 ar
  25   14   17 1
  26   15   16 ar
  27   15   28 1
  28   16   29 1
  29   18   19 1
  30   18   30 1
  31   18   31 1
  32   19   32 1
  33   19   33 1
  34   19   34 1

#	End of record

