#	Name: ASD01412009
#	Creating user name:	WinNT
#	Creation time:	15. 06. 2019 19:19

#	Modifying user name:	WinNT
#	Modification time:	15. 06. 2019 19:19

#	Program:	/corina/corina34_cracker 3.40 0067  02.08.2006

@<TRIPOS>MOLECULE
ASD01412009
  84   89    0    0    0
SMALL
NO_CHARGES


@<TRIPOS>ATOM
   1 C1            -1.5162     2.4651     2.7627 C.ar    
   2 C2            -1.2754     1.1179     2.4232 C.ar    
   3 C3            -2.3503     0.2698     2.1187 C.ar    
   4 C4            -3.6245     0.7469     2.1509 C.ar    
   5 C5            -3.8735     2.0857     2.4876 C.ar    
   6 C6            -2.8168     2.9407     2.7978 C.ar    
   7 N7            -0.2901     3.0507     3.0088 N.pl3   
   8 C8             0.6941     2.1074     2.8314 C.2     
   9 C9             0.1257     0.9262     2.4760 C.2     
  10 C10            0.8570    -0.3600     2.1895 C.3     
  11 C11            0.3864    -1.4421     3.1634 C.3     
  12 C12            1.1288    -2.7479     2.8724 C.3     
  13 C13            0.8373    -3.1915     1.4375 C.3     
  14 C14            1.3079    -2.1094     0.4636 C.3     
  15 C15            0.5655    -0.8036     0.7545 C.3     
  16 C16           -5.2592     2.5896     2.5187 C.2     
  17 O17           -5.4779     3.7497     2.8102 O.2     
  18 N18           -6.2831     1.7642     2.2240 N.am    
  19 C19           -7.6596     2.2647     2.2549 C.3     
  20 C20           -8.6073     1.1514     1.8894 C.2     
  21 C21           -7.9865     2.7718     3.6609 C.3     
  22 C22           -7.8082     3.4107     1.2521 C.3     
  23 C23           -9.0982    -0.8317     0.6780 C.ar    
  24 O24           -9.6977     1.0859     2.4162 O.2     
  25 C25          -10.4762    -0.6373     0.6942 C.ar    
  26 C26          -11.3237    -1.6793     0.3946 C.ar    
  27 C27          -10.7977    -2.9363     0.0727 C.ar    
  28 C28           -9.4107    -3.1270     0.0572 C.ar    
  29 C29           -8.5708    -2.0794     0.3587 C.ar    
  30 C30          -11.6986    -4.0521    -0.2475 C.2     
  31 C31          -12.7982    -3.8372    -1.0025 C.2     
  32 N32           -8.2430     0.2286     0.9772 N.am    
  33 C33           -0.0737     4.4474     3.3944 C.3     
  34 C34            2.1432     2.3417     3.0013 C.2     
  35 C35            2.6317     3.2449     3.8806 C.2     
  36 S36            4.3906     3.2173     3.7765 S.3     
  37 C37            4.2986     1.9700     2.5367 C.2     
  38 N38            3.0532     1.6788     2.3079 N.2     
  39 C39            5.4589     1.3469     1.8642 C.ar    
  40 C40            6.7632     1.7331     2.1925 C.ar    
  41 C41            7.8145     1.1189     1.5343 C.ar    
  42 C42            7.5451     0.1525     0.5824 C.ar    
  43 N43            6.3046    -0.1913     0.2929 N.ar    
  44 C44            5.2717     0.3599     0.8957 C.ar    
  45 C45          -12.9106    -2.6501    -1.7695 C.2     
  46 O46          -11.9481    -1.9180    -1.9018 O.2     
  47 O47          -14.0851    -2.3323    -2.3526 O.3     
  48 H48           -2.1667    -0.7621     1.8582 H       
  49 H49           -4.4492     0.0906     1.9154 H       
  50 H50           -3.0107     3.9711     3.0568 H       
  51 H51            1.9288    -0.2033     2.3107 H       
  52 H52            0.5940    -1.1261     4.1857 H       
  53 H53           -0.6855    -1.5988     3.0421 H       
  54 H54            2.2006    -2.5912     2.9937 H       
  55 H55            0.7935    -3.5188     3.5663 H       
  56 H56            1.3662    -4.1218     1.2302 H       
  57 H57           -0.2346    -3.3482     1.3162 H       
  58 H58            2.3797    -1.9527     0.5848 H       
  59 H59            1.1002    -2.4254    -0.5587 H       
  60 H60           -0.5064    -0.9602     0.6333 H       
  61 H61            0.9008    -0.0327     0.0607 H       
  62 H62           -6.1086     0.8388     1.9914 H       
  63 H63           -7.3010     3.5770     3.9252 H       
  64 H64           -9.0106     3.1442     3.6839 H       
  65 H65           -7.8806     1.9554     4.3753 H       
  66 H66           -7.5753     3.0495     0.2504 H       
  67 H67           -8.8323     3.7831     1.2751 H       
  68 H68           -7.1228     4.2160     1.5164 H       
  69 H69          -10.8810     0.3326     0.9426 H       
  70 H70          -12.3929    -1.5277     0.4081 H       
  71 H71           -9.0006    -4.0950    -0.1902 H       
  72 H72           -7.5008    -2.2255     0.3467 H       
  73 H73          -11.4818    -5.0439     0.1207 H       
  74 H74          -13.5915    -4.5697    -1.0218 H       
  75 H75           -7.3860     0.3019     0.5288 H       
  76 H76           -0.1126     4.5347     4.4803 H       
  77 H77            0.9028     4.7755     3.0383 H       
  78 H78           -0.8503     5.0711     2.9518 H       
  79 H79            2.0456     3.8743     4.5338 H       
  80 H80            6.9449     2.4911     2.9400 H       
  81 H81            8.8345     1.3917     1.7615 H       
  82 H82            8.3635    -0.3284     0.0672 H       
  83 H83            4.2708     0.0518     0.6318 H       
  84 H84          -14.0644    -1.5057    -2.8540 H       
@<TRIPOS>BOND
   1    1    2 ar
   2    1    7 1
   3    1    6 ar
   4    2    3 ar
   5    2    9 1
   6    3    4 ar
   7    3   48 1
   8    4    5 ar
   9    4   49 1
  10    5    6 ar
  11    5   16 1
  12    6   50 1
  13    7    8 1
  14    7   33 1
  15    8    9 2
  16    8   34 1
  17    9   10 1
  18   10   11 1
  19   10   15 1
  20   10   51 1
  21   11   12 1
  22   11   52 1
  23   11   53 1
  24   12   13 1
  25   12   54 1
  26   12   55 1
  27   13   14 1
  28   13   56 1
  29   13   57 1
  30   14   15 1
  31   14   58 1
  32   14   59 1
  33   15   60 1
  34   15   61 1
  35   16   17 2
  36   16   18 am
  37   18   19 1
  38   18   62 1
  39   19   20 1
  40   19   21 1
  41   19   22 1
  42   20   24 2
  43   20   32 am
  44   21   63 1
  45   21   64 1
  46   21   65 1
  47   22   66 1
  48   22   67 1
  49   22   68 1
  50   23   25 ar
  51   23   29 ar
  52   23   32 1
  53   25   26 ar
  54   25   69 1
  55   26   27 ar
  56   26   70 1
  57   27   28 ar
  58   27   30 1
  59   28   29 ar
  60   28   71 1
  61   29   72 1
  62   30   31 2
  63   30   73 1
  64   31   45 1
  65   31   74 1
  66   32   75 1
  67   33   76 1
  68   33   77 1
  69   33   78 1
  70   34   35 2
  71   34   38 1
  72   35   36 1
  73   35   79 1
  74   36   37 1
  75   37   38 2
  76   37   39 1
  77   39   40 ar
  78   39   44 ar
  79   40   41 ar
  80   40   80 1
  81   41   42 ar
  82   41   81 1
  83   42   43 ar
  84   42   82 1
  85   43   44 ar
  86   44   83 1
  87   45   46 2
  88   45   47 1
  89   47   84 1

#	End of record

