#	Name: ASD01811676
#	Creating user name:	WinNT
#	Creation time:	15. 06. 2019 19:27

#	Modifying user name:	WinNT
#	Modification time:	15. 06. 2019 19:27

#	Program:	/corina/corina34_cracker 3.40 0067  02.08.2006

@<TRIPOS>MOLECULE
ASD01811676
  30   32    0    0    0
SMALL
NO_CHARGES


@<TRIPOS>ATOM
   1 C1             0.0959     1.5474     0.2427 C.ar    
   2 C2             0.0510     0.1627     0.2402 C.ar    
   3 C3             1.2162    -0.5641     0.1484 C.ar    
   4 C4             2.4562     0.0859     0.0566 C.ar    
   5 C5             2.4984     1.4790     0.0606 C.ar    
   6 C6             1.3060     2.1997     0.1538 C.ar    
   7 C7             3.6606    -0.7535    -0.0424 C.2     
   8 N8             4.6676    -0.5083    -0.8046 N.2     
   9 C9             4.7131     0.6712    -1.6679 C.3     
  10 C10            4.7066     1.9051    -0.8074 C.2     
  11 N11            3.6756     2.2049    -0.0216 N.am    
  12 S12            5.9723     2.8819    -0.8373 S.2     
  13 C13            3.7181    -1.9709     0.7982 C.ar    
  14 C14            3.7304    -3.2326     0.2039 C.ar    
  15 C15            3.7845    -4.3634     0.9923 C.ar    
  16 C16            3.8266    -4.2494     2.3708 C.ar    
  17 C17            3.8144    -3.0027     2.9686 C.ar    
  18 C18            3.7661    -1.8609     2.1904 C.ar    
  19 I19           -1.7913    -0.8253     0.3772 I       
  20 F20            3.7542    -0.6428     2.7746 F       
  21 H21           -0.8196     2.1163     0.3099 H       
  22 H22            1.1758    -1.6433     0.1473 H       
  23 H23            1.3326     3.2794     0.1561 H       
  24 H24            5.6227     0.6494    -2.2681 H       
  25 H25            3.8417     0.6781    -2.3227 H       
  26 H26            3.7541     2.9938     0.5374 H       
  27 H27            3.6972    -3.3243    -0.8717 H       
  28 H28            3.7937    -5.3405     0.5324 H       
  29 H29            3.8689    -5.1385     2.9825 H       
  30 H30            3.8471    -2.9206     4.0450 H       
@<TRIPOS>BOND
   1    1    2 ar
   2    1    6 ar
   3    1   21 1
   4    2    3 ar
   5    2   19 1
   6    3    4 ar
   7    3   22 1
   8    4    5 ar
   9    4    7 1
  10    5    6 ar
  11    5   11 1
  12    6   23 1
  13    7    8 2
  14    7   13 1
  15    8    9 1
  16    9   10 1
  17    9   24 1
  18    9   25 1
  19   10   11 am
  20   10   12 2
  21   11   26 1
  22   13   14 ar
  23   13   18 ar
  24   14   15 ar
  25   14   27 1
  26   15   16 ar
  27   15   28 1
  28   16   17 ar
  29   16   29 1
  30   17   18 ar
  31   17   30 1
  32   18   20 1

#	End of record

