#	Name: ASD01901449
#	Creating user name:	WinNT
#	Creation time:	15. 06. 2019 19:53

#	Modifying user name:	WinNT
#	Modification time:	15. 06. 2019 19:53

#	Program:	/corina/corina34_cracker 3.40 0067  02.08.2006

@<TRIPOS>MOLECULE
ASD01901449
  42   45    0    0    0
SMALL
NO_CHARGES


@<TRIPOS>ATOM
   1 C1            -0.0169     1.3920     0.0097 C.ar    
   2 C2             1.1557     2.0919     0.0023 C.ar    
   3 C3             2.3780     1.4082    -0.0131 C.ar    
   4 C4             2.3944     0.0081    -0.0208 C.ar    
   5 C5             1.2190    -0.6877    -0.0133 C.ar    
   6 C6             0.0021    -0.0041     0.0020 C.ar    
   7 C7            -1.2718    -0.7613     0.0106 C.2     
   8 N8            -3.1827    -1.5262    -1.1466 N.2     
   9 C9            -2.0575    -0.8551    -1.1598 C.2     
  10 C10           -1.7011    -1.3844     1.1508 C.2     
  11 N11           -2.8766    -2.0724     1.1238 N.pl3   
  12 C12           -3.6134    -2.1356    -0.0313 C.2     
  13 C13           -3.5562    -2.7837     2.0763 C.2     
  14 C14           -4.6762    -3.2589     1.4921 C.2     
  15 N15           -4.6968    -2.8568     0.2176 N.2     
  16 C16           -5.7288    -4.1017     2.1649 C.3     
  17 O17           -5.3609    -4.3251     3.5276 O.3     
  18 C18           -6.2080    -5.0716     4.2799 C.ar    
  19 C19           -5.9077    -5.3187     5.6131 C.ar    
  20 N20           -7.3146    -5.5526     3.7379 N.ar    
  21 C21           -8.1653    -6.2829     4.4334 C.ar    
  22 C22           -7.9276    -6.5727     5.7625 C.ar    
  23 C23           -6.7802    -6.0818     6.3697 C.ar    
  24 C24           -1.3323     2.1270     0.0325 C.3     
  25 F25           -1.0960     3.5059     0.0364 F       
  26 F26           -2.0774     1.7848    -1.1010 F       
  27 F27           -2.0446     1.7727     1.1833 F       
  28 C28            3.6409     2.1589    -0.0216 C.2     
  29 O29            4.6988     1.5658    -0.0349 O.2     
  30 H30            3.6273     3.2388    -0.0160 H       
  31 H31            1.1406     3.1718     0.0079 H       
  32 H32            3.3357    -0.5213    -0.0330 H       
  33 H33            1.2311    -1.7676    -0.0196 H       
  34 H34           -1.7298    -0.3718    -2.0683 H       
  35 H35           -1.1171    -1.3319     2.0577 H       
  36 H36           -3.2530    -2.9360     3.1016 H       
  37 H37           -6.6873    -3.5840     2.1276 H       
  38 H38           -5.8123    -5.0586     1.6496 H       
  39 H39           -5.0053    -4.9211     6.0536 H       
  40 H40           -9.0590    -6.6585     3.9574 H       
  41 H41           -8.6292    -7.1712     6.3246 H       
  42 H42           -6.5730    -6.2902     7.4090 H       
@<TRIPOS>BOND
   1    1    6 ar
   2    1    2 ar
   3    1   24 1
   4    2    3 ar
   5    2   31 1
   6    3    4 ar
   7    3   28 1
   8    4    5 ar
   9    4   32 1
  10    5    6 ar
  11    5   33 1
  12    6    7 1
  13    7   10 2
  14    7    9 1
  15    8    9 2
  16    8   12 1
  17    9   34 1
  18   10   11 1
  19   10   35 1
  20   11   13 1
  21   11   12 1
  22   12   15 2
  23   13   14 2
  24   13   36 1
  25   14   15 1
  26   14   16 1
  27   16   17 1
  28   16   37 1
  29   16   38 1
  30   17   18 1
  31   18   20 ar
  32   18   19 ar
  33   19   23 ar
  34   19   39 1
  35   20   21 ar
  36   21   22 ar
  37   21   40 1
  38   22   23 ar
  39   22   41 1
  40   23   42 1
  41   24   25 1
  42   24   26 1
  43   24   27 1
  44   28   29 2
  45   28   30 1

#	End of record

