#	Name: ASD01670048
#	Creating user name:	WinNT
#	Creation time:	15. 06. 2019 19:22

#	Modifying user name:	WinNT
#	Modification time:	15. 06. 2019 19:22

#	Program:	/corina/corina34_cracker 3.40 0067  02.08.2006

@<TRIPOS>MOLECULE
ASD01670048
  71   74    0    0    0
SMALL
NO_CHARGES


@<TRIPOS>ATOM
   1 C1             0.3143     1.7539    -0.0701 C.ar    
   2 C2             0.1792     0.3805     0.0039 C.ar    
   3 C3             1.5722     2.3198    -0.1480 C.ar    
   4 C4             1.3024    -0.4239    -0.0002 C.ar    
   5 C5             1.9044    -2.9445     1.2317 C.ar    
   6 C6             1.0572    -3.9793     0.8732 C.ar    
   7 C7             3.4375    -3.5955    -0.5005 C.ar    
   8 C8             2.6990     1.5153    -0.1521 C.ar    
   9 C9             2.5639     0.1413    -0.0778 C.ar    
  10 C10            3.0881    -2.7480     0.5548 C.ar    
  11 C11            1.3901    -4.8299    -0.1696 C.ar    
  12 C12            2.5791    -4.6426    -0.8637 C.ar    
  13 C13            4.7025    -3.3889    -1.2284 C.2     
  14 C14            7.2945     1.0801    -0.0655 C.2     
  15 C15           -2.2990    -8.7857    -1.8529 C.2     
  16 C16            4.1657     1.8817    -0.2276 C.3     
  17 C17            2.2302    -6.7104    -1.9796 C.3     
  18 C18            3.9306    -0.5089    -0.0979 C.3     
  19 C19            4.9216     0.6225     0.2468 C.3     
  20 C20            0.7316    -6.4463    -1.7847 C.3     
  21 C21            4.0054    -1.6200     0.9514 C.3     
  22 C22            8.5853     0.9123    -0.8248 C.3     
  23 C23           -1.5406    -7.4852    -1.7843 C.3     
  24 C24           -0.0384    -7.7666    -1.8543 C.3     
  25 C25            9.6904     1.7154    -0.1358 C.3     
  26 C26           11.0010     1.5451    -0.9067 C.3     
  27 C27           12.1061     2.3481    -0.2177 C.3     
  28 C28           13.4166     2.1778    -0.9886 C.3     
  29 N29            6.1765     0.4594    -0.4914 N.am    
  30 N30           14.4777     2.9488    -0.3271 N.3     
  31 O31            5.7171    -3.9420    -0.8525 O.2     
  32 O32           -1.6995    -9.8304    -1.9480 O.2     
  33 O33            4.7339    -2.5866    -2.3106 O.3     
  34 O34            7.2616     1.7736     0.9289 O.2     
  35 O35           -3.6406    -8.7835    -1.8083 O.3     
  36 O36            2.9210    -5.4593    -1.8935 O.3     
  37 O37            0.5451    -5.8453    -0.4987 O.3     
  38 H38           -0.5629     2.3840    -0.0715 H       
  39 H39           -0.8034    -0.0635     0.0653 H       
  40 H40            1.6769     3.3931    -0.2061 H       
  41 H41            1.1961    -1.4971     0.0576 H       
  42 H42            1.6338    -2.2852     2.0432 H       
  43 H43            0.1313    -4.1249     1.4097 H       
  44 H44            4.4425     2.1249    -1.2535 H       
  45 H45            4.3800     2.7225     0.4322 H       
  46 H46            2.5895    -7.3823    -1.2002 H       
  47 H47            2.4003    -7.1581    -2.9588 H       
  48 H48            4.1447    -0.9087    -1.0891 H       
  49 H49            5.1049     0.6621     1.3205 H       
  50 H50            0.3734    -5.7706    -2.5614 H       
  51 H51            3.6988    -1.2259     1.9203 H       
  52 H52            5.0287    -1.9897     1.0168 H       
  53 H53            8.8608    -0.1421    -0.8446 H       
  54 H54            8.4562     1.2734    -1.8452 H       
  55 H55           -1.8309    -6.8508    -2.6218 H       
  56 H56           -1.7721    -6.9786    -0.8474 H       
  57 H57            0.1931    -8.2733    -2.7913 H       
  58 H58            0.2519    -8.4010    -1.0169 H       
  59 H59            9.4149     2.7698    -0.1160 H       
  60 H60            9.8196     1.3544     0.8846 H       
  61 H61           11.2765     0.4906    -0.9265 H       
  62 H62           10.8718     1.9061    -1.9271 H       
  63 H63           11.8306     3.4025    -0.1979 H       
  64 H64           12.2352     1.9871     0.8027 H       
  65 H65           13.6921     1.1234    -1.0084 H       
  66 H66           13.2875     2.5388    -2.0090 H       
  67 H67            6.2028    -0.0953    -1.2867 H       
  68 H68           14.5728     2.6770     0.6400 H       
  69 H69           15.3541     2.8526    -0.8176 H       
  70 H70            5.5864    -2.4820    -2.7549 H       
  71 H71           -4.0828    -9.6421    -1.8555 H       
@<TRIPOS>BOND
   1    1    2 ar
   2    1    3 ar
   3    1   38 1
   4    2    4 ar
   5    2   39 1
   6    3    8 ar
   7    3   40 1
   8    4    9 ar
   9    4   41 1
  10    5    6 ar
  11    5   10 ar
  12    5   42 1
  13    6   11 ar
  14    6   43 1
  15    7   10 ar
  16    7   12 ar
  17    7   13 1
  18    8    9 ar
  19    8   16 1
  20    9   18 1
  21   10   21 1
  22   11   12 ar
  23   11   37 1
  24   12   36 1
  25   13   31 2
  26   13   33 1
  27   14   22 1
  28   14   29 am
  29   14   34 2
  30   15   23 1
  31   15   32 2
  32   15   35 1
  33   16   19 1
  34   16   44 1
  35   16   45 1
  36   17   20 1
  37   17   36 1
  38   17   46 1
  39   17   47 1
  40   18   19 1
  41   18   21 1
  42   18   48 1
  43   19   29 1
  44   19   49 1
  45   20   24 1
  46   20   37 1
  47   20   50 1
  48   21   51 1
  49   21   52 1
  50   22   25 1
  51   22   53 1
  52   22   54 1
  53   23   24 1
  54   23   55 1
  55   23   56 1
  56   24   57 1
  57   24   58 1
  58   25   26 1
  59   25   59 1
  60   25   60 1
  61   26   27 1
  62   26   61 1
  63   26   62 1
  64   27   28 1
  65   27   63 1
  66   27   64 1
  67   28   30 1
  68   28   65 1
  69   28   66 1
  70   29   67 1
  71   30   68 1
  72   30   69 1
  73   33   70 1
  74   35   71 1

#	End of record

