#	Name: ASD02030574
#	Creating user name:	WinNT
#	Creation time:	15. 06. 2019 20:15

#	Modifying user name:	WinNT
#	Modification time:	15. 06. 2019 20:15

#	Program:	/corina/corina34_cracker 3.40 0067  02.08.2006

@<TRIPOS>MOLECULE
ASD02030574
  53   55    0    0    0
SMALL
NO_CHARGES


@<TRIPOS>ATOM
   1 N1            -0.0379     1.3665     0.0855 N.am    
   2 C2             0.1106     0.0270     0.0768 C.2     
   3 C3            -1.0750    -0.8476     0.1683 C.ar    
   4 O4             1.2211    -0.4612    -0.0064 O.2     
   5 C5            -0.9234    -2.2365     0.1595 C.ar    
   6 C6            -2.0321    -3.0490     0.2456 C.ar    
   7 C7            -3.3004    -2.4891     0.3411 C.ar    
   8 C8            -3.4556    -1.1081     0.3503 C.ar    
   9 C9            -2.3516    -0.2886     0.2699 C.ar    
  10 O10           -4.3910    -3.2935     0.4253 O.3     
  11 C11           -4.5075    -4.0519     1.5325 C.2     
  12 N12           -5.5095    -4.9475     1.6335 N.am    
  13 O13           -3.7092    -3.9284     2.4403 O.2     
  14 C14           -6.4720    -5.0964     0.5391 C.3     
  15 C15           -5.6363    -5.7723     2.8376 C.3     
  16 C16            1.0888     2.1949     0.0764 C.ar    
  17 C17            2.2786     1.7340    -0.4658 C.ar    
  18 C18            3.3900     2.5537    -0.4729 C.ar    
  19 C19            3.3103     3.8237     0.0615 C.ar    
  20 C20            2.1208     4.2904     0.6070 C.ar    
  21 C21            1.0073     3.4823     0.6077 C.ar    
  22 C22            2.1111     5.6841     1.1786 C.3     
  23 C23            0.6791     6.1939     1.3272 C.3     
  24 C24           -0.1342     5.1377     2.0847 C.3     
  25 C25           -0.3179     3.9276     1.1682 C.3     
  26 C26           -5.9674    -6.1553    -0.4433 C.3     
  27 C27           -6.5200    -5.0523     3.8582 C.3     
  28 H28           -0.9262     1.7560     0.0941 H       
  29 H29            0.0619    -2.6724     0.0849 H       
  30 H30           -1.9158    -4.1227     0.2384 H       
  31 H31           -4.4430    -0.6770     0.4243 H       
  32 H32           -2.4731     0.7845     0.2771 H       
  33 H33           -7.4362    -5.4053     0.9427 H       
  34 H34           -6.5833    -4.1438     0.0210 H       
  35 H35           -6.0882    -6.7292     2.5767 H       
  36 H36           -4.6490    -5.9419     3.2674 H       
  37 H37            2.3362     0.7384    -0.8804 H       
  38 H38            4.3195     2.2016    -0.8953 H       
  39 H39            4.1829     4.4600     0.0594 H       
  40 H40            2.5926     5.6749     2.1564 H       
  41 H41            2.6621     6.3491     0.5136 H       
  42 H42            0.6786     7.1290     1.8873 H       
  43 H43            0.2429     6.3557     0.3414 H       
  44 H44            0.3996     4.8414     2.9877 H       
  45 H45           -1.1089     5.5464     2.3512 H       
  46 H46           -0.9832     4.1963     0.3477 H       
  47 H47           -0.7611     3.1096     1.7362 H       
  48 H48           -5.0032    -5.8463    -0.8469 H       
  49 H49           -5.8561    -7.1078     0.0747 H       
  50 H50           -6.6835    -6.2660    -1.2576 H       
  51 H51           -6.0681    -4.0954     4.1192 H       
  52 H52           -7.5072    -4.8827     3.4284 H       
  53 H53           -6.6143    -5.6660     4.7541 H       
@<TRIPOS>BOND
   1    1    2 am
   2    1   16 1
   3    1   28 1
   4    2    3 1
   5    2    4 2
   6    3    5 ar
   7    3    9 ar
   8    5    6 ar
   9    5   29 1
  10    6    7 ar
  11    6   30 1
  12    7    8 ar
  13    7   10 1
  14    8    9 ar
  15    8   31 1
  16    9   32 1
  17   10   11 1
  18   11   12 am
  19   11   13 2
  20   12   14 1
  21   12   15 1
  22   14   26 1
  23   14   33 1
  24   14   34 1
  25   15   27 1
  26   15   35 1
  27   15   36 1
  28   16   17 ar
  29   16   21 ar
  30   17   18 ar
  31   17   37 1
  32   18   19 ar
  33   18   38 1
  34   19   20 ar
  35   19   39 1
  36   20   22 1
  37   20   21 ar
  38   21   25 1
  39   22   23 1
  40   22   40 1
  41   22   41 1
  42   23   24 1
  43   23   42 1
  44   23   43 1
  45   24   25 1
  46   24   44 1
  47   24   45 1
  48   25   46 1
  49   25   47 1
  50   26   48 1
  51   26   49 1
  52   26   50 1
  53   27   51 1
  54   27   52 1
  55   27   53 1

#	End of record

