#	Name: ASD01028530
#	Creating user name:	WinNT
#	Creation time:	15. 06. 2019 18:57

#	Modifying user name:	WinNT
#	Modification time:	15. 06. 2019 18:57

#	Program:	/corina/corina34_cracker 3.40 0067  02.08.2006

@<TRIPOS>MOLECULE
ASD01028530
  41   45    0    0    0
SMALL
NO_CHARGES


@<TRIPOS>ATOM
   1 N1            -0.0169     1.3921     0.0097 N.2     
   2 N2             0.0021    -0.0041     0.0020 N.pl3   
   3 C3             1.1071     2.0741     0.0026 C.2     
   4 C4             2.3532     1.4123    -0.0133 C.2     
   5 C5             2.4037     0.0542    -0.0215 C.2     
   6 C6             1.2008    -0.6771    -0.0130 C.2     
   7 N7             0.9145    -1.9687    -0.0178 N.2     
   8 N8            -0.3638    -2.1208    -0.0054 N.2     
   9 C9            -0.9586    -0.9539     0.0061 C.2     
  10 C10           -2.4463    -0.7141     0.0226 C.3     
  11 C11            1.0647     3.5571     0.0110 C.ar    
  12 C12           -0.1601     4.2216     0.0263 C.ar    
  13 C13            2.2496     4.2906     0.0095 C.ar    
  14 C14            2.2042     5.6700     0.0177 C.ar    
  15 C15            0.9856     6.3244     0.0280 C.ar    
  16 C16           -0.1936     5.6013     0.0345 C.ar    
  17 F17           -3.0647    -1.5560    -0.9080 F       
  18 C18           -2.9866    -1.0041     1.3992 C.ar    
  19 C19           -3.5202     0.0071     2.1381 C.ar    
  20 C20           -2.9388    -2.3050     1.8966 C.ar    
  21 C21           -3.4181    -2.6014     3.1351 C.ar    
  22 C22           -3.9720    -1.5832     3.9309 C.ar    
  23 C23           -4.0244    -0.2620     3.4209 C.ar    
  24 N24           -4.4502    -1.8442     5.1513 N.ar    
  25 C25           -4.9673    -0.8982     5.8975 C.ar    
  26 C26           -5.0451     0.4214     5.4585 C.ar    
  27 C27           -4.5791     0.7560     4.2187 C.ar    
  28 H28            3.2683     1.9859    -0.0193 H       
  29 H29            3.3547    -0.4576    -0.0337 H       
  30 H30           -2.6497     0.3250    -0.2361 H       
  31 H31           -1.0814     3.6581     0.0313 H       
  32 H32            3.2015     3.7806     0.0021 H       
  33 H33            3.1218     6.2394     0.0166 H       
  34 H34            0.9548     7.4039     0.0349 H       
  35 H35           -1.1423     6.1174     0.0422 H       
  36 H36           -3.5551     1.0106     1.7403 H       
  37 H37           -2.5146    -3.0908     1.2891 H       
  38 H38           -3.3737    -3.6150     3.5053 H       
  39 H39           -5.3433    -1.1489     6.8784 H       
  40 H40           -5.4769     1.1786     6.0961 H       
  41 H41           -4.6311     1.7742     3.8623 H       
@<TRIPOS>BOND
   1    1    2 1
   2    1    3 2
   3    2    6 1
   4    2    9 1
   5    3    4 1
   6    3   11 1
   7    4    5 2
   8    4   28 1
   9    5    6 1
  10    5   29 1
  11    6    7 2
  12    7    8 1
  13    8    9 2
  14    9   10 1
  15   10   17 1
  16   10   18 1
  17   10   30 1
  18   11   12 ar
  19   11   13 ar
  20   12   16 ar
  21   12   31 1
  22   13   14 ar
  23   13   32 1
  24   14   15 ar
  25   14   33 1
  26   15   16 ar
  27   15   34 1
  28   16   35 1
  29   18   19 ar
  30   18   20 ar
  31   19   23 ar
  32   19   36 1
  33   20   21 ar
  34   20   37 1
  35   21   22 ar
  36   21   38 1
  37   22   23 ar
  38   22   24 ar
  39   23   27 ar
  40   24   25 ar
  41   25   26 ar
  42   25   39 1
  43   26   27 ar
  44   26   40 1
  45   27   41 1

#	End of record

