#	Name: ASD08170666
#	Creating user name:	WinNT
#	Creation time:	15. 06. 2019 21:17

#	Modifying user name:	WinNT
#	Modification time:	15. 06. 2019 21:17

#	Program:	/corina/corina34_cracker 3.40 0067  02.08.2006

@<TRIPOS>MOLECULE
ASD08170666
  87   90    0    0    0
SMALL
NO_CHARGES


@<TRIPOS>ATOM
   1 N1            -0.0159     1.3150     0.0224 N.ar    
   2 C2             0.0017    -0.0034     0.0124 C.ar    
   3 C3            -1.2931    -0.7743     0.0243 C.3     
   4 C4            -4.2984    -0.6746     2.4294 C.3     
   5 C5            -5.5932    -1.4455     2.4412 C.2     
   6 N6            -5.8033    -2.5767     3.0361 N.2     
   7 N7            -6.9625    -3.0651     2.9277 N.2     
   8 C8            -7.8359    -2.3975     2.2358 C.2     
   9 S9            -7.0970    -0.9657     1.6538 S.3     
  10 N10           -9.1540    -2.7791     2.0098 N.am    
  11 C11           -3.4530    -1.1158     1.2328 C.3     
  12 C12           -2.1384    -0.3331     1.2208 C.3     
  13 C13            1.2122    -0.6808    -0.0095 C.ar    
  14 C14            2.3785     0.0690    -0.0202 C.ar    
  15 C15            2.2616     1.4575    -0.0083 C.ar    
  16 N16            1.0600     2.0148     0.0126 N.ar    
  17 N17            3.4043     2.2567    -0.0179 N.am    
  18 C18            3.2889     3.5963    -0.1113 C.2     
  19 O19            2.1992     4.1007    -0.2812 O.2     
  20 C20            4.5141     4.4673    -0.0047 C.3     
  21 C21            4.1152     5.9141    -0.1410 C.ar    
  22 C22            3.7798     6.6471     0.9817 C.ar    
  23 C23            3.4138     7.9745     0.8567 C.ar    
  24 C24            3.3838     8.5686    -0.3909 C.ar    
  25 C25            3.7202     7.8356    -1.5138 C.ar    
  26 C26            4.0903     6.5098    -1.3884 C.ar    
  27 C27           -9.6205    -3.9317     2.5297 C.2     
  28 O28           -8.8908    -4.6361     3.1947 O.2     
  29 C29          -11.0488    -4.3451     2.2847 C.3     
  30 C30          -11.3154    -5.6609     2.9693 C.ar    
  31 C31          -11.7088    -6.7589     2.2273 C.ar    
  32 C32          -11.9533    -7.9659     2.8552 C.ar    
  33 C33          -11.8040    -8.0750     4.2252 C.ar    
  34 C34          -11.4097    -6.9772     4.9671 C.ar    
  35 C35          -11.1610    -5.7714     4.3385 C.ar    
  36 C36          -11.9918    -3.2785     2.8450 C.3     
  37 C37            3.0471     8.7735     2.0808 C.3     
  38 N38            3.6020    10.1245     1.9664 N.am    
  39 C39            3.8561    10.8448     3.0768 C.2     
  40 O40            4.3662    12.0864     2.9717 O.3     
  41 O41            3.6249    10.3737     4.1727 O.2     
  42 C42            1.5238     8.8561     2.1984 C.3     
  43 C43            4.6146    12.8040     4.2093 C.3     
  44 C44            5.6142    12.0197     5.0617 C.3     
  45 C45            5.1894    14.1857     3.8912 C.3     
  46 C46            3.3019    12.9625     4.9792 C.3     
  47 H47           -1.8401    -0.5802    -0.8983 H       
  48 H48           -1.0805    -1.8405     0.1031 H       
  49 H49           -4.5110     0.3916     2.3505 H       
  50 H50           -3.7514    -0.8687     3.3520 H       
  51 H51           -9.7376    -2.2157     1.4779 H       
  52 H52           -3.2404    -2.1820     1.3116 H       
  53 H53           -4.0000    -0.9216     0.3102 H       
  54 H54           -1.5915    -0.5273     2.1434 H       
  55 H55           -2.3511     0.7331     1.1420 H       
  56 H56            1.2451    -1.7603    -0.0176 H       
  57 H57            3.3472    -0.4082    -0.0369 H       
  58 H58            4.2821     1.8485     0.0427 H       
  59 H59            4.9880     4.3107     0.9643 H       
  60 H60            5.2148     4.2073    -0.7981 H       
  61 H61            3.8032     6.1829     1.9566 H       
  62 H62            3.0972     9.6053    -0.4886 H       
  63 H63            3.6965     8.2997    -2.4887 H       
  64 H64            4.3531     5.9372    -2.2656 H       
  65 H65          -11.2174    -4.4524     1.2132 H       
  66 H66          -11.8254    -6.6737     1.1570 H       
  67 H67          -12.2614    -8.8235     2.2756 H       
  68 H68          -11.9957    -9.0178     4.7159 H       
  69 H69          -11.2934    -7.0624     6.0374 H       
  70 H70          -10.8529    -4.9138     4.9182 H       
  71 H71          -11.7990    -2.3268     2.3499 H       
  72 H72          -13.0249    -3.5775     2.6678 H       
  73 H73          -11.8233    -3.1713     3.9166 H       
  74 H74            3.4541     8.2873     2.9674 H       
  75 H75            3.7866    10.5005     1.0915 H       
  76 H76            1.1168     9.3423     1.3118 H       
  77 H77            1.1109     7.8509     2.2834 H       
  78 H78            1.2586     9.4340     3.0837 H       
  79 H79            6.5494    11.9067     4.5133 H       
  80 H80            5.8007    12.5583     5.9908 H       
  81 H81            5.2047    11.0353     5.2884 H       
  82 H82            4.4772    14.7445     3.2839 H       
  83 H83            5.3759    14.7244     4.8203 H       
  84 H84            6.1245    14.0728     3.3427 H       
  85 H85            2.8924    11.9781     5.2058 H       
  86 H86            3.4884    13.5012     5.9083 H       
  87 H87            2.5898    13.5213     4.3719 H       
@<TRIPOS>BOND
   1    1    2 ar
   2    1   16 ar
   3    2    3 1
   4    2   13 ar
   5    3   12 1
   6    3   47 1
   7    3   48 1
   8    4    5 1
   9    4   11 1
  10    4   49 1
  11    4   50 1
  12    5    6 2
  13    5    9 1
  14    6    7 1
  15    7    8 2
  16    8    9 1
  17    8   10 1
  18   10   27 am
  19   10   51 1
  20   11   12 1
  21   11   52 1
  22   11   53 1
  23   12   54 1
  24   12   55 1
  25   13   14 ar
  26   13   56 1
  27   14   15 ar
  28   14   57 1
  29   15   16 ar
  30   15   17 1
  31   17   18 am
  32   17   58 1
  33   18   19 2
  34   18   20 1
  35   20   21 1
  36   20   59 1
  37   20   60 1
  38   21   22 ar
  39   21   26 ar
  40   22   23 ar
  41   22   61 1
  42   23   24 ar
  43   23   37 1
  44   24   25 ar
  45   24   62 1
  46   25   26 ar
  47   25   63 1
  48   26   64 1
  49   27   28 2
  50   27   29 1
  51   29   30 1
  52   29   36 1
  53   29   65 1
  54   30   31 ar
  55   30   35 ar
  56   31   32 ar
  57   31   66 1
  58   32   33 ar
  59   32   67 1
  60   33   34 ar
  61   33   68 1
  62   34   35 ar
  63   34   69 1
  64   35   70 1
  65   36   71 1
  66   36   72 1
  67   36   73 1
  68   37   38 1
  69   37   42 1
  70   37   74 1
  71   38   39 am
  72   38   75 1
  73   39   40 1
  74   39   41 2
  75   40   43 1
  76   42   76 1
  77   42   77 1
  78   42   78 1
  79   43   44 1
  80   43   45 1
  81   43   46 1
  82   44   79 1
  83   44   80 1
  84   44   81 1
  85   45   82 1
  86   45   83 1
  87   45   84 1
  88   46   85 1
  89   46   86 1
  90   46   87 1

#	End of record

