#	Name: ASD05740253
#	Creating user name:	WinNT
#	Creation time:	15. 06. 2019 21:03

#	Modifying user name:	WinNT
#	Modification time:	15. 06. 2019 21:03

#	Program:	/corina/corina34_cracker 3.40 0067  02.08.2006

@<TRIPOS>MOLECULE
ASD05740253
  56   59    0    0    0
SMALL
NO_CHARGES


@<TRIPOS>ATOM
   1 C1            -0.1738     1.0556     1.0878 C.ar    
   2 C2            -0.0887    -0.1906     0.4722 C.ar    
   3 N3             0.8897     1.6088     1.6527 N.ar    
   4 C4             2.0630     1.0100     1.6566 C.ar    
   5 C5             2.2258    -0.2382     1.0600 C.ar    
   6 C6             1.1226    -0.8521     0.4541 C.ar    
   7 C7             3.5480    -0.9071     1.0664 C.ar    
   8 C8             4.6246    -0.3453     1.7598 C.ar    
   9 N9             3.7280    -2.0551     0.4166 N.ar    
  10 C10            4.9086    -2.6541     0.4212 C.ar    
  11 N11            5.9469    -2.1415     1.0656 N.ar    
  12 C12            5.8394    -1.0055     1.7372 C.ar    
  13 N13            5.0624    -3.8474    -0.2648 N.pl3   
  14 N14           -1.3867     1.7295     1.1050 N.pl3   
  15 C15            6.3292    -4.4360    -0.3711 C.ar    
  16 C16            6.4547    -5.8190    -0.3684 C.ar    
  17 C17            7.4589    -3.6366    -0.4850 C.ar    
  18 C18            8.7075    -4.2166    -0.5898 C.ar    
  19 C19            8.8335    -5.5996    -0.5814 C.ar    
  20 C20            7.7033    -6.3991    -0.4728 C.ar    
  21 N21           10.0990    -6.1876    -0.6882 N.3     
  22 C22           11.3949    -8.2578    -0.8570 C.3     
  23 N23           12.2929    -7.7703     0.1991 N.3     
  24 C24           12.3892    -6.3042     0.1693 C.3     
  25 C25           10.9971    -5.7000     0.3680 C.3     
  26 C26           13.6213    -8.3875     0.0871 C.3     
  27 C27           10.0028    -7.6537    -0.6583 C.3     
  28 C28           -2.5670     1.1293     0.4782 C.3     
  29 C29           -3.7628     2.0704     0.6369 C.3     
  30 H30           -0.9604    -0.6345     0.0146 H       
  31 H31            2.9074     1.4918     2.1269 H       
  32 H32            1.2173    -1.8197    -0.0162 H       
  33 H33            4.5101     0.5828     2.3001 H       
  34 H34            6.6924    -0.5968     2.2584 H       
  35 H35            4.2929    -4.2756    -0.6716 H       
  36 H36           -1.4530     2.5979     1.5321 H       
  37 H37            5.5756    -6.4407    -0.2843 H       
  38 H38            7.3608    -2.5610    -0.4919 H       
  39 H39            9.5860    -3.5948    -0.6788 H       
  40 H40            7.8012    -7.4747    -0.4659 H       
  41 H41           11.7843    -7.9614    -1.8310 H       
  42 H42           11.3302    -9.3447    -0.8063 H       
  43 H43           13.0495    -5.9668     0.9682 H       
  44 H44           12.7899    -5.9856    -0.7930 H       
  45 H45           11.0617    -4.6131     0.3173 H       
  46 H46           10.6077    -5.9964     1.3419 H       
  47 H47           14.0555    -8.1417    -0.8820 H       
  48 H48           14.2658    -8.0092     0.8806 H       
  49 H49           13.5281    -9.4696     0.1795 H       
  50 H50            9.6020    -7.9723     0.3040 H       
  51 H51            9.3425    -7.9911    -1.4573 H       
  52 H52           -2.3718     0.9655    -0.5816 H       
  53 H53           -2.7884     0.1762     0.9584 H       
  54 H54           -3.9580     2.2343     1.6967 H       
  55 H55           -3.5414     3.0235     0.1566 H       
  56 H56           -4.6410     1.6239     0.1705 H       
@<TRIPOS>BOND
   1    1    2 ar
   2    1    3 ar
   3    1   14 1
   4    2    6 ar
   5    2   30 1
   6    3    4 ar
   7    4    5 ar
   8    4   31 1
   9    5    6 ar
  10    5    7 1
  11    6   32 1
  12    7    8 ar
  13    7    9 ar
  14    8   12 ar
  15    8   33 1
  16    9   10 ar
  17   10   11 ar
  18   10   13 1
  19   11   12 ar
  20   12   34 1
  21   13   15 1
  22   13   35 1
  23   14   28 1
  24   14   36 1
  25   15   16 ar
  26   15   17 ar
  27   16   20 ar
  28   16   37 1
  29   17   18 ar
  30   17   38 1
  31   18   19 ar
  32   18   39 1
  33   19   20 ar
  34   19   21 1
  35   20   40 1
  36   21   27 1
  37   21   25 1
  38   22   23 1
  39   22   27 1
  40   22   41 1
  41   22   42 1
  42   23   24 1
  43   23   26 1
  44   24   25 1
  45   24   43 1
  46   24   44 1
  47   25   45 1
  48   25   46 1
  49   26   47 1
  50   26   48 1
  51   26   49 1
  52   27   50 1
  53   27   51 1
  54   28   29 1
  55   28   52 1
  56   28   53 1
  57   29   54 1
  58   29   55 1
  59   29   56 1

#	End of record

