#	Name: ASD02038052
#	Creating user name:	WinNT
#	Creation time:	15. 06. 2019 20:16

#	Modifying user name:	WinNT
#	Modification time:	15. 06. 2019 20:16

#	Program:	/corina/corina34_cracker 3.40 0067  02.08.2006

@<TRIPOS>MOLECULE
ASD02038052
  41   43    0    0    0
SMALL
NO_CHARGES


@<TRIPOS>ATOM
   1 C1            -0.0184     1.5028     0.0103 C.3     
   2 N2             1.6237     3.3527     0.0046 N.am    
   3 C3             1.3954     2.0244    -0.0004 C.2     
   4 C4             2.2000     6.7174    -0.1824 C.3     
   5 O5             1.4397     7.6412    -0.9639 O.3     
   6 C6             1.5486     8.9579    -0.6423 C.ar    
   7 C7             0.8379     9.9082    -1.3602 C.ar    
   8 C8             2.3661     9.3501     0.4073 C.ar    
   9 C9             2.4768    10.6877     0.7340 C.ar    
  10 C10            1.7708    11.6386     0.0121 C.ar    
  11 C11            0.9486    11.2458    -1.0336 C.ar    
  12 O12            2.3278     1.2489    -0.0135 O.2     
  13 O13            1.8791    12.9552     0.3342 O.3     
  14 C14            0.0021    -0.0041     0.0020 C.ar    
  15 C15            2.8088     4.2235    -0.0021 C.3     
  16 C16            1.9505     5.2952    -0.6883 C.3     
  17 C17            0.7973     4.5691     0.0124 C.3     
  18 C18            0.0229    -0.7010     1.1955 C.ar    
  19 C19            0.0416    -2.0835     1.1900 C.ar    
  20 C20            0.0396    -2.7704    -0.0101 C.ar    
  21 C21            0.0183    -2.0721    -1.2071 C.ar    
  22 C22           -0.0058    -0.6883    -1.1991 C.ar    
  23 Cl23           0.0643    -4.5062    -0.0175 Cl      
  24 F24            0.0163    -2.7417    -2.3805 F       
  25 H25           -0.5286     1.8543     0.9071 H       
  26 H26           -0.5455     1.8639    -0.8728 H       
  27 H27            3.2604     6.9536    -0.2705 H       
  28 H28            1.8972     6.7898     0.8622 H       
  29 H29            0.1982     9.6025    -2.1749 H       
  30 H30            2.9158     8.6097     0.9694 H       
  31 H31            3.1128    10.9930     1.5517 H       
  32 H32            0.3992    11.9863    -1.5960 H       
  33 H33            2.5902    13.4168    -0.1310 H       
  34 H34            3.1436     4.5086     0.9953 H       
  35 H35            3.6188     3.8495    -0.6283 H       
  36 H36            1.9268     5.2201    -1.7755 H       
  37 H37           -0.1013     4.4898    -0.5995 H       
  38 H38            0.5933     4.9447     1.0151 H       
  39 H39            0.0248    -0.1652     2.1332 H       
  40 H40            0.0582    -2.6269     2.1231 H       
  41 H41           -0.0224    -0.1430    -2.1312 H       
@<TRIPOS>BOND
   1    1   14 1
   2    1    3 1
   3    1   25 1
   4    1   26 1
   5    2    3 am
   6    2   15 1
   7    2   17 1
   8    3   12 2
   9    4    5 1
  10    4   16 1
  11    4   27 1
  12    4   28 1
  13    5    6 1
  14    6    7 ar
  15    6    8 ar
  16    7   11 ar
  17    7   29 1
  18    8    9 ar
  19    8   30 1
  20    9   10 ar
  21    9   31 1
  22   10   11 ar
  23   10   13 1
  24   11   32 1
  25   13   33 1
  26   14   18 ar
  27   14   22 ar
  28   15   16 1
  29   15   34 1
  30   15   35 1
  31   16   17 1
  32   16   36 1
  33   17   37 1
  34   17   38 1
  35   18   19 ar
  36   18   39 1
  37   19   20 ar
  38   19   40 1
  39   20   21 ar
  40   20   23 1
  41   21   22 ar
  42   21   24 1
  43   22   41 1

#	End of record

