#	Name: ASD01940208
#	Creating user name:	WinNT
#	Creation time:	15. 06. 2019 20:12

#	Modifying user name:	WinNT
#	Modification time:	15. 06. 2019 20:12

#	Program:	/corina/corina34_cracker 3.40 0067  02.08.2006

@<TRIPOS>MOLECULE
ASD01940208
  51   52    0    0    0
SMALL
NO_CHARGES


@<TRIPOS>ATOM
   1 C1             1.6049     0.5636    -3.1010 C.3     
   2 F2            -1.8239    -4.8824    -1.0589 F       
   3 C3            -1.0451    -5.0877     0.0258 C.ar    
   4 C4             0.3376    -5.0428    -0.0930 C.ar    
   5 C5             1.1369    -5.2553     1.0289 C.ar    
   6 C6             0.5481    -5.5106     2.2584 C.ar    
   7 C7            -0.8294    -5.5541     2.3707 C.ar    
   8 C8            -1.6256    -5.3377     1.2590 C.ar    
   9 N9             0.9280    -4.7848    -1.3379 N.pl3   
  10 N10            2.5329    -5.2115     0.9148 N.am    
  11 C11            1.0948    -3.4674    -1.7725 C.ar    
  12 C12            0.8082    -2.4109    -0.9179 C.ar    
  13 C13            0.9738    -1.1096    -1.3508 C.ar    
  14 C14            1.4252    -0.8576    -2.6331 C.ar    
  15 C15            1.7119    -1.9068    -3.4877 C.ar    
  16 C16            1.5538    -3.2109    -3.0599 C.ar    
  17 Cl17           1.9138    -4.5274    -4.1328 Cl      
  18 F18           -2.9711    -5.3759     1.3755 F       
  19 S19            3.4707    -6.2225     1.8317 S.o2    
  20 O20            4.8004    -5.9360     1.4205 O.2     
  21 O21            3.0479    -5.9785     3.1662 O.2     
  22 C22            3.2427    -9.1128     3.3510 C.3     
  23 C23            2.5372   -10.4702     3.3742 C.3     
  24 C24            1.2596   -10.3954     2.5358 C.3     
  25 C25            4.4057    -9.1254     4.3451 C.3     
  26 C26            4.9876    -7.7156     4.4671 C.3     
  27 C27            2.9870    -7.8898     1.3055 C.3     
  28 O28            3.7422    -8.8579     2.0367 O.3     
  29 H29            2.6181     0.8954    -2.8745 H       
  30 H30            1.4374     0.6158    -4.1768 H       
  31 H31            0.8890     1.2076    -2.5902 H       
  32 H32            1.1659    -5.6758     3.1286 H       
  33 H33           -1.2855    -5.7531     3.3293 H       
  34 H34            1.2207    -5.5210    -1.8977 H       
  35 H35            2.9498    -4.5891     0.2987 H       
  36 H36            0.4555    -2.6066     0.0840 H       
  37 H37            0.7509    -0.2878    -0.6864 H       
  38 H38            2.0637    -1.7064    -4.4889 H       
  39 H39            2.5356    -8.3311     3.6289 H       
  40 H40            3.1993   -11.2309     2.9605 H       
  41 H41            2.2828   -10.7300     4.4018 H       
  42 H42            1.5158   -10.1559     1.5037 H       
  43 H43            0.7464   -11.3564     2.5691 H       
  44 H44            0.6065    -9.6206     2.9372 H       
  45 H45            4.0470    -9.4560     5.3198 H       
  46 H46            5.1784    -9.8080     3.9916 H       
  47 H47            5.2691    -7.3520     3.4789 H       
  48 H48            4.2404    -7.0503     4.8998 H       
  49 H49            5.8678    -7.7402     5.1095 H       
  50 H50            1.9243    -8.0374     1.4975 H       
  51 H51            3.1832    -8.0056     0.2396 H       
@<TRIPOS>BOND
   1    1   14 1
   2    1   29 1
   3    1   30 1
   4    1   31 1
   5    2    3 1
   6    3    4 ar
   7    3    8 ar
   8    4    5 ar
   9    4    9 1
  10    5    6 ar
  11    5   10 1
  12    6    7 ar
  13    6   32 1
  14    7    8 ar
  15    7   33 1
  16    8   18 1
  17    9   11 1
  18    9   34 1
  19   10   19 am
  20   10   35 1
  21   11   12 ar
  22   11   16 ar
  23   12   13 ar
  24   12   36 1
  25   13   14 ar
  26   13   37 1
  27   14   15 ar
  28   15   16 ar
  29   15   38 1
  30   16   17 1
  31   19   20 2
  32   19   21 2
  33   19   27 1
  34   22   25 1
  35   22   28 1
  36   22   23 1
  37   22   39 1
  38   23   24 1
  39   23   40 1
  40   23   41 1
  41   24   42 1
  42   24   43 1
  43   24   44 1
  44   25   26 1
  45   25   45 1
  46   25   46 1
  47   26   47 1
  48   26   48 1
  49   26   49 1
  50   27   28 1
  51   27   50 1
  52   27   51 1

#	End of record

