#	Name: ASD01948086
#	Creating user name:	WinNT
#	Creation time:	15. 06. 2019 20:13

#	Modifying user name:	WinNT
#	Modification time:	15. 06. 2019 20:13

#	Program:	/corina/corina34_cracker 3.40 0067  02.08.2006

@<TRIPOS>MOLECULE
ASD01948086
  48   51    0    0    0
SMALL
NO_CHARGES


@<TRIPOS>ATOM
   1 C1             0.0254     1.5049    -1.8987 C.3     
   2 C2            -0.1300    -0.0144    -1.9910 C.3     
   3 C3            -0.9289     0.8946    -2.9272 C.3     
   4 S4            -0.7098     2.3365    -0.4639 S.o2    
   5 O5            -2.1269     2.3512    -0.5682 O.2     
   6 O6            -0.0676     1.9240     0.7347 O.2     
   7 N7            -0.2711     3.9240    -0.6368 N.am    
   8 C8             2.0598     3.3244    -0.3929 C.2     
   9 C9             1.0841     4.2974    -0.5229 C.2     
  10 C10            1.4398     5.6535    -0.5421 C.2     
  11 C11            2.7872     5.9800    -0.4276 C.2     
  12 C12            3.7270     4.9724    -0.2997 C.2     
  13 N13            3.3751     3.6522    -0.2811 N.am    
  14 S14            1.8653     1.5658    -0.3360 S.3     
  15 C15            4.3169     2.5413    -0.1490 C.3     
  16 C16            3.6315     1.1777    -0.1590 C.3     
  17 O17            4.9079     5.2726    -0.1999 O.2     
  18 C18            3.2210     7.4231    -0.4433 C.3     
  19 N19            0.4749     6.6420    -0.6721 N.pl3   
  20 C20           -0.3199     6.6969    -1.8222 C.ar    
  21 C21           -1.3569     7.6202    -1.9097 C.ar    
  22 C22           -2.1396     7.6714    -3.0480 C.ar    
  23 C23           -1.8921     6.8053    -4.0985 C.ar    
  24 C24           -0.8618     5.8868    -4.0134 C.ar    
  25 C25           -0.0719     5.8341    -2.8809 C.ar    
  26 I26           -3.0815     6.8853    -5.8213 I       
  27 F27           -1.5989     8.4651    -0.8836 F       
  28 C28            1.0297    -0.8077    -2.5963 C.3     
  29 O29            0.7553    -2.2063    -2.4930 O.3     
  30 H30            0.9540     1.9392    -2.2692 H       
  31 H31           -0.6741    -0.5142    -1.1895 H       
  32 H32           -1.9985     0.9928    -2.7417 H       
  33 H33           -0.6282     0.9275    -3.9744 H       
  34 H34           -0.9462     4.5969    -0.8163 H       
  35 H35            5.0289     2.5842    -0.9733 H       
  36 H36            4.8622     2.6523     0.7883 H       
  37 H37            3.8149     0.6556     0.7800 H       
  38 H38            3.9769     0.5799    -1.0025 H       
  39 H39            3.3144     7.7856     0.5804 H       
  40 H40            4.1835     7.5077    -0.9479 H       
  41 H41            2.4789     8.0198    -0.9738 H       
  42 H42            0.3515     7.2951     0.0344 H       
  43 H43           -2.9450     8.3876    -3.1174 H       
  44 H44           -0.6718     5.2122    -4.8351 H       
  45 H45            0.7349     5.1190    -2.8176 H       
  46 H46            1.1466    -0.5369    -3.6457 H       
  47 H47            1.9484    -0.5769    -2.0570 H       
  48 H48            1.4500    -2.7714    -2.8579 H       
@<TRIPOS>BOND
   1    1    2 1
   2    1    3 1
   3    1    4 1
   4    1   30 1
   5    2    3 1
   6    2   28 1
   7    2   31 1
   8    3   32 1
   9    3   33 1
  10    4    5 2
  11    4    6 2
  12    4    7 am
  13    7    9 1
  14    7   34 1
  15    8    9 2
  16    8   13 1
  17    8   14 1
  18    9   10 1
  19   10   11 2
  20   10   19 1
  21   11   12 1
  22   11   18 1
  23   12   13 am
  24   12   17 2
  25   13   15 1
  26   14   16 1
  27   15   16 1
  28   15   35 1
  29   15   36 1
  30   16   37 1
  31   16   38 1
  32   18   39 1
  33   18   40 1
  34   18   41 1
  35   19   20 1
  36   19   42 1
  37   20   21 ar
  38   20   25 ar
  39   21   22 ar
  40   21   27 1
  41   22   23 ar
  42   22   43 1
  43   23   24 ar
  44   23   26 1
  45   24   25 ar
  46   24   44 1
  47   25   45 1
  48   28   29 1
  49   28   46 1
  50   28   47 1
  51   29   48 1

#	End of record

