#	Name: ASD02408427
#	Creating user name:	WinNT
#	Creation time:	15. 06. 2019 20:21

#	Modifying user name:	WinNT
#	Modification time:	15. 06. 2019 20:21

#	Program:	/corina/corina34_cracker 3.40 0067  02.08.2006

@<TRIPOS>MOLECULE
ASD02408427
  49   52    0    0    0
SMALL
NO_CHARGES


@<TRIPOS>ATOM
   1 N1            -0.0163     1.3527     0.0095 N.am    
   2 C2             0.0021    -0.0041     0.0020 C.2     
   3 N3             1.1021    -0.6986    -0.0118 N.2     
   4 C4             2.3095    -0.1135    -0.0201 C.2     
   5 C5             2.3912     1.2882    -0.0138 C.2     
   6 C6             1.1433     2.0510     0.0022 C.2     
   7 N7             3.5893    -0.5767    -0.0344 N.pl3   
   8 N8             4.4547     0.5245    -0.0369 N.2     
   9 C9             3.7573     1.6273    -0.0249 C.2     
  10 C10           -1.3127    -0.7406     0.0106 C.3     
  11 C11           -1.0527    -2.2483     0.0000 C.3     
  12 C12            3.9745    -1.9233    -0.0444 C.ar    
  13 C13            5.1058    -2.3182    -0.7463 C.ar    
  14 C14            5.4830    -3.6467    -0.7542 C.ar    
  15 C15            4.7355    -4.5834    -0.0642 C.ar    
  16 C16            3.6082    -4.1934     0.6354 C.ar    
  17 C17            3.2292    -2.8654     0.6523 C.ar    
  18 O18            1.1474     3.2694     0.0079 O.2     
  19 C19           -2.3811    -3.0131     0.1346 C.3     
  20 C20           -2.5261    -3.8718    -1.1388 C.3     
  21 C21           -1.0729    -4.0503    -1.6442 C.3     
  22 C22           -0.4369    -2.6689    -1.3504 C.3     
  23 C23            5.1500    -6.0322    -0.0750 C.3     
  24 C24            5.4247    -6.4947     1.3573 C.3     
  25 C25            4.0276    -6.8793    -0.6780 C.3     
  26 H26           -0.8640     1.8242     0.0160 H       
  27 H27            4.1596     2.6295    -0.0236 H       
  28 H28           -1.8723    -0.4746     0.9074 H       
  29 H29           -1.8892    -0.4651    -0.8725 H       
  30 H30           -0.3827    -2.5171     0.8167 H       
  31 H31            5.6898    -1.5872    -1.2857 H       
  32 H32            6.3626    -3.9545    -1.3003 H       
  33 H33            3.0261    -4.9274     1.1728 H       
  34 H34            2.3489    -2.5614     1.1991 H       
  35 H35           -2.3554    -3.6538     1.0160 H       
  36 H36           -3.2110    -2.3102     0.2074 H       
  37 H37           -2.9679    -4.8389    -0.8985 H       
  38 H38           -3.1278    -3.3510    -1.8836 H       
  39 H39           -0.5638    -4.8364    -1.0866 H       
  40 H40           -1.0590    -4.2625    -2.7132 H       
  41 H41           -0.7011    -1.9538    -2.1294 H       
  42 H42            0.6461    -2.7580    -1.2645 H       
  43 H43            6.0537    -6.1471    -0.6735 H       
  44 H44            4.5211    -6.3798     1.9559 H       
  45 H45            5.7245    -7.5427     1.3495 H       
  46 H46            6.2243    -5.8913     1.7870 H       
  47 H47            3.1240    -6.7643    -0.0794 H       
  48 H48            3.8319    -6.5498    -1.6984 H       
  49 H49            4.3274    -7.9272    -0.6858 H       
@<TRIPOS>BOND
   1    1    2 1
   2    1    6 am
   3    1   26 1
   4    2    3 2
   5    2   10 1
   6    3    4 1
   7    4    5 2
   8    4    7 1
   9    5    6 1
  10    5    9 1
  11    6   18 2
  12    7    8 1
  13    7   12 1
  14    8    9 2
  15    9   27 1
  16   10   11 1
  17   10   28 1
  18   10   29 1
  19   11   19 1
  20   11   22 1
  21   11   30 1
  22   12   13 ar
  23   12   17 ar
  24   13   14 ar
  25   13   31 1
  26   14   15 ar
  27   14   32 1
  28   15   16 ar
  29   15   23 1
  30   16   17 ar
  31   16   33 1
  32   17   34 1
  33   19   20 1
  34   19   35 1
  35   19   36 1
  36   20   21 1
  37   20   37 1
  38   20   38 1
  39   21   22 1
  40   21   39 1
  41   21   40 1
  42   22   41 1
  43   22   42 1
  44   23   24 1
  45   23   25 1
  46   23   43 1
  47   24   44 1
  48   24   45 1
  49   24   46 1
  50   25   47 1
  51   25   48 1
  52   25   49 1

#	End of record

