#	Name: ASD01884216
#	Creating user name:	WinNT
#	Creation time:	15. 06. 2019 19:47

#	Modifying user name:	WinNT
#	Modification time:	15. 06. 2019 19:47

#	Program:	/corina/corina34_cracker 3.40 0067  02.08.2006

@<TRIPOS>MOLECULE
ASD01884216
  36   39    0    0    0
SMALL
NO_CHARGES


@<TRIPOS>ATOM
   1 C1            -0.0169     1.3920     0.0097 C.ar    
   2 C2             0.0021    -0.0041     0.0020 C.ar    
   3 C3            -1.1684    -0.7205     0.0088 C.ar    
   4 C4            -2.4132    -0.0699     0.0237 C.ar    
   5 C5            -2.4165     1.3272     0.0317 C.ar    
   6 C6            -1.2432     2.0547     0.0308 C.ar    
   7 C7             1.2502     2.1592     0.0017 C.ar    
   8 N8            -3.6705    -0.6445     0.0324 N.am    
   9 C9            -4.7413     0.1548     0.0472 C.2     
  10 S10           -4.1177     1.8128     0.0507 S.3     
  11 O11           -5.9094    -0.1874     0.0568 O.2     
  12 C12           -3.8260    -2.1012     0.0251 C.3     
  13 C13           -3.8661    -2.6171     1.4650 C.3     
  14 C14           -4.1418    -4.1074     1.6740 C.3     
  15 C15           -2.7379    -3.5482     1.9134 C.3     
  16 C16            2.2690     1.8519     0.9221 C.ar    
  17 C17            3.4580     2.5824     0.9032 C.ar    
  18 C18            3.6274     3.5998    -0.0158 C.ar    
  19 C19            2.6209     3.9012    -0.9221 C.ar    
  20 C20            1.4418     3.1848    -0.9205 C.ar    
  21 C21            2.0870     0.7964     1.8726 C.1     
  22 N22            1.9426    -0.0410     2.6266 N.1     
  23 F23            4.7793     4.3054    -0.0319 F       
  24 H24            0.9477    -0.5256    -0.0098 H       
  25 H25           -1.1319    -1.7999     0.0023 H       
  26 H26           -1.2753     3.1342     0.0375 H       
  27 H27           -4.7544    -2.3650    -0.4814 H       
  28 H28           -2.9846    -2.5537    -0.4997 H       
  29 H29           -4.2688    -1.9225     2.2021 H       
  30 H30           -4.7257    -4.3934     2.5489 H       
  31 H31           -4.2946    -4.7204     0.7857 H       
  32 H32           -1.9672    -3.7933     1.1827 H       
  33 H33           -2.3982    -3.4663     2.9459 H       
  34 H34            4.2447     2.3529     1.6066 H       
  35 H35            2.7632     4.6987    -1.6363 H       
  36 H36            0.6633     3.4253    -1.6293 H       
@<TRIPOS>BOND
   1    1    2 ar
   2    1    7 1
   3    1    6 ar
   4    2    3 ar
   5    2   24 1
   6    3    4 ar
   7    3   25 1
   8    4    5 ar
   9    4    8 1
  10    5    6 ar
  11    5   10 1
  12    6   26 1
  13    7   16 ar
  14    7   20 ar
  15    8    9 am
  16    8   12 1
  17    9   10 1
  18    9   11 2
  19   12   13 1
  20   12   27 1
  21   12   28 1
  22   13   14 1
  23   13   15 1
  24   13   29 1
  25   14   15 1
  26   14   30 1
  27   14   31 1
  28   15   32 1
  29   15   33 1
  30   16   17 ar
  31   16   21 1
  32   17   18 ar
  33   17   34 1
  34   18   19 ar
  35   18   23 1
  36   19   20 ar
  37   19   35 1
  38   20   36 1
  39   21   22 3

#	End of record

