#	Name: ASD01890014
#	Creating user name:	WinNT
#	Creation time:	15. 06. 2019 19:50

#	Modifying user name:	WinNT
#	Modification time:	15. 06. 2019 19:50

#	Program:	/corina/corina34_cracker 3.40 0067  02.08.2006

@<TRIPOS>MOLECULE
ASD01890014
  43   46    0    0    0
SMALL
NO_CHARGES


@<TRIPOS>ATOM
   1 C1            -0.8756    -0.0745    -1.0746 C.2     
   2 C2            -0.0621     0.1715     0.1699 C.3     
   3 C3             1.2725    -0.5689     0.0614 C.3     
   4 C4             2.1582    -0.2008     1.2534 C.3     
   5 O5            -0.3944    -0.6841    -2.0002 O.2     
   6 O6            -2.1366     0.3788    -1.1526 O.3     
   7 C7             1.0237    -2.0552     0.0606 C.ar    
   8 C8             0.3040    -2.6291     1.0634 C.ar    
   9 C9             0.0637    -4.0014     1.0795 C.ar    
  10 C10            0.5414    -4.8082     0.0926 C.ar    
  11 C11            1.2882    -4.2520    -0.9595 C.ar    
  12 C12            1.7981    -5.0529    -1.9958 C.ar    
  13 C13            2.5175    -4.4791    -2.9984 C.ar    
  14 C14            2.7581    -3.1063    -3.0143 C.ar    
  15 C15            2.2806    -2.2997    -2.0277 C.ar    
  16 C16            1.5284    -2.8551    -0.9785 C.ar    
  17 C17            2.5195     1.2603     1.1785 C.2     
  18 N18            3.0953     1.8346     0.1628 N.2     
  19 C19            3.2758     3.1543     0.4265 C.ar    
  20 C20            2.7624     3.3887     1.7135 C.ar    
  21 N21            2.2858     2.1721     2.1606 N.pl3   
  22 C22            3.8315     4.2134    -0.2957 C.ar    
  23 C23            3.8704     5.4729     0.2590 C.ar    
  24 C24            3.3619     5.6990     1.5306 C.ar    
  25 C25            2.8097     4.6651     2.2562 C.ar    
  26 I26            4.7044     7.0604    -0.8243 I       
  27 H27            0.1231     1.2402     0.2775 H       
  28 H28           -0.6095    -0.1918     1.0395 H       
  29 H29            1.7721    -0.2836    -0.8643 H       
  30 H30            1.6188    -0.3946     2.1805 H       
  31 H31            3.0674    -0.8015     1.2296 H       
  32 H32           -2.6188     0.1966    -1.9708 H       
  33 H33           -0.0864    -2.0114     1.8587 H       
  34 H34           -0.5098    -4.4316     1.8873 H       
  35 H35            0.3476    -5.8704     0.1184 H       
  36 H36            1.6202    -6.1181    -1.9963 H       
  37 H37            2.9081    -5.0968    -3.7935 H       
  38 H38            3.3323    -2.6763    -3.8216 H       
  39 H39            2.4756    -1.2377    -2.0529 H       
  40 H40            1.8648     1.9992     3.0172 H       
  41 H41            4.2293     4.0446    -1.2855 H       
  42 H42            3.3990     6.6917     1.9543 H       
  43 H43            2.4157     4.8477     3.2451 H       
@<TRIPOS>BOND
   1    1    2 1
   2    1    5 2
   3    1    6 1
   4    2    3 1
   5    2   27 1
   6    2   28 1
   7    3    4 1
   8    3    7 1
   9    3   29 1
  10    4   17 1
  11    4   30 1
  12    4   31 1
  13    6   32 1
  14    7    8 ar
  15    7   16 ar
  16    8    9 ar
  17    8   33 1
  18    9   10 ar
  19    9   34 1
  20   10   11 ar
  21   10   35 1
  22   11   12 ar
  23   11   16 ar
  24   12   13 ar
  25   12   36 1
  26   13   14 ar
  27   13   37 1
  28   14   15 ar
  29   14   38 1
  30   15   16 ar
  31   15   39 1
  32   17   18 2
  33   17   21 1
  34   18   19 1
  35   19   20 ar
  36   19   22 ar
  37   20   21 1
  38   20   25 ar
  39   21   40 1
  40   22   23 ar
  41   22   41 1
  42   23   24 ar
  43   23   26 1
  44   24   25 ar
  45   24   42 1
  46   25   43 1

#	End of record

