#	Name: ASD02030749
#	Creating user name:	WinNT
#	Creation time:	15. 06. 2019 20:16

#	Modifying user name:	WinNT
#	Modification time:	15. 06. 2019 20:16

#	Program:	/corina/corina34_cracker 3.40 0067  02.08.2006

@<TRIPOS>MOLECULE
ASD02030749
  38   40    0    0    0
SMALL
NO_CHARGES


@<TRIPOS>ATOM
   1 N1            -0.0169     1.3957     0.0097 N.2     
   2 N2             0.0021    -0.0041     0.0020 N.am    
   3 C3             1.1646    -0.6797    -0.0123 C.2     
   4 N4             2.3448    -0.0325    -0.0200 N.am    
   5 C5             2.3757     1.3164    -0.0131 C.2     
   6 C6             1.1074     2.0610     0.0026 C.2     
   7 O7             1.1494    -1.8958    -0.0178 O.2     
   8 O8             3.4386     1.9089    -0.0192 O.2     
   9 O9             1.1051     3.4197     0.0094 O.3     
  10 C10           -1.2627    -0.7434     0.0101 C.3     
  11 C11           -1.6892    -1.0085     1.4554 C.3     
  12 C12           -5.3802    -3.1661     1.4799 C.ar    
  13 C13           -4.1683    -3.8538     1.4642 C.ar    
  14 C14           -2.9798    -3.1522     1.4562 C.ar    
  15 C15           -2.9902    -1.7690     1.4637 C.ar    
  16 C16           -4.1902    -1.0813     1.4793 C.ar    
  17 C17           -5.3847    -1.7727     1.4875 C.ar    
  18 C18           -6.6611    -3.9148     1.4825 C.ar    
  19 C19           -7.6506    -3.6074     2.4176 C.ar    
  20 C20           -8.8418    -4.3087     2.4139 C.ar    
  21 C21           -9.0528    -5.3123     1.4861 C.ar    
  22 C22           -8.0748    -5.6206     0.5579 C.ar    
  23 C23           -6.8834    -4.9235     0.5478 C.ar    
  24 F24           -7.4445    -2.6273     3.3244 F       
  25 H25            3.1737    -0.5362    -0.0303 H       
  26 H26            0.2211     3.8114     0.0197 H       
  27 H27           -2.0303    -0.1556    -0.4933 H       
  28 H28           -1.1322    -1.6923    -0.5101 H       
  29 H29           -0.9215    -1.5962     1.9587 H       
  30 H30           -1.8197    -0.0596     1.9756 H       
  31 H31           -4.1591    -4.9337     1.4587 H       
  32 H32           -2.0400    -3.6841     1.4440 H       
  33 H33           -4.1925    -0.0013     1.4855 H       
  34 H34           -6.3211    -1.2347     1.5000 H       
  35 H35           -9.6087    -4.0728     3.1368 H       
  36 H36           -9.9849    -5.8579     1.4865 H       
  37 H37           -8.2456    -6.4056    -0.1639 H       
  38 H38           -6.1230    -5.1626    -0.1809 H       
@<TRIPOS>BOND
   1    1    2 1
   2    1    6 2
   3    2    3 am
   4    2   10 1
   5    3    4 am
   6    3    7 2
   7    4    5 am
   8    4   25 1
   9    5    6 1
  10    5    8 2
  11    6    9 1
  12    9   26 1
  13   10   11 1
  14   10   27 1
  15   10   28 1
  16   11   15 1
  17   11   29 1
  18   11   30 1
  19   12   13 ar
  20   12   17 ar
  21   12   18 1
  22   13   14 ar
  23   13   31 1
  24   14   15 ar
  25   14   32 1
  26   15   16 ar
  27   16   17 ar
  28   16   33 1
  29   17   34 1
  30   18   19 ar
  31   18   23 ar
  32   19   20 ar
  33   19   24 1
  34   20   21 ar
  35   20   35 1
  36   21   22 ar
  37   21   36 1
  38   22   23 ar
  39   22   37 1
  40   23   38 1

#	End of record

