#	Name: ASD01813480
#	Creating user name:	WinNT
#	Creation time:	15. 06. 2019 19:30

#	Modifying user name:	WinNT
#	Modification time:	15. 06. 2019 19:30

#	Program:	/corina/corina34_cracker 3.40 0067  02.08.2006

@<TRIPOS>MOLECULE
ASD01813480
  48   52    0    0    0
SMALL
NO_CHARGES


@<TRIPOS>ATOM
   1 C1            -0.0168     1.3834    -0.0463 C.ar    
   2 C2             0.0020    -0.0038    -0.0534 C.ar    
   3 C3             1.1976    -0.6920    -0.0501 C.ar    
   4 C4             2.4035     0.0084    -0.0395 C.ar    
   5 C5             2.3796     1.4130    -0.0324 C.ar    
   6 C6             1.1627     2.0947    -0.0358 C.ar    
   7 N7             3.6056    -0.6668    -0.0350 N.pl3   
   8 C8             4.7891    -0.0410    -0.0235 C.2     
   9 C9             4.8932     1.3356    -0.0153 C.2     
  10 C10            3.6619     2.1417    -0.0212 C.2     
  11 O11            3.7002     3.3596    -0.0146 O.2     
  12 C12            6.2115     1.9851    -0.0017 C.2     
  13 O13            6.3001     3.3303     0.0062 O.3     
  14 O14            7.2221     1.3094     0.0023 O.2     
  15 C15            3.5871    -2.1316    -0.0427 C.3     
  16 C16            3.4445    -2.6248    -1.4595 C.ar    
  17 N17            2.2426    -2.7288    -1.9927 N.ar    
  18 C18            2.0635    -3.1543    -3.2264 C.ar    
  19 C19            3.1535    -3.5130    -4.0182 C.ar    
  20 C20            4.4413    -3.4136    -3.4810 C.ar    
  21 C21            4.5768    -2.9558    -2.1821 C.ar    
  22 C22            2.9513    -3.9919    -5.4055 C.ar    
  23 F23            1.2003    -2.0430    -0.0566 F       
  24 C24            2.0171    -5.0185    -5.6904 C.ar    
  25 C25            1.8687    -5.4330    -7.0387 C.ar    
  26 C26            2.6502    -4.8110    -8.0265 C.ar    
  27 N27            3.4999    -3.8651    -7.7006 N.ar    
  28 C28            3.6660    -3.4438    -6.4564 C.ar    
  29 C29            1.2487    -5.6254    -4.6913 C.ar    
  30 C30            0.3660    -6.6089    -5.0273 C.ar    
  31 C31            0.2184    -7.0183    -6.3504 C.ar    
  32 C32            0.9503    -6.4485    -7.3481 C.ar    
  33 H33           -0.9608     1.9082    -0.0536 H       
  34 H34           -0.9293    -0.5507    -0.0613 H       
  35 H35            1.1454     3.1745    -0.0307 H       
  36 H36            5.6925    -0.6328    -0.0203 H       
  37 H37            7.1887     3.7117     0.0151 H       
  38 H38            4.5175    -2.5090     0.3815 H       
  39 H39            2.7459    -2.4875     0.5522 H       
  40 H40            1.0635    -3.2262    -3.6279 H       
  41 H41            5.3079    -3.6835    -4.0663 H       
  42 H42            5.5555    -2.8661    -1.7344 H       
  43 H43            2.5517    -5.1127    -9.0588 H       
  44 H44            4.3824    -2.6610    -6.2557 H       
  45 H45            1.3542    -5.3176    -3.6615 H       
  46 H46           -0.2273    -7.0776    -4.2561 H       
  47 H47           -0.4875    -7.8000    -6.5891 H       
  48 H48            0.8250    -6.7758    -8.3696 H       
@<TRIPOS>BOND
   1    1    2 ar
   2    1    6 ar
   3    1   33 1
   4    2    3 ar
   5    2   34 1
   6    3    4 ar
   7    3   23 1
   8    4    5 ar
   9    4    7 1
  10    5    6 ar
  11    5   10 1
  12    6   35 1
  13    7    8 1
  14    7   15 1
  15    8    9 2
  16    8   36 1
  17    9   10 1
  18    9   12 1
  19   10   11 2
  20   12   13 1
  21   12   14 2
  22   13   37 1
  23   15   16 1
  24   15   38 1
  25   15   39 1
  26   16   17 ar
  27   16   21 ar
  28   17   18 ar
  29   18   19 ar
  30   18   40 1
  31   19   20 ar
  32   19   22 1
  33   20   21 ar
  34   20   41 1
  35   21   42 1
  36   22   24 ar
  37   22   28 ar
  38   24   25 ar
  39   24   29 ar
  40   25   26 ar
  41   25   32 ar
  42   26   27 ar
  43   26   43 1
  44   27   28 ar
  45   28   44 1
  46   29   30 ar
  47   29   45 1
  48   30   31 ar
  49   30   46 1
  50   31   32 ar
  51   31   47 1
  52   32   48 1

#	End of record

