#	Name: ASD01814505
#	Creating user name:	WinNT
#	Creation time:	15. 06. 2019 19:32

#	Modifying user name:	WinNT
#	Modification time:	15. 06. 2019 19:32

#	Program:	/corina/corina34_cracker 3.40 0067  02.08.2006

@<TRIPOS>MOLECULE
ASD01814505
  52   57    0    0    0
SMALL
NO_CHARGES


@<TRIPOS>ATOM
   1 C1            -0.0167     1.3811     0.0096 C.ar    
   2 C2             0.0021    -0.0041     0.0020 C.ar    
   3 N3             1.1324    -0.6805    -0.0120 N.ar    
   4 C4             2.3086    -0.0705    -0.0199 C.ar    
   5 C5             2.3609     1.3370    -0.0133 C.ar    
   6 C6             1.1828     2.0751     0.0019 C.ar    
   7 N7             3.4842    -0.7898    -0.0340 N.pl3   
   8 N8             4.6484    -0.2529    -0.0414 N.2     
   9 C9             4.8548     1.0375    -0.0367 C.2     
  10 C10            3.6945     1.9630    -0.0221 C.2     
  11 C11            3.3985    -2.2523    -0.0406 C.3     
  12 C12            3.3563    -2.7467    -1.4636 C.ar    
  13 C13            4.5344    -3.0428    -2.1253 C.ar    
  14 C14            4.5018    -3.4959    -3.4285 C.ar    
  15 C15            3.2789    -3.6553    -4.0776 C.ar    
  16 C16            2.0951    -3.3558    -3.4059 C.ar    
  17 C17            2.1394    -2.9080    -2.1012 C.ar    
  18 C18            3.2374    -4.1415    -5.4785 C.2     
  19 C19            6.0310     1.9111    -0.0430 C.2     
  20 N20            5.5596     3.1765    -0.0328 N.am    
  21 N21            4.1626     3.1749    -0.0205 N.2     
  22 O22            7.2004     1.5650    -0.0550 O.2     
  23 C23            6.3947     4.3802    -0.0345 C.3     
  24 C24            6.0824     5.2182    -1.2782 C.3     
  25 C25            6.9038     6.5102    -1.2293 C.3     
  26 C26            6.5884     7.2575     0.0690 C.3     
  27 O27            6.8720     6.4113     1.1851 O.3     
  28 C28            6.0989     5.2098     1.2177 C.3     
  29 N29            4.3272    -4.4426    -6.1698 N.2     
  30 C30            4.1605    -4.8556    -7.3783 C.2     
  31 S31            2.4977    -4.9016    -7.7709 S.3     
  32 C32            2.0873    -4.3214    -6.1589 C.2     
  33 H33           -0.9559     1.9142     0.0170 H       
  34 H34           -0.9338    -0.5431     0.0080 H       
  35 H35            1.2018     3.1549     0.0075 H       
  36 H36            4.2703    -2.6696     0.4634 H       
  37 H37            2.4934    -2.5656     0.4798 H       
  38 H38            5.4815    -2.9189    -1.6213 H       
  39 H39            5.4222    -3.7262    -3.9444 H       
  40 H40            1.1446    -3.4772    -3.9042 H       
  41 H41            1.2227    -2.6757    -1.5796 H       
  42 H42            7.4464     4.0940    -0.0429 H       
  43 H43            6.3435     4.6537    -2.1732 H       
  44 H44            5.0201     5.4620    -1.2962 H       
  45 H45            7.9661     6.2678    -1.2613 H       
  46 H46            6.6466     7.1378    -2.0826 H       
  47 H47            7.2019     8.1564     0.1293 H       
  48 H48            5.5344     7.5350     0.0819 H       
  49 H49            5.0385     5.4606     1.2455 H       
  50 H50            6.3598     4.6337     2.1054 H       
  51 H51            4.9596    -5.1339    -8.0496 H       
  52 H52            1.0913    -4.1377    -5.7838 H       
@<TRIPOS>BOND
   1    1    2 ar
   2    1    6 ar
   3    1   33 1
   4    2    3 ar
   5    2   34 1
   6    3    4 ar
   7    4    5 ar
   8    4    7 1
   9    5    6 ar
  10    5   10 1
  11    6   35 1
  12    7    8 1
  13    7   11 1
  14    8    9 2
  15    9   10 1
  16    9   19 1
  17   10   21 2
  18   11   12 1
  19   11   36 1
  20   11   37 1
  21   12   13 ar
  22   12   17 ar
  23   13   14 ar
  24   13   38 1
  25   14   15 ar
  26   14   39 1
  27   15   16 ar
  28   15   18 1
  29   16   17 ar
  30   16   40 1
  31   17   41 1
  32   18   29 1
  33   18   32 2
  34   19   20 am
  35   19   22 2
  36   20   21 1
  37   20   23 1
  38   23   24 1
  39   23   28 1
  40   23   42 1
  41   24   25 1
  42   24   43 1
  43   24   44 1
  44   25   26 1
  45   25   45 1
  46   25   46 1
  47   26   27 1
  48   26   47 1
  49   26   48 1
  50   27   28 1
  51   28   49 1
  52   28   50 1
  53   29   30 2
  54   30   31 1
  55   30   51 1
  56   31   32 1
  57   32   52 1

#	End of record

