#	Name: ASD01200095
#	Creating user name:	WinNT
#	Creation time:	15. 06. 2019 19:08

#	Modifying user name:	WinNT
#	Modification time:	15. 06. 2019 19:08

#	Program:	/corina/corina34_cracker 3.40 0067  02.08.2006

@<TRIPOS>MOLECULE
ASD01200095
  52   54    0    0    0
SMALL
NO_CHARGES


@<TRIPOS>ATOM
   1 C1            -0.2498     1.7771     0.5303 C.2     
   2 C2            -0.2202     0.3158     0.3095 C.ar    
   3 C3             0.9482    -0.3003    -0.1411 C.ar    
   4 C4             0.9718    -1.6697    -0.3462 C.ar    
   5 C5            -0.1639    -2.4292    -0.1043 C.ar    
   6 C6            -1.3277    -1.8209     0.3433 C.ar    
   7 C7            -1.3584    -0.4522     0.5566 C.ar    
   8 O8             0.7444     2.4440     0.3192 O.2     
   9 N9            -1.3808     2.3709     0.9602 N.am    
  10 S10           -0.0868     4.7991     0.9179 S.3     
  11 C11           -1.4087     3.7440     1.1676 C.2     
  12 N12           -2.4410     4.4122     1.5783 N.2     
  13 C13           -2.2907     5.7157     1.7210 C.2     
  14 C14           -1.0737     6.1706     1.4165 C.2     
  15 C15           -3.4037     6.6174     2.1895 C.3     
  16 O16           -2.4375    -2.5692     0.5778 O.3     
  17 C17           -3.4337    -2.5398    -0.3459 C.ar    
  18 C18           -4.6054    -3.2503    -0.1274 C.ar    
  19 C19           -5.6166    -3.2183    -1.0678 C.ar    
  20 C20           -5.4621    -2.4793    -2.2262 C.ar    
  21 C21           -4.2955    -1.7704    -2.4464 C.ar    
  22 C22           -3.2833    -1.7947    -1.5068 C.ar    
  23 S23           -6.7538    -2.4412    -3.4240 S.o2    
  24 O24           -6.0877    -2.1680    -4.6491 O.2     
  25 O25           -7.4514    -3.6632    -3.2261 O.2     
  26 C26           -7.7855    -1.0324    -2.9325 C.3     
  27 O27            2.1090    -2.2705    -0.7854 O.3     
  28 C28            2.0302    -3.6644    -1.0902 C.3     
  29 C29            3.1134    -4.0259    -2.1084 C.3     
  30 C30            2.2399    -4.4786     0.1882 C.3     
  31 H31            1.8326     0.2901    -0.3300 H       
  32 H32           -0.1420    -3.4969    -0.2653 H       
  33 H33           -2.2632     0.0200     0.9096 H       
  34 H34           -2.1753     1.8393     1.1247 H       
  35 H35           -0.7501     7.1997     1.4675 H       
  36 H36           -3.3757     6.6943     3.2764 H       
  37 H37           -3.2776     7.6076     1.7517 H       
  38 H38           -4.3626     6.2023     1.8791 H       
  39 H39           -4.7264    -3.8280     0.7771 H       
  40 H40           -6.5287    -3.7714    -0.8984 H       
  41 H41           -4.1772    -1.1942    -3.3522 H       
  42 H42           -2.3739    -1.2376    -1.6774 H       
  43 H43           -7.1879    -0.1210    -2.9494 H       
  44 H44           -8.6195    -0.9329    -3.6272 H       
  45 H45           -8.1690    -1.1968    -1.9255 H       
  46 H46            1.0491    -3.8901    -1.5079 H       
  47 H47            4.0946    -3.8002    -1.6907 H       
  48 H48            3.0534    -5.0891    -2.3409 H       
  49 H49            2.9641    -3.4459    -3.0191 H       
  50 H50            2.1798    -5.5418    -0.0443 H       
  51 H51            3.2210    -4.2529     0.6059 H       
  52 H52            1.4681    -4.2211     0.9136 H       
@<TRIPOS>BOND
   1    1    2 1
   2    1    8 2
   3    1    9 am
   4    2    3 ar
   5    2    7 ar
   6    3    4 ar
   7    3   31 1
   8    4    5 ar
   9    4   27 1
  10    5    6 ar
  11    5   32 1
  12    6    7 ar
  13    6   16 1
  14    7   33 1
  15    9   11 1
  16    9   34 1
  17   10   11 1
  18   10   14 1
  19   11   12 2
  20   12   13 1
  21   13   14 2
  22   13   15 1
  23   14   35 1
  24   15   36 1
  25   15   37 1
  26   15   38 1
  27   16   17 1
  28   17   18 ar
  29   17   22 ar
  30   18   19 ar
  31   18   39 1
  32   19   20 ar
  33   19   40 1
  34   20   21 ar
  35   20   23 1
  36   21   22 ar
  37   21   41 1
  38   22   42 1
  39   23   24 2
  40   23   25 2
  41   23   26 1
  42   26   43 1
  43   26   44 1
  44   26   45 1
  45   27   28 1
  46   28   29 1
  47   28   30 1
  48   28   46 1
  49   29   47 1
  50   29   48 1
  51   29   49 1
  52   30   50 1
  53   30   51 1
  54   30   52 1

#	End of record

