#	Name: ASD03092966
#	Creating user name:	WinNT
#	Creation time:	15. 06. 2019 20:33

#	Modifying user name:	WinNT
#	Modification time:	15. 06. 2019 20:33

#	Program:	/corina/corina34_cracker 3.40 0067  02.08.2006

@<TRIPOS>MOLECULE
ASD03092966
  61   63    0    0    0
SMALL
NO_CHARGES


@<TRIPOS>ATOM
   1 O1            -0.0198     1.6058     0.0109 O.3     
   2 P2             0.0021    -0.0041     0.0020 P.3     
   3 O3             0.7557    -0.5233    -1.3226 O.3     
   4 O4             0.7808    -0.5374     1.3064 O.3     
   5 O5            -1.3864    -0.5163     0.0125 O.2     
   6 H6             0.8582     2.0111     0.0047 H       
   7 H7             0.3404    -0.2390    -2.1483 H       
   8 H8             0.3814    -0.2621     2.1429 H       
   9 C9             6.3858    14.9789     7.9723 C.3     
  10 O10            6.2856    15.8075     9.1323 O.3     
  11 C11            6.8935    15.3627    10.2619 C.ar    
  12 C12            6.8312    16.1173    11.4315 C.ar    
  13 C13            7.4665    15.6229    12.5583 C.ar    
  14 C14            8.1291    14.4004    12.4519 C.ar    
  15 N15            8.7837    13.8608    13.5598 N.am    
  16 C16            9.3317    12.6316    13.4861 C.2     
  17 O17            9.1728    11.9543    12.4898 O.2     
  18 C18           10.1276    12.1064    14.6196 C.ar    
  19 C19           10.9116    12.9596    15.3923 C.ar    
  20 C20           11.6435    12.4216    16.4461 C.ar    
  21 N21           11.5839    11.1303    16.7129 N.ar    
  22 C22           10.8372    10.2887    16.0088 C.ar    
  23 C23           10.7984     8.8494    16.4526 C.3     
  24 C24           11.0331     7.9120    15.2660 C.3     
  25 O25            9.7621     7.5685    14.7216 O.3     
  26 C26            8.7864     8.6096    14.8218 C.3     
  27 C27            9.2949     9.8270    14.0509 C.3     
  28 C28           10.1020    10.7374    14.9402 C.ar    
  29 N29           12.4443    13.2503    17.2237 N.3     
  30 C30           13.5497    13.8308    16.4187 C.3     
  31 C31           14.6114    14.2474    17.4591 C.3     
  32 C32           14.3385    13.3571    18.6889 C.3     
  33 C33           13.1348    12.4774    18.2881 C.3     
  34 H34           13.4775    11.5183    17.8999 H       
  35 C35           12.2046    12.2686    19.4848 C.3     
  36 N36            8.1350    13.7533    11.2977 N.ar    
  37 N37            7.5412    14.2099    10.2555 N.ar    
  38 H38            5.9404    14.0062     8.1810 H       
  39 H39            5.8582    15.4497     7.1429 H       
  40 H40            7.4354    14.8488     7.7083 H       
  41 H41            6.3037    17.0593    11.4584 H       
  42 H42            7.4496    16.1676    13.4907 H       
  43 H43            8.8443    14.3702    14.3830 H       
  44 H44           10.9509    14.0174    15.1777 H       
  45 H45           11.5737     8.6831    17.2005 H       
  46 H46            9.8243     8.6352    16.8922 H       
  47 H47           11.6338     8.4175    14.5098 H       
  48 H48           11.5455     7.0111    15.6034 H       
  49 H49            7.8440     8.2709    14.3912 H       
  50 H50            8.6396     8.8743    15.8689 H       
  51 H51            9.9161     9.4900    13.2211 H       
  52 H52            8.4430    10.3805    13.6558 H       
  53 H53           13.9573    13.0834    15.7379 H       
  54 H54           13.1993    14.7010    15.8636 H       
  55 H55           15.6135    14.0621    17.0724 H       
  56 H56           14.4939    15.2993    17.7196 H       
  57 H57           15.2067    12.7347    18.9059 H       
  58 H58           14.0870    13.9720    19.5531 H       
  59 H59           11.3191    11.7193    19.1651 H       
  60 H60           12.7259    11.7008    20.2554 H       
  61 H61           11.9061    13.2370    19.8863 H       
@<TRIPOS>BOND
   1    1    2 1
   2    1    6 1
   3    2    3 1
   4    2    4 1
   5    2    5 2
   6    3    7 1
   7    4    8 1
   8    9   10 1
   9    9   38 1
  10    9   39 1
  11    9   40 1
  12   10   11 1
  13   11   37 ar
  14   11   12 ar
  15   12   13 ar
  16   12   41 1
  17   13   14 ar
  18   13   42 1
  19   14   15 1
  20   14   36 ar
  21   15   16 am
  22   15   43 1
  23   16   17 2
  24   16   18 1
  25   18   28 ar
  26   18   19 ar
  27   19   20 ar
  28   19   44 1
  29   20   21 ar
  30   20   29 1
  31   21   22 ar
  32   22   28 ar
  33   22   23 1
  34   23   24 1
  35   23   45 1
  36   23   46 1
  37   24   25 1
  38   24   47 1
  39   24   48 1
  40   25   26 1
  41   26   27 1
  42   26   49 1
  43   26   50 1
  44   27   28 1
  45   27   51 1
  46   27   52 1
  47   29   33 1
  48   29   30 1
  49   30   31 1
  50   30   53 1
  51   30   54 1
  52   31   32 1
  53   31   55 1
  54   31   56 1
  55   32   33 1
  56   32   57 1
  57   32   58 1
  58   33   34 1
  59   33   35 1
  60   35   59 1
  61   35   60 1
  62   35   61 1
  63   36   37 ar

#	End of record

