#	Name: ASD07300987
#	Creating user name:	WinNT
#	Creation time:	15. 06. 2019 21:10

#	Modifying user name:	WinNT
#	Modification time:	15. 06. 2019 21:10

#	Program:	/corina/corina34_cracker 3.40 0067  02.08.2006

@<TRIPOS>MOLECULE
ASD07300987
  26   27    0    0    0
SMALL
NO_CHARGES


@<TRIPOS>ATOM
   1 C1            -0.0169     1.4668     0.0596 C.2     
   2 C2             0.0021    -0.0041     0.0009 C.2     
   3 C3             1.2692    -0.6324    -0.0644 C.2     
   4 C4             2.3698     0.1606    -0.0682 C.2     
   5 N5             2.2544     1.5070    -0.0109 N.pl3   
   6 N6             1.1276     2.1152     0.0486 N.2     
   7 O7            -1.0319    -0.6550     0.0086 O.2     
   8 C8             3.4238     2.2745    -0.0175 C.ar    
   9 C9             3.3477     3.6585    -0.1137 C.ar    
  10 C10            4.5040     4.4132    -0.1200 C.ar    
  11 C11            5.7370     3.7929    -0.0307 C.ar    
  12 C12            5.8163     2.4157     0.0652 C.ar    
  13 C13            4.6634     1.6552     0.0778 C.ar    
  14 C14            4.4225     5.9143    -0.2247 C.3     
  15 F15            4.3463     6.4678     1.0578 F       
  16 F16            5.5625     6.3990    -0.8749 F       
  17 F17            3.2830     6.2697    -0.9545 F       
  18 C18           -1.2580     2.1785     0.1214 C.1     
  19 C19           -2.2754     2.7620     0.1720 C.1     
  20 H20            1.3567    -1.7079    -0.1092 H       
  21 H21            3.3506    -0.2888    -0.1173 H       
  22 H22            2.3853     4.1435    -0.1838 H       
  23 H23            6.6399     4.3854    -0.0361 H       
  24 H24            6.7807     1.9345     0.1348 H       
  25 H25            4.7259     0.5800     0.1572 H       
  26 H26           -3.1855     3.2838     0.2173 H       
@<TRIPOS>BOND
   1    1    2 1
   2    1    6 2
   3    1   18 1
   4    2    3 1
   5    2    7 2
   6    3    4 2
   7    3   20 1
   8    4    5 1
   9    4   21 1
  10    5    6 1
  11    5    8 1
  12    8    9 ar
  13    8   13 ar
  14    9   10 ar
  15    9   22 1
  16   10   11 ar
  17   10   14 1
  18   11   12 ar
  19   11   23 1
  20   12   13 ar
  21   12   24 1
  22   13   25 1
  23   14   15 1
  24   14   16 1
  25   14   17 1
  26   18   19 3
  27   19   26 1

#	End of record

