#	Name: ASD01870608
#	Creating user name:	WinNT
#	Creation time:	15. 06. 2019 19:39

#	Modifying user name:	WinNT
#	Modification time:	15. 06. 2019 19:39

#	Program:	/corina/corina34_cracker 3.40 0067  02.08.2006

@<TRIPOS>MOLECULE
ASD01870608
  46   49    0    0    0
SMALL
NO_CHARGES


@<TRIPOS>ATOM
   1 C1            -0.0461     1.4055    -0.0167 C.ar    
   2 C2            -0.0330     0.0194    -0.0272 C.ar    
   3 C3             1.1650    -0.6700    -0.0414 C.ar    
   4 C4             2.3700     0.0151    -0.0453 C.ar    
   5 C5             2.3725     1.4007    -0.0349 C.ar    
   6 C6             1.1507     2.1037    -0.0204 C.ar    
   7 C7             3.4321     2.4312    -0.0346 C.2     
   8 N8             2.8504     3.6441    -0.0209 N.am    
   9 C9             1.5094     3.5376    -0.0123 C.2     
  10 C10            3.5502     4.8601    -0.0161 C.ar    
  11 C11            3.8875     5.4716    -1.2163 C.ar    
  12 C12            4.5763     6.6676    -1.2119 C.ar    
  13 C13            4.9317     7.2599    -0.0067 C.ar    
  14 C14            4.5938     6.6484     1.1935 C.ar    
  15 C15            3.9002     5.4546     1.1885 C.ar    
  16 O16            0.7247     4.4646     0.0005 O.2     
  17 O17            4.6278     2.2186    -0.0451 O.2     
  18 N18            5.6307     8.4726    -0.0020 N.am    
  19 C19            6.5375     8.7315    -0.9649 C.2     
  20 C20            7.1842    10.0459    -1.0285 C.2     
  21 O21            6.8195     7.8743    -1.7816 O.2     
  22 C22            8.1152    10.4385    -1.9473 C.2     
  23 C23            8.4569    11.7635    -1.6345 C.2     
  24 C24            7.7288    12.1172    -0.5525 C.2     
  25 O25            6.9595    11.0813    -0.1933 O.3     
  26 C26            8.6685     9.6097    -3.0778 C.3     
  27 C27            3.5285     4.7938     2.4909 C.3     
  28 F28            3.9853     5.5754     3.5575 F       
  29 F29            2.1375     4.6660     2.5687 F       
  30 F30            4.1176     3.5265     2.5556 F       
  31 C31           -1.3564     2.1498    -0.0075 C.3     
  32 H32           -0.9654    -0.5257    -0.0239 H       
  33 H33            1.1621    -1.7500    -0.0491 H       
  34 H34            3.3030    -0.5288    -0.0560 H       
  35 H35            3.6112     5.0111    -2.1533 H       
  36 H36            4.8393     7.1428    -2.1455 H       
  37 H37            4.8703     7.1085     2.1306 H       
  38 H38            5.4624     9.1266     0.6943 H       
  39 H39            9.1682    12.3836    -2.1598 H       
  40 H40            7.7593    13.0783    -0.0607 H       
  41 H41            8.0518     9.7486    -3.9657 H       
  42 H42            9.6901     9.9236    -3.2922 H       
  43 H43            8.6638     8.5576    -2.7931 H       
  44 H44           -1.6695     2.3215     1.0224 H       
  45 H45           -1.2341     3.1070    -0.5144 H       
  46 H46           -2.1133     1.5593    -0.5238 H       
@<TRIPOS>BOND
   1    1    2 ar
   2    1    6 ar
   3    1   31 1
   4    2    3 ar
   5    2   32 1
   6    3    4 ar
   7    3   33 1
   8    4    5 ar
   9    4   34 1
  10    5    7 1
  11    5    6 ar
  12    6    9 1
  13    7    8 am
  14    7   17 2
  15    8    9 am
  16    8   10 1
  17    9   16 2
  18   10   11 ar
  19   10   15 ar
  20   11   12 ar
  21   11   35 1
  22   12   13 ar
  23   12   36 1
  24   13   14 ar
  25   13   18 1
  26   14   15 ar
  27   14   37 1
  28   15   27 1
  29   18   19 am
  30   18   38 1
  31   19   20 1
  32   19   21 2
  33   20   22 2
  34   20   25 1
  35   22   23 1
  36   22   26 1
  37   23   24 2
  38   23   39 1
  39   24   25 1
  40   24   40 1
  41   26   41 1
  42   26   42 1
  43   26   43 1
  44   27   28 1
  45   27   29 1
  46   27   30 1
  47   31   44 1
  48   31   45 1
  49   31   46 1

#	End of record

