#	Name: ASD02198377
#	Creating user name:	WinNT
#	Creation time:	15. 06. 2019 20:19

#	Modifying user name:	WinNT
#	Modification time:	15. 06. 2019 20:19

#	Program:	/corina/corina34_cracker 3.40 0067  02.08.2006

@<TRIPOS>MOLECULE
ASD02198377
  32   34    0    0    0
SMALL
NO_CHARGES


@<TRIPOS>ATOM
   1 C1             1.3311     4.3742     3.9032 C.2     
   2 C2             0.6142     3.3289     4.3223 C.2     
   3 C3             2.1444     4.1227     2.8111 C.2     
   4 C4             2.0881     2.8750     2.3438 C.2     
   5 S5             0.9577     1.9337     3.3080 S.3     
   6 S6             3.0065     2.2626     0.9705 S.o2    
   7 N7             4.4923     1.8036     1.5398 N.am    
   8 C8             4.5918     0.7851     2.4867 C.ar    
   9 C9             4.1249    -0.5137     2.1866 C.ar    
  10 C10            4.2392    -1.5291     3.1672 C.ar    
  11 C11            4.8104    -1.2317     4.4148 C.ar    
  12 C12            5.2517     0.0300     4.6765 C.ar    
  13 C13            5.1516     1.0363     3.7206 C.ar    
  14 N14            3.5812    -0.7930     0.9991 N.ar    
  15 C15            3.1457    -1.9963     0.7148 C.ar    
  16 C16            3.2272    -3.0409     1.6332 C.ar    
  17 C17            3.7732    -2.8233     2.8659 C.ar    
  18 O18            2.3532     1.0731     0.5492 O.2     
  19 O19            3.2312     3.3719     0.1113 O.2     
  20 Cl20          -0.4878     3.3443     5.6636 Cl      
  21 C21            5.6503     2.4213     4.0432 C.3     
  22 H22            1.2775     5.3433     4.3770 H       
  23 H23            2.7762     4.8799     2.3707 H       
  24 H24            5.2933     2.2434     1.2145 H       
  25 H25            4.8995    -2.0023     5.1662 H       
  26 H26            5.6897     0.2517     5.6385 H       
  27 H27            2.7122    -2.1828    -0.2567 H       
  28 H28            2.8593    -4.0217     1.3705 H       
  29 H29            3.8446    -3.6214     3.5900 H       
  30 H30            6.6995     2.5048     3.7601 H       
  31 H31            5.0652     3.1562     3.4902 H       
  32 H32            5.5468     2.6048     5.1126 H       
@<TRIPOS>BOND
   1    1    2 2
   2    1    3 1
   3    1   22 1
   4    2   20 1
   5    2    5 1
   6    3    4 2
   7    3   23 1
   8    4    5 1
   9    4    6 1
  10    6    7 am
  11    6   18 2
  12    6   19 2
  13    7    8 1
  14    7   24 1
  15    8    9 ar
  16    8   13 ar
  17    9   10 ar
  18    9   14 ar
  19   10   11 ar
  20   10   17 ar
  21   11   12 ar
  22   11   25 1
  23   12   13 ar
  24   12   26 1
  25   13   21 1
  26   14   15 ar
  27   15   16 ar
  28   15   27 1
  29   16   17 ar
  30   16   28 1
  31   17   29 1
  32   21   30 1
  33   21   31 1
  34   21   32 1

#	End of record

