#	Name: ASD01885391
#	Creating user name:	WinNT
#	Creation time:	15. 06. 2019 19:49

#	Modifying user name:	WinNT
#	Modification time:	15. 06. 2019 19:49

#	Program:	/corina/corina34_cracker 3.40 0067  02.08.2006

@<TRIPOS>MOLECULE
ASD01885391
  28   30    0    0    0
SMALL
NO_CHARGES


@<TRIPOS>ATOM
   1 C1            -0.0168     1.3902     0.0097 C.ar    
   2 C2             0.0021    -0.0041     0.0020 C.ar    
   3 N3            -1.1141    -0.7755     0.0172 N.2     
   4 C4            -2.1888    -0.5709    -0.6526 C.2     
   5 C5            -2.3480     0.6302    -1.5473 C.3     
   6 C6            -2.2779     1.8682    -0.6894 C.2     
   7 N7            -1.1822     2.1445     0.0191 N.am    
   8 C8             1.1907     2.0902     0.0019 C.ar    
   9 C9             2.3949     1.4189    -0.0172 C.ar    
  10 C10            2.4175     0.0333    -0.0289 C.ar    
  11 C11            1.2383    -0.6738    -0.0194 C.ar    
  12 C12           -3.2964    -1.5365    -0.5442 C.ar    
  13 C13           -3.1721    -2.6616     0.2809 C.ar    
  14 C14           -4.2432    -3.5386     0.3472 C.ar    
  15 C15           -5.3725    -3.2495    -0.4070 C.ar    
  16 N16           -5.4065    -2.1638    -1.1608 N.ar    
  17 N17           -4.4224    -1.3422    -1.2252 N.ar    
  18 O18           -3.2281     2.6205    -0.6431 O.2     
  19 Cl19          -6.7419    -4.3155    -0.3606 Cl      
  20 Br20           4.0175     2.3899    -0.0281 Br      
  21 H21           -1.5459     0.6481    -2.2852 H       
  22 H22           -3.3127     0.5871    -2.0528 H       
  23 H23           -1.2009     2.9328     0.5841 H       
  24 H24            1.1817     3.1702     0.0106 H       
  25 H25            3.3614    -0.4913    -0.0455 H       
  26 H26            1.2618    -1.7535    -0.0290 H       
  27 H27           -2.2700    -2.8401     0.8474 H       
  28 H28           -4.2005    -4.4217     0.9673 H       
@<TRIPOS>BOND
   1    1    2 ar
   2    1    8 ar
   3    1    7 1
   4    2    3 1
   5    2   11 ar
   6    3    4 2
   7    4    5 1
   8    4   12 1
   9    5    6 1
  10    5   21 1
  11    5   22 1
  12    6    7 am
  13    6   18 2
  14    7   23 1
  15    8    9 ar
  16    8   24 1
  17    9   10 ar
  18    9   20 1
  19   10   11 ar
  20   10   25 1
  21   11   26 1
  22   12   13 ar
  23   12   17 ar
  24   13   14 ar
  25   13   27 1
  26   14   15 ar
  27   14   28 1
  28   15   16 ar
  29   15   19 1
  30   16   17 ar

#	End of record

