#	Name: ASD00110033
#	Creating user name:	WinNT
#	Creation time:	15. 06. 2019 18:30

#	Modifying user name:	WinNT
#	Modification time:	15. 06. 2019 18:30

#	Program:	/corina/corina34_cracker 3.40 0067  02.08.2006

@<TRIPOS>MOLECULE
ASD00110033
  70   72    0    0    0
SMALL
NO_CHARGES


@<TRIPOS>ATOM
   1 C1            -0.0187     1.5270     0.0104 C.3     
   2 C2            -1.4347    -0.5286    -0.0486 C.3     
   3 C3            -1.4185    -2.0352    -0.0770 C.2     
   4 N4            -1.2400    -2.7289     1.0647 N.am    
   5 O5            -1.5661    -2.6236    -1.1272 O.2     
   6 C6            -1.2243    -4.1935     1.0371 C.3     
   7 C7            -2.6586    -4.7205     1.1136 C.3     
   8 O8            -3.2272    -4.3723     2.3776 O.3     
   9 C9            -0.4240    -4.7175     2.2312 C.3     
  10 O10           -1.0950    -4.3695     3.4439 O.3     
  11 C11            1.4162     2.0578    -0.0004 C.3     
  12 C12            1.3972     3.5818     0.1337 C.3     
  13 N13           -2.0992    -0.0236    -1.2568 N.3     
  14 C14           -2.1732     1.4430    -1.2485 C.3     
  15 C15           -0.7585     2.0264    -1.2337 C.3     
  16 C16            0.0021    -0.0041     0.0020 C.3     
  17 C17            0.9513    -4.1016     2.2234 C.ar    
  18 C18            3.4744    -2.9713     2.2087 C.ar    
  19 C19            2.4193    -2.2992     2.7970 C.ar    
  20 C20            1.1578    -2.8642     2.8041 C.ar    
  21 C21            2.0076    -4.7764     1.6406 C.ar    
  22 C22            3.2692    -4.2114     1.6335 C.ar    
  23 C23            2.8105     4.1047     0.1230 C.ar    
  24 C24            3.4112     4.4488    -1.0736 C.ar    
  25 C25            4.7076     4.9284    -1.0834 C.ar    
  26 C26            5.4033     5.0644     0.1034 C.ar    
  27 C27            4.8023     4.7211     1.3001 C.ar    
  28 C28            3.5044     4.2456     1.3103 C.ar    
  29 C29            6.8170     5.5863     0.0926 C.3     
  30 C30            6.8370     6.9921    -0.5107 C.3     
  31 C31            7.3523     5.6383     1.5250 C.3     
  32 C32            7.6968     4.6583    -0.7473 C.3     
  33 H33           -0.5307     1.8794     0.9058 H       
  34 H34           -1.9769    -0.1878     0.8335 H       
  35 H35           -1.1220    -2.2583     1.9047 H       
  36 H36           -0.7608    -4.5345     0.1113 H       
  37 H37           -3.2518    -4.2771     0.3139 H       
  38 H38           -2.6536    -5.8050     1.0039 H       
  39 H39           -4.1378    -4.6753     2.4961 H       
  40 H40           -0.3369    -5.8019     2.1625 H       
  41 H41           -1.2079    -3.4176     3.5717 H       
  42 H42            1.9695     1.6266     0.8339 H       
  43 H43            1.8987     1.7816    -0.9379 H       
  44 H44            0.8439     4.0131    -0.7006 H       
  45 H45            0.9147     3.8581     1.0712 H       
  46 H46           -1.6379    -0.3576    -2.0897 H       
  47 H47           -2.6979     1.7852    -2.1405 H       
  48 H48           -2.7120     1.7744    -0.3608 H       
  49 H49           -0.8139     3.1148    -1.2117 H       
  50 H50           -0.2236     1.7066    -2.1280 H       
  51 H51            0.5489    -0.3558    -0.8728 H       
  52 H52            0.4901    -0.3664     0.9068 H       
  53 H53            4.4600    -2.5298     2.2031 H       
  54 H54            2.5796    -1.3303     3.2464 H       
  55 H55            0.3333    -2.3388     3.2630 H       
  56 H56            1.8473    -5.7453     1.1912 H       
  57 H57            4.0935    -4.7365     1.1738 H       
  58 H58            2.8677     4.3426    -2.0008 H       
  59 H59            5.1771     5.1966    -2.0183 H       
  60 H60            5.3459     4.8270     2.2272 H       
  61 H61            3.0335     3.9810     2.2455 H       
  62 H62            6.2102     7.6533     0.0877 H       
  63 H63            7.8595     7.3696    -0.5185 H       
  64 H64            6.4556     6.9551    -1.5311 H       
  65 H65            7.3381     4.6367     1.9548 H       
  66 H66            8.3749     6.0158     1.5172 H       
  67 H67            6.7255     6.2994     2.1234 H       
  68 H68            7.3154     4.6212    -1.7677 H       
  69 H69            8.7193     5.0357    -0.7551 H       
  70 H70            7.6826     3.6567    -0.3175 H       
@<TRIPOS>BOND
   1    1   16 1
   2    1   11 1
   3    1   15 1
   4    1   33 1
   5    2    3 1
   6    2   13 1
   7    2   16 1
   8    2   34 1
   9    3    4 am
  10    3    5 2
  11    4    6 1
  12    4   35 1
  13    6    7 1
  14    6    9 1
  15    6   36 1
  16    7    8 1
  17    7   37 1
  18    7   38 1
  19    8   39 1
  20    9   10 1
  21    9   17 1
  22    9   40 1
  23   10   41 1
  24   11   12 1
  25   11   42 1
  26   11   43 1
  27   12   23 1
  28   12   44 1
  29   12   45 1
  30   13   14 1
  31   13   46 1
  32   14   15 1
  33   14   47 1
  34   14   48 1
  35   15   49 1
  36   15   50 1
  37   16   51 1
  38   16   52 1
  39   17   21 ar
  40   17   20 ar
  41   18   19 ar
  42   18   22 ar
  43   18   53 1
  44   19   20 ar
  45   19   54 1
  46   20   55 1
  47   21   22 ar
  48   21   56 1
  49   22   57 1
  50   23   24 ar
  51   23   28 ar
  52   24   25 ar
  53   24   58 1
  54   25   26 ar
  55   25   59 1
  56   26   27 ar
  57   26   29 1
  58   27   28 ar
  59   27   60 1
  60   28   61 1
  61   29   30 1
  62   29   31 1
  63   29   32 1
  64   30   62 1
  65   30   63 1
  66   30   64 1
  67   31   65 1
  68   31   66 1
  69   31   67 1
  70   32   68 1
  71   32   69 1
  72   32   70 1

#	End of record

