#	Name: ASD02820002
#	Creating user name:	WinNT
#	Creation time:	15. 06. 2019 20:26

#	Modifying user name:	WinNT
#	Modification time:	15. 06. 2019 20:26

#	Program:	/corina/corina34_cracker 3.40 0067  02.08.2006

@<TRIPOS>MOLECULE
ASD02820002
  68   72    0    0    0
SMALL
NO_CHARGES


@<TRIPOS>ATOM
   1 C1            -0.4749     1.3415     0.7632 C.ar    
   2 C2            -0.5126    -0.0397     0.8842 C.ar    
   3 C3             0.6439    -0.7869     0.7503 C.ar    
   4 C4             1.8563    -0.1710     0.4961 C.ar    
   5 C5             1.9158     1.2052     0.3736 C.ar    
   6 C6             0.7445     1.9741     0.5036 C.ar    
   7 N7             3.1108     1.8713     0.1250 N.pl3   
   8 C8             3.2702     3.2384     0.6357 C.3     
   9 N9             2.0593     4.0187     0.3815 N.am    
  10 C10            0.8439     3.4341     0.3552 C.2     
  11 C11            2.1686     5.4615     0.1522 C.3     
  12 C12            2.3489     5.7238    -1.3208 C.ar    
  13 C13            1.2439     5.9129    -2.1296 C.ar    
  14 C14            1.4093     6.1534    -3.4807 C.ar    
  15 C15            2.6798     6.2054    -4.0231 C.ar    
  16 C16            3.7849     6.0172    -3.2142 C.ar    
  17 C17            3.6196     5.7809    -1.8622 C.ar    
  18 C18            3.5302     3.1897     2.1193 C.ar    
  19 O19           -0.1589     4.1069     0.2091 O.2     
  20 C20            3.1167     4.2331     2.9271 C.ar    
  21 C21            3.3542     4.1910     4.2871 C.ar    
  22 C22            4.0080     3.1005     4.8427 C.ar    
  23 C23            4.4214     2.0550     4.0302 C.ar    
  24 C24            4.1768     2.0994     2.6711 C.ar    
  25 O25            4.2433     3.0570     6.1804 O.3     
  26 C26            3.7901     4.1688     6.9553 C.3     
  27 C27            5.1321     0.8693     4.6302 C.3     
  28 O28            5.4533    -0.0657     3.5983 O.3     
  29 C29            6.1018    -1.2004     3.9735 C.ar    
  30 C30            6.4435    -2.1504     3.0221 C.ar    
  31 C31            7.1021    -3.3030     3.4024 C.ar    
  32 C32            7.4226    -3.5107     4.7373 C.ar    
  33 C33            7.0807    -2.5593     5.6890 C.ar    
  34 C34            6.4264    -1.4049     5.3066 C.ar    
  35 N35            8.0904    -4.6802     5.1239 N.am    
  36 C36            9.0166    -5.2271     4.3119 C.2     
  37 C37            9.8096    -6.4234     4.7714 C.3     
  38 O38            9.2120    -4.7565     3.2112 O.2     
  39 O39           -1.6115     2.0713     0.8901 O.3     
  40 H40           -1.4511    -0.5351     1.0846 H       
  41 H41            0.5998    -1.8618     0.8455 H       
  42 H42            2.7537    -0.7631     0.3940 H       
  43 H43            3.8231     1.4422    -0.3744 H       
  44 H44            4.1163     3.7129     0.1388 H       
  45 H45            1.2610     5.9546     0.5006 H       
  46 H46            3.0270     5.8523     0.6986 H       
  47 H47            0.2513     5.8723    -1.7059 H       
  48 H48            0.5460     6.3004    -4.1127 H       
  49 H49            2.8090     6.3926    -5.0788 H       
  50 H50            4.7774     6.0574    -3.6379 H       
  51 H51            4.4831     5.6376    -1.2295 H       
  52 H52            2.6079     5.0816     2.4943 H       
  53 H53            3.0317     5.0065     4.9176 H       
  54 H54            4.4949     1.2838     2.0387 H       
  55 H55            2.7096     4.2680     6.8511 H       
  56 H56            4.0406     4.0072     8.0038 H       
  57 H57            4.2743     5.0793     6.6022 H       
  58 H58            6.0488     1.2029     5.1163 H       
  59 H59            4.4844     0.3911     5.3650 H       
  60 H60            6.1941    -1.9887     1.9838 H       
  61 H61            7.3675    -4.0428     2.6617 H       
  62 H62            7.3297    -2.7203     6.7275 H       
  63 H63            6.1640    -0.6629     6.0461 H       
  64 H64            7.8862    -5.0962     5.9761 H       
  65 H65            9.4975    -6.7013     5.7781 H       
  66 H66            9.6337    -7.2583     4.0930 H       
  67 H67           10.8711    -6.1760     4.7754 H       
  68 H68           -1.7977     2.3550     1.7955 H       
@<TRIPOS>BOND
   1    1    2 ar
   2    1    6 ar
   3    1   39 1
   4    2    3 ar
   5    2   40 1
   6    3    4 ar
   7    3   41 1
   8    4    5 ar
   9    4   42 1
  10    5    7 1
  11    5    6 ar
  12    6   10 1
  13    7    8 1
  14    7   43 1
  15    8    9 1
  16    8   18 1
  17    8   44 1
  18    9   10 am
  19    9   11 1
  20   10   19 2
  21   11   12 1
  22   11   45 1
  23   11   46 1
  24   12   13 ar
  25   12   17 ar
  26   13   14 ar
  27   13   47 1
  28   14   15 ar
  29   14   48 1
  30   15   16 ar
  31   15   49 1
  32   16   17 ar
  33   16   50 1
  34   17   51 1
  35   18   20 ar
  36   18   24 ar
  37   20   21 ar
  38   20   52 1
  39   21   22 ar
  40   21   53 1
  41   22   23 ar
  42   22   25 1
  43   23   24 ar
  44   23   27 1
  45   24   54 1
  46   25   26 1
  47   26   55 1
  48   26   56 1
  49   26   57 1
  50   27   28 1
  51   27   58 1
  52   27   59 1
  53   28   29 1
  54   29   30 ar
  55   29   34 ar
  56   30   31 ar
  57   30   60 1
  58   31   32 ar
  59   31   61 1
  60   32   33 ar
  61   32   35 1
  62   33   34 ar
  63   33   62 1
  64   34   63 1
  65   35   36 am
  66   35   64 1
  67   36   37 1
  68   36   38 2
  69   37   65 1
  70   37   66 1
  71   37   67 1
  72   39   68 1

#	End of record

