#	Name: ASD01814407
#	Creating user name:	WinNT
#	Creation time:	15. 06. 2019 19:32

#	Modifying user name:	WinNT
#	Modification time:	15. 06. 2019 19:32

#	Program:	/corina/corina34_cracker 3.40 0067  02.08.2006

@<TRIPOS>MOLECULE
ASD01814407
  57   62    0    0    0
SMALL
NO_CHARGES


@<TRIPOS>ATOM
   1 C1            -0.0167     1.3819     0.0096 C.ar    
   2 C2             0.0021    -0.0041     0.0020 C.ar    
   3 C3             1.1970    -0.6936    -0.0126 C.ar    
   4 C4             2.3990     0.0034    -0.0203 C.ar    
   5 C5             2.3751     1.4118    -0.0130 C.ar    
   6 C6             1.1661     2.0940     0.0022 C.ar    
   7 N7             3.6102    -0.6577    -0.0345 N.pl3   
   8 N8             4.7455    -0.0610    -0.0416 N.2     
   9 C9             4.8827     1.2395    -0.0363 C.2     
  10 C10            3.6768     2.1037    -0.0217 C.2     
  11 C11            6.0122     2.1720    -0.0422 C.2     
  12 N12            5.4770     3.4118    -0.0314 N.am    
  13 N13            4.0818     3.3389    -0.0194 N.2     
  14 C14            3.5986    -2.1226    -0.0412 C.3     
  15 C15            3.5816    -2.6183    -1.4643 C.ar    
  16 C16            4.7713    -2.8581    -2.1366 C.ar    
  17 C17            4.7121    -3.3133    -3.4427 C.ar    
  18 C18            3.4668    -3.5139    -4.0337 C.ar    
  19 N19            2.3520    -3.2721    -3.3561 N.ar    
  20 C20            2.3800    -2.8440    -2.1106 C.ar    
  21 C21            3.3863    -4.0013    -5.4325 C.ar    
  22 O22            7.1978     1.8862    -0.0541 O.2     
  23 C23            6.2152     4.6009    -0.0321 C.ar    
  24 C24            7.1592     4.8334    -1.0238 C.ar    
  25 C25            7.8860     6.0080    -1.0216 C.ar    
  26 C26            7.6749     6.9515    -0.0332 C.ar    
  27 C27            6.7355     6.7230     0.9560 C.ar    
  28 C28            6.0012     5.5537     0.9560 C.ar    
  29 C29            4.9778     5.3056     2.0341 C.3     
  30 C30            4.5411    -4.3588    -6.1251 C.ar    
  31 N31            4.4709    -4.7919    -7.3673 N.ar    
  32 C32            3.3198    -4.9049    -8.0011 C.ar    
  33 C33            2.1291    -4.5700    -7.3821 C.ar    
  34 C34            2.1501    -4.1150    -6.0751 C.ar    
  35 C35            3.3016    -5.4063    -9.4222 C.3     
  36 H36           -0.9605     1.9069     0.0169 H       
  37 H37           -0.9294    -0.5505     0.0080 H       
  38 H38            1.1981    -1.7735    -0.0177 H       
  39 H39            1.1510     3.1739     0.0077 H       
  40 H40            4.4903    -2.4954     0.4627 H       
  41 H41            2.7105    -2.4813     0.4791 H       
  42 H42            5.7223    -2.6930    -1.6521 H       
  43 H43            5.6187    -3.5099    -3.9957 H       
  44 H44            1.4521    -2.6577    -1.5903 H       
  45 H45            7.3250     4.0965    -1.7958 H       
  46 H46            8.6203     6.1894    -1.7925 H       
  47 H47            8.2451     7.8688    -0.0332 H       
  48 H48            6.5730     7.4620     1.7266 H       
  49 H49            4.0119     5.6974     1.7153 H       
  50 H50            4.8934     4.2341     2.2152 H       
  51 H51            5.2880     5.8058     2.9515 H       
  52 H52            5.5025    -4.2799    -5.6394 H       
  53 H53            1.1927    -4.6664    -7.9115 H       
  54 H54            1.2354    -3.8465    -5.5675 H       
  55 H55            3.2039    -6.4919    -9.4232 H       
  56 H56            2.4577    -4.9650    -9.9524 H       
  57 H57            4.2301    -5.1246    -9.9187 H       
@<TRIPOS>BOND
   1    1    2 ar
   2    1    6 ar
   3    1   36 1
   4    2    3 ar
   5    2   37 1
   6    3    4 ar
   7    3   38 1
   8    4    5 ar
   9    4    7 1
  10    5    6 ar
  11    5   10 1
  12    6   39 1
  13    7    8 1
  14    7   14 1
  15    8    9 2
  16    9   10 1
  17    9   11 1
  18   10   13 2
  19   11   12 am
  20   11   22 2
  21   12   13 1
  22   12   23 1
  23   14   15 1
  24   14   40 1
  25   14   41 1
  26   15   16 ar
  27   15   20 ar
  28   16   17 ar
  29   16   42 1
  30   17   18 ar
  31   17   43 1
  32   18   19 ar
  33   18   21 1
  34   19   20 ar
  35   20   44 1
  36   21   30 ar
  37   21   34 ar
  38   23   24 ar
  39   23   28 ar
  40   24   25 ar
  41   24   45 1
  42   25   26 ar
  43   25   46 1
  44   26   27 ar
  45   26   47 1
  46   27   28 ar
  47   27   48 1
  48   28   29 1
  49   29   49 1
  50   29   50 1
  51   29   51 1
  52   30   31 ar
  53   30   52 1
  54   31   32 ar
  55   32   33 ar
  56   32   35 1
  57   33   34 ar
  58   33   53 1
  59   34   54 1
  60   35   55 1
  61   35   56 1
  62   35   57 1

#	End of record

