#	Name: ASD05060042
#	Creating user name:	WinNT
#	Creation time:	15. 06. 2019 20:56

#	Modifying user name:	WinNT
#	Modification time:	15. 06. 2019 20:56

#	Program:	/corina/corina34_cracker 3.40 0067  02.08.2006

@<TRIPOS>MOLECULE
ASD05060042
  28   29    0    0    0
SMALL
NO_CHARGES


@<TRIPOS>ATOM
   1 C1            -0.0774     1.2882    -0.0492 C.2     
   2 N2            -0.0358    -0.0152     0.0058 N.2     
   3 C3             1.2210    -0.4336    -0.2154 C.2     
   4 C4             2.0009     0.6978    -0.4199 C.2     
   5 N5             1.1522     1.7707    -0.3088 N.pl3   
   6 C6             3.4448     0.7378    -0.6988 C.2     
   7 O7             4.0788    -0.2966    -0.7701 O.2     
   8 O8             4.0648     1.9220    -0.8752 O.3     
   9 C9             1.6876    -1.8363    -0.2372 C.2     
  10 N10            0.8147    -2.8403    -0.0215 N.am    
  11 O11            2.8586    -2.0842    -0.4497 O.2     
  12 C12            1.2345    -4.1689    -0.1382 C.ar    
  13 C13            2.5169    -4.5306     0.2542 C.ar    
  14 C14            2.9283    -5.8439     0.1381 C.ar    
  15 C15            2.0650    -6.7983    -0.3682 C.ar    
  16 C16            0.7878    -6.4414    -0.7602 C.ar    
  17 C17            0.3682    -5.1310    -0.6413 C.ar    
  18 N18            2.5093    -8.2049    -0.4912 N.pl3   
  19 O19            3.6341    -8.5206    -0.1468 O.2     
  20 O20            1.7500    -9.0465    -0.9370 O.2     
  21 H21           -0.9648     1.8883     0.0880 H       
  22 H22            1.3941     2.7055    -0.4004 H       
  23 H23            5.0144     1.8977    -1.0561 H       
  24 H24           -0.1048    -2.6412     0.2147 H       
  25 H25            3.1917    -3.7857     0.6493 H       
  26 H26            3.9253    -6.1258     0.4426 H       
  27 H27            0.1162    -7.1891    -1.1555 H       
  28 H28           -0.6310    -4.8537    -0.9435 H       
@<TRIPOS>BOND
   1    1    2 2
   2    1    5 1
   3    1   21 1
   4    2    3 1
   5    3    4 2
   6    3    9 1
   7    4    5 1
   8    4    6 1
   9    5   22 1
  10    6    7 2
  11    6    8 1
  12    8   23 1
  13    9   10 am
  14    9   11 2
  15   10   12 1
  16   10   24 1
  17   12   13 ar
  18   12   17 ar
  19   13   14 ar
  20   13   25 1
  21   14   15 ar
  22   14   26 1
  23   15   16 ar
  24   15   18 1
  25   16   17 ar
  26   16   27 1
  27   17   28 1
  28   18   19 2
  29   18   20 2

#	End of record

