#	Name: ASD01230415
#	Creating user name:	WinNT
#	Creation time:	15. 06. 2019 19:14

#	Modifying user name:	WinNT
#	Modification time:	15. 06. 2019 19:14

#	Program:	/corina/corina34_cracker 3.40 0067  02.08.2006

@<TRIPOS>MOLECULE
ASD01230415
  49   52    0    0    0
SMALL
NO_CHARGES


@<TRIPOS>ATOM
   1 S1             1.9565    -4.0156    -3.1749 S.o2    
   2 N2             1.3089    -3.5249    -1.7328 N.am    
   3 C3             1.9352    -2.7011    -0.9351 C.2     
   4 N4             3.1625    -2.1488    -1.1687 N.pl3   
   5 C5             3.9920    -2.4458    -2.3357 C.3     
   6 C6             3.1172    -2.6707    -3.5732 C.3     
   7 C7             1.2446    -2.3420     0.3270 C.2     
   8 N8             1.8100    -1.4925     1.1549 N.2     
   9 C9             2.9934    -0.9500     0.8736 C.2     
  10 C10            3.6664    -1.2563    -0.2510 C.2     
  11 C11            3.5958     0.0352     1.8419 C.3     
  12 C12           -0.0707    -2.9350     0.6515 C.ar    
  13 C13           -0.3772    -4.2306     0.2309 C.ar    
  14 C14           -1.6041    -4.7798     0.5351 C.ar    
  15 C15           -2.5351    -4.0461     1.2591 C.ar    
  16 C16           -2.2342    -2.7567     1.6790 C.ar    
  17 C17           -1.0071    -2.2029     1.3840 C.ar    
  18 O18           -3.7433    -4.5908     1.5571 O.3     
  19 C19           -4.6979    -3.7415     2.1970 C.3     
  20 C20           -6.1111    -4.2435     1.8943 C.3     
  21 C21           -7.1331    -3.3341     2.5795 C.3     
  22 C22           -6.8986    -3.3517     4.0913 C.3     
  23 C23           -5.4854    -2.8496     4.3940 C.3     
  24 C24           -4.4634    -3.7590     3.7089 C.3     
  25 O25            2.6581    -5.2113    -2.8631 O.2     
  26 O26            0.8587    -4.0178    -4.0772 O.2     
  27 H27            4.6669    -1.6098    -2.5194 H       
  28 H28            4.5778    -3.3442    -2.1413 H       
  29 H29            3.7399    -2.9567    -4.4209 H       
  30 H30            2.5647    -1.7608    -3.8077 H       
  31 H31            4.6233    -0.7914    -0.4370 H       
  32 H32            2.9248     0.1671     2.6906 H       
  33 H33            4.5563    -0.3418     2.1933 H       
  34 H34            3.7421     0.9927     1.3421 H       
  35 H35            0.3460    -4.8016    -0.3325 H       
  36 H36           -1.8421    -5.7818     0.2098 H       
  37 H37           -2.9609    -2.1891     2.2411 H       
  38 H38           -0.7718    -1.2022     1.7152 H       
  39 H39           -4.5862    -2.7235     1.8238 H       
  40 H40           -6.2781    -4.2310     0.8172 H       
  41 H41           -6.2227    -5.2615     2.2675 H       
  42 H42           -7.0214    -2.3161     2.2062 H       
  43 H43           -8.1399    -3.6918     2.3638 H       
  44 H44           -7.6267    -2.7038     4.5794 H       
  45 H45           -7.0102    -4.3697     4.4645 H       
  46 H46           -5.3737    -1.8316     4.0208 H       
  47 H47           -5.3183    -2.8621     5.4711 H       
  48 H48           -4.5750    -4.7770     4.0821 H       
  49 H49           -3.4566    -3.4013     3.9245 H       
@<TRIPOS>BOND
   1    1    2 am
   2    1    6 1
   3    1   25 2
   4    1   26 2
   5    2    3 2
   6    3    4 1
   7    3    7 1
   8    4    5 1
   9    4   10 1
  10    5    6 1
  11    5   27 1
  12    5   28 1
  13    6   29 1
  14    6   30 1
  15    7    8 2
  16    7   12 1
  17    8    9 1
  18    9   10 2
  19    9   11 1
  20   10   31 1
  21   11   32 1
  22   11   33 1
  23   11   34 1
  24   12   13 ar
  25   12   17 ar
  26   13   14 ar
  27   13   35 1
  28   14   15 ar
  29   14   36 1
  30   15   16 ar
  31   15   18 1
  32   16   17 ar
  33   16   37 1
  34   17   38 1
  35   18   19 1
  36   19   20 1
  37   19   24 1
  38   19   39 1
  39   20   21 1
  40   20   40 1
  41   20   41 1
  42   21   22 1
  43   21   42 1
  44   21   43 1
  45   22   23 1
  46   22   44 1
  47   22   45 1
  48   23   24 1
  49   23   46 1
  50   23   47 1
  51   24   48 1
  52   24   49 1

#	End of record

