#	Name: ASD01913687
#	Creating user name:	WinNT
#	Creation time:	15. 06. 2019 20:02

#	Modifying user name:	WinNT
#	Modification time:	15. 06. 2019 20:02

#	Program:	/corina/corina34_cracker 3.40 0067  02.08.2006

@<TRIPOS>MOLECULE
ASD01913687
  47   48    0    0    0
SMALL
NO_CHARGES


@<TRIPOS>ATOM
   1 C1            -0.0187     1.5258     0.0104 C.3     
   2 C2             0.0021    -0.0041     0.0020 C.3     
   3 O3            -1.3386    -0.4987     0.0122 O.3     
   4 C4            -1.4978    -1.8443     0.0065 C.ar    
   5 N5            -0.4305    -2.6277    -0.0079 N.ar    
   6 C6            -0.5333    -3.9403    -0.0140 C.ar    
   7 C7            -1.7856    -4.5552    -0.0058 C.ar    
   8 C8            -2.9369    -3.7537     0.0095 C.ar    
   9 C9            -2.7809    -2.3831     0.0215 C.ar    
  10 C10           -1.8976    -6.0271    -0.0136 C.2     
  11 N11           -0.7849    -6.7875    -0.0288 N.am    
  12 O12           -2.9935    -6.5535    -0.0064 O.2     
  13 C13           -0.8960    -8.2482    -0.0365 C.3     
  14 C14            1.4167     2.0553    -0.0004 C.3     
  15 C15            1.3960     3.5852     0.0080 C.3     
  16 C16            0.3071    -8.8093    -0.6333 C.3     
  17 C17            0.2471   -10.3466    -0.7428 C.3     
  18 C18            0.5825   -10.9349     0.6010 C.3     
  19 C19           -0.6723   -11.2320     1.4442 C.3     
  20 C20           -1.7293   -10.1146     1.3565 C.3     
  21 C21           -1.1197    -8.7398     1.4082 C.3     
  22 H22           -0.5459     1.8868    -0.8726 H       
  23 H23           -0.5289     1.8773     0.9072 H       
  24 H24            0.5123    -0.3556    -0.8948 H       
  25 H25            0.5293    -0.3651     0.8851 H       
  26 H26            0.3603    -4.5467    -0.0258 H       
  27 H27           -3.9209    -4.1987     0.0161 H       
  28 H28           -3.6450    -1.7353     0.0338 H       
  29 H29            0.0895    -6.3675    -0.0346 H       
  30 H30           -1.7563    -8.5332    -0.6421 H       
  31 H31            1.9439     1.6943     0.8826 H       
  32 H32            1.9269     1.7038    -0.8972 H       
  33 H33            0.8688     3.9463    -0.8751 H       
  34 H34            0.8858     3.9367     0.9048 H       
  35 H35            2.4186     3.9625     0.0002 H       
  36 H36            0.4352    -8.3891    -1.6309 H       
  37 H37            1.1663    -8.5321    -0.0226 H       
  38 H38           -0.7565   -10.6539    -1.0369 H       
  39 H39            0.9698   -10.6894    -1.4832 H       
  40 H40            1.1349   -11.8626     0.4519 H       
  41 H41            1.2151   -10.2336     1.1451 H       
  42 H42           -1.1168   -12.1645     1.0965 H       
  43 H43           -0.3751   -11.3537     2.4858 H       
  44 H44           -2.2789   -10.2217     0.4212 H       
  45 H45           -2.4266   -10.2227     2.1873 H       
  46 H46           -0.1650    -8.7822     1.9325 H       
  47 H47           -1.7952    -8.0590     1.9262 H       
@<TRIPOS>BOND
   1    1    2 1
   2    1   14 1
   3    1   22 1
   4    1   23 1
   5    2    3 1
   6    2   24 1
   7    2   25 1
   8    3    4 1
   9    4    5 ar
  10    4    9 ar
  11    5    6 ar
  12    6    7 ar
  13    6   26 1
  14    7    8 ar
  15    7   10 1
  16    8    9 ar
  17    8   27 1
  18    9   28 1
  19   10   11 am
  20   10   12 2
  21   11   13 1
  22   11   29 1
  23   13   16 1
  24   13   21 1
  25   13   30 1
  26   14   15 1
  27   14   31 1
  28   14   32 1
  29   15   33 1
  30   15   34 1
  31   15   35 1
  32   16   17 1
  33   16   36 1
  34   16   37 1
  35   17   18 1
  36   17   38 1
  37   17   39 1
  38   18   19 1
  39   18   40 1
  40   18   41 1
  41   19   20 1
  42   19   42 1
  43   19   43 1
  44   20   21 1
  45   20   44 1
  46   20   45 1
  47   21   46 1
  48   21   47 1

#	End of record

