#	Name: ASD07480009
#	Creating user name:	WinNT
#	Creation time:	15. 06. 2019 21:11

#	Modifying user name:	WinNT
#	Modification time:	15. 06. 2019 21:11

#	Program:	/corina/corina34_cracker 3.40 0067  02.08.2006

@<TRIPOS>MOLECULE
ASD07480009
  45   48    0    0    0
SMALL
NO_CHARGES


@<TRIPOS>ATOM
   1 C1             0.4585     0.9134     0.9240 C.2     
   2 C2             0.3586    -0.4659     0.6690 C.2     
   3 N3             1.4329    -1.2215     0.6489 N.2     
   4 N4             2.6958    -0.6681     0.8807 N.pl3   
   5 C5             2.8261     0.6666     1.1311 C.2     
   6 C6             1.6754     1.4772     1.1529 C.2     
   7 C7             3.9604    -1.2114     0.9185 C.2     
   8 C8             4.8297    -0.1658     1.1958 C.2     
   9 N9             4.1165     0.9413     1.3165 N.2     
  10 N10           -0.8895    -1.0354     0.4362 N.pl3   
  11 C11           -1.1361    -2.4360     0.0633 C.3     
  12 C12           -2.1839    -0.3359     0.5290 C.3     
  13 C13           -3.1398    -1.1486    -0.3796 C.3     
  14 C14           -2.6602    -2.6015    -0.1135 C.3     
  15 C15           -0.6445    -3.3512     1.1550 C.ar    
  16 C16           -0.3469    -4.6755     0.8788 C.ar    
  17 N17            0.0848    -5.4831     1.8300 N.ar    
  18 C18            0.2492    -5.0673     3.0709 C.ar    
  19 C19           -0.0284    -3.7578     3.4211 C.ar    
  20 C20           -0.4790    -2.8772     2.4461 C.ar    
  21 F21           -0.5005    -5.1463    -0.3782 F       
  22 F22            0.1417    -3.3396     4.6945 F       
  23 C23            4.3170    -2.6134     0.7085 C.2     
  24 N24            5.6082    -2.9630     0.5442 N.am    
  25 O25            3.4475    -3.4654     0.6822 O.2     
  26 C26            5.9653    -4.3677     0.3306 C.3     
  27 C27            6.6547    -1.9383     0.5790 C.3     
  28 H28           -0.4307     1.5263     0.9338 H       
  29 H29            1.7578     2.5361     1.3489 H       
  30 H30            5.9023    -0.2427     1.2958 H       
  31 H31           -0.6250    -2.6663    -0.8715 H       
  32 H32           -2.5441    -0.3393     1.5578 H       
  33 H33           -2.0899     0.6863     0.1625 H       
  34 H34           -4.1771    -1.0180    -0.0712 H       
  35 H35           -3.0081    -0.8773    -1.4270 H       
  36 H36           -2.8825    -3.2432    -0.9661 H       
  37 H37           -3.1126    -2.9965     0.7961 H       
  38 H38            0.6042    -5.7570     3.8224 H       
  39 H39           -0.7031    -1.8494     2.6905 H       
  40 H40            5.9599    -4.5856    -0.7374 H       
  41 H41            6.9601    -4.5552     0.7347 H       
  42 H42            5.2415    -5.0074     0.8356 H       
  43 H43            6.9233    -1.7284     1.6143 H       
  44 H44            7.5324    -2.2970     0.0415 H       
  45 H45            6.2868    -1.0272     0.1071 H       
@<TRIPOS>BOND
   1    1    2 1
   2    1    6 2
   3    1   28 1
   4    2    3 2
   5    2   10 1
   6    3    4 1
   7    4    5 1
   8    4    7 1
   9    5    6 1
  10    5    9 2
  11    6   29 1
  12    7    8 2
  13    7   23 1
  14    8    9 1
  15    8   30 1
  16   10   11 1
  17   10   12 1
  18   11   15 1
  19   11   14 1
  20   11   31 1
  21   12   13 1
  22   12   32 1
  23   12   33 1
  24   13   14 1
  25   13   34 1
  26   13   35 1
  27   14   36 1
  28   14   37 1
  29   15   16 ar
  30   15   20 ar
  31   16   17 ar
  32   16   21 1
  33   17   18 ar
  34   18   19 ar
  35   18   38 1
  36   19   20 ar
  37   19   22 1
  38   20   39 1
  39   23   24 am
  40   23   25 2
  41   24   26 1
  42   24   27 1
  43   26   40 1
  44   26   41 1
  45   26   42 1
  46   27   43 1
  47   27   44 1
  48   27   45 1

#	End of record

