#	Name: ASD04880717
#	Creating user name:	WinNT
#	Creation time:	15. 06. 2019 20:53

#	Modifying user name:	WinNT
#	Modification time:	15. 06. 2019 20:53

#	Program:	/corina/corina34_cracker 3.40 0067  02.08.2006

@<TRIPOS>MOLECULE
ASD04880717
  88   93    0    0    0
SMALL
NO_CHARGES


@<TRIPOS>ATOM
   1 C1            -1.0358     1.4758     3.1177 C.ar    
   2 C2            -1.0792     0.0953     3.1339 C.ar    
   3 C3            -0.3741    -0.6311     2.1922 C.ar    
   4 C4             0.3768     0.0212     1.2312 C.ar    
   5 C5             0.4242     1.4011     1.2091 C.ar    
   6 C6            -0.2831     2.1341     2.1538 C.ar    
   7 N7            -0.2374     3.5300     2.1343 N.3     
   8 C8            -0.8408     4.0595     0.9034 C.3     
   9 C9            -0.8430     5.5891     0.9565 C.3     
  10 N10            0.5356     6.0731     1.1143 N.3     
  11 C11            1.1390     5.5436     2.3452 C.3     
  12 C12            1.1411     4.0140     2.2920 C.3     
  13 C13            0.5811     7.4647     1.0948 C.ar    
  14 C14            0.9379     8.1607     2.2403 C.ar    
  15 C15            0.9849     9.5460     2.2251 C.ar    
  16 C16            0.6704    10.2435     1.0467 C.ar    
  17 C17            0.3112     9.5350    -0.1058 C.ar    
  18 C18            0.2725     8.1561    -0.0820 C.ar    
  19 C19           -1.8093     2.2669     4.1410 C.3     
  20 N20           -0.0824     7.4456    -1.2387 N.am    
  21 C21           -0.8805     8.0171    -2.1622 C.2     
  22 C22           -1.3291     7.2394    -3.3314 C.2     
  23 C23           -2.1309     7.6825    -4.3379 C.2     
  24 O24           -2.2878     6.6590    -5.1926 O.3     
  25 C25           -1.5979     5.6104    -4.7222 C.2     
  26 N26           -1.0145     5.9454    -3.6105 N.2     
  27 O27           -1.2306     9.1746    -2.0310 O.2     
  28 C28            0.7181    11.7137     1.0244 C.2     
  29 N29            1.3422    10.2438     3.3738 N.3     
  30 C30            0.4120     9.9577     4.4742 C.3     
  31 C31            2.7265     9.9436     3.7630 C.3     
  32 O32            1.0301    12.3275     2.0272 O.2     
  33 N33            0.4160    12.3807    -0.1072 N.am    
  34 C34            0.4634    13.8447    -0.1294 C.3     
  35 C35            0.0796    14.3463    -1.5230 C.3     
  36 C36            0.1292    15.8754    -1.5462 C.3     
  37 N37           -0.2383    16.3556    -2.8806 N.am    
  38 C38           -1.6095    16.6699    -3.2990 C.3     
  39 C39           -1.5717    16.7038    -4.8429 C.3     
  40 C40           -0.0892    17.0494    -5.1145 C.3     
  41 C41            0.6377    16.5706    -3.8772 C.2     
  42 O42            1.8361    16.4026    -3.7969 O.2     
  43 C43           -1.5083     4.2582    -5.3815 C.3     
  44 C44           -2.8133     3.4887    -5.5954 C.3     
  45 C45           -2.0921     4.1184    -6.7888 C.3     
  46 H46           -1.6643    -0.4172     3.8832 H       
  47 H47           -0.4094    -1.7104     2.2074 H       
  48 H48            0.9270    -0.5492     0.4976 H       
  49 H49            1.0110     1.9099     0.4586 H       
  50 H50           -0.2618     3.7264     0.0420 H       
  51 H51           -1.8651     3.6972     0.8155 H       
  52 H52           -1.2637     5.9845     0.0320 H       
  53 H53           -1.4446     5.9227     1.8021 H       
  54 H54            2.1632     5.9059     2.4331 H       
  55 H55            0.5599     5.8767     3.2065 H       
  56 H56            1.5618     3.6186     3.2166 H       
  57 H57            1.7427     3.6804     1.4465 H       
  58 H58            1.1789     7.6227     3.1452 H       
  59 H59            0.0683    10.0671    -1.0138 H       
  60 H60           -1.2151     2.3647     5.0496 H       
  61 H61           -2.0306     3.2573     3.7432 H       
  62 H62           -2.7416     1.7508     4.3704 H       
  63 H63            0.2466     6.5431    -1.3736 H       
  64 H64           -2.5595     8.6694    -4.4312 H       
  65 H65            0.4790     8.9031     4.7416 H       
  66 H66            0.6725    10.5689     5.3383 H       
  67 H67           -0.6056    10.1887     4.1592 H       
  68 H68            3.3941    10.1643     2.9301 H       
  69 H69            3.0030    10.5547     4.6221 H       
  70 H70            2.8095     8.8889     4.0255 H       
  71 H71            0.1671    11.8913    -0.9069 H       
  72 H72           -0.2367    14.2421     0.6054 H       
  73 H73            1.4723    14.1793     0.1120 H       
  74 H74            0.7798    13.9489    -2.2578 H       
  75 H75           -0.9293    14.0118    -1.7644 H       
  76 H76           -0.5710    16.2728    -0.8114 H       
  77 H77            1.1381    16.2099    -1.3047 H       
  78 H78           -2.2955    15.8957    -2.9553 H       
  79 H79           -1.9099    17.6419    -2.9076 H       
  80 H80           -1.8282    15.7303    -5.2609 H       
  81 H81           -2.2308    17.4798    -5.2323 H       
  82 H82            0.2695    16.5227    -5.9989 H       
  83 H83            0.0360    18.1256    -5.2334 H       
  84 H84           -0.6152     3.6791    -5.1470 H       
  85 H85           -2.7786     2.4032    -5.5020 H       
  86 H86           -3.7366     3.9604    -5.2593 H       
  87 H87           -2.5410     5.0044    -7.2378 H       
  88 H88           -1.5829     3.4473    -7.4805 H       
@<TRIPOS>BOND
   1    1    2 ar
   2    1    6 ar
   3    1   19 1
   4    2    3 ar
   5    2   46 1
   6    3    4 ar
   7    3   47 1
   8    4    5 ar
   9    4   48 1
  10    5    6 ar
  11    5   49 1
  12    6    7 1
  13    7    8 1
  14    7   12 1
  15    8    9 1
  16    8   50 1
  17    8   51 1
  18    9   10 1
  19    9   52 1
  20    9   53 1
  21   10   11 1
  22   10   13 1
  23   11   12 1
  24   11   54 1
  25   11   55 1
  26   12   56 1
  27   12   57 1
  28   13   14 ar
  29   13   18 ar
  30   14   15 ar
  31   14   58 1
  32   15   16 ar
  33   15   29 1
  34   16   17 ar
  35   16   28 1
  36   17   18 ar
  37   17   59 1
  38   18   20 1
  39   19   60 1
  40   19   61 1
  41   19   62 1
  42   20   21 am
  43   20   63 1
  44   21   22 1
  45   21   27 2
  46   22   23 2
  47   22   26 1
  48   23   24 1
  49   23   64 1
  50   24   25 1
  51   25   26 2
  52   25   43 1
  53   28   32 2
  54   28   33 am
  55   29   30 1
  56   29   31 1
  57   30   65 1
  58   30   66 1
  59   30   67 1
  60   31   68 1
  61   31   69 1
  62   31   70 1
  63   33   34 1
  64   33   71 1
  65   34   35 1
  66   34   72 1
  67   34   73 1
  68   35   36 1
  69   35   74 1
  70   35   75 1
  71   36   37 1
  72   36   76 1
  73   36   77 1
  74   37   38 1
  75   37   41 am
  76   38   39 1
  77   38   78 1
  78   38   79 1
  79   39   40 1
  80   39   80 1
  81   39   81 1
  82   40   41 1
  83   40   82 1
  84   40   83 1
  85   41   42 2
  86   43   44 1
  87   43   45 1
  88   43   84 1
  89   44   45 1
  90   44   85 1
  91   44   86 1
  92   45   87 1
  93   45   88 1

#	End of record

