#	Name: ASD05872013
#	Creating user name:	WinNT
#	Creation time:	15. 06. 2019 21:04

#	Modifying user name:	WinNT
#	Modification time:	15. 06. 2019 21:04

#	Program:	/corina/corina34_cracker 3.40 0067  02.08.2006

@<TRIPOS>MOLECULE
ASD05872013
  36   37    0    0    0
SMALL
NO_CHARGES


@<TRIPOS>ATOM
   1 C1            -0.0168     1.3909     0.0097 C.ar    
   2 C2             0.0021    -0.0041     0.0020 C.ar    
   3 C3            -1.1845    -0.7121     0.0095 C.ar    
   4 C4            -2.3952    -0.0265     0.0248 C.ar    
   5 C5            -2.4171     1.3754     0.0325 C.ar    
   6 C6            -1.2170     2.0760     0.0306 C.ar    
   7 C7            -3.8128    -0.4423     0.0361 C.2     
   8 C8            -4.5353     0.7114     0.0492 C.2     
   9 O9            -3.7097     1.7643     0.0470 O.3     
  10 C10           -6.0401     0.7908     0.0644 C.3     
  11 O11            1.1546     2.0819     0.0022 O.3     
  12 C12            1.0667     3.5081     0.0107 C.3     
  13 O13            1.1896    -0.6677    -0.0133 O.3     
  14 S14            1.7437    -0.9771     1.3700 S.o2    
  15 O15            3.1397    -1.3444     1.1901 O.co2   
  16 O16            1.5955     0.2341     2.1618 O.co2   
  17 O17            0.9541    -2.0770     1.9018 O.co2   
  18 O18           -6.4745    -3.7630    -0.6748 O.3     
  19 C19           -7.3613    -3.3497    -1.7163 C.3     
  20 C20           -4.3345    -1.8156     0.0337 C.2     
  21 O21           -4.5403    -2.3895     1.0855 O.2     
  22 O22           -4.5850    -2.4395    -1.1349 O.3     
  23 C23           -5.0991    -3.7954    -1.0613 C.3     
  24 H24           -1.1722    -1.7920     0.0033 H       
  25 H25           -1.2222     3.1560     0.0365 H       
  26 H26           -6.3928     0.8047     1.0957 H       
  27 H27           -6.3611     1.7014    -0.4416 H       
  28 H28           -6.4550    -0.0761    -0.4498 H       
  29 H29            0.5400     3.8343     0.9075 H       
  30 H30            2.0700     3.9341     0.0034 H       
  31 H31            0.5230     3.8439    -0.8723 H       
  32 H32           -7.0951    -2.3442    -2.0425 H       
  33 H33           -7.2797    -4.0380    -2.5575 H       
  34 H34           -8.3855    -3.3514    -1.3434 H       
  35 H35           -4.5281    -4.3611    -0.3250 H       
  36 H36           -5.0071    -4.2724    -2.0371 H       
@<TRIPOS>BOND
   1    1    2 ar
   2    1   11 1
   3    1    6 ar
   4    2    3 ar
   5    2   13 1
   6    3    4 ar
   7    3   24 1
   8    4    5 ar
   9    4    7 1
  10    5    6 ar
  11    5    9 1
  12    6   25 1
  13    7    8 2
  14    7   20 1
  15    8    9 1
  16    8   10 1
  17   10   26 1
  18   10   27 1
  19   10   28 1
  20   11   12 1
  21   12   29 1
  22   12   30 1
  23   12   31 1
  24   13   14 1
  25   14   15 ar
  26   14   16 ar
  27   14   17 ar
  28   18   19 1
  29   18   23 1
  30   19   32 1
  31   19   33 1
  32   19   34 1
  33   20   21 2
  34   20   22 1
  35   22   23 1
  36   23   35 1
  37   23   36 1

#	End of record

