#	Name: ASD00841162
#	Creating user name:	WinNT
#	Creation time:	15. 06. 2019 18:41

#	Modifying user name:	WinNT
#	Modification time:	15. 06. 2019 18:41

#	Program:	/corina/corina34_cracker 3.40 0067  02.08.2006

@<TRIPOS>MOLECULE
ASD00841162
  95  100    0    0    0
SMALL
NO_CHARGES


@<TRIPOS>ATOM
   1 F1            -0.1145    -3.1353     4.7190 F       
   2 N2            -0.0159     1.3183     0.0093 N.ar    
   3 C3             0.0021    -0.0041     0.0020 C.ar    
   4 C4             1.2069    -0.6955    -0.0132 C.ar    
   5 C5             2.3925     0.0180    -0.0207 C.ar    
   6 C6             2.3308     1.4049    -0.0127 C.ar    
   7 C7             1.0980     2.0259     0.0025 C.ar    
   8 C8             1.2224    -2.2024    -0.0209 C.3     
   9 C9             0.4763    -2.7343    -1.2260 C.2     
  10 O10            2.5880    -2.6958    -0.0097 O.3     
  11 C11            3.3814    -2.3221    -1.0313 C.2     
  12 N12            4.6600    -2.7452    -1.0812 N.am    
  13 O13            2.9446    -1.6033    -1.9082 O.2     
  14 C14            5.5437    -2.3488    -2.1881 C.3     
  15 C15            6.8406    -1.7851    -1.5976 C.3     
  16 N16            7.4151    -2.7627    -0.6637 N.3     
  17 C17            6.5188    -3.0021     0.4752 C.3     
  18 C18            5.2104    -3.6107    -0.0270 C.3     
  19 C19            8.7444    -2.3360    -0.2068 C.3     
  20 C20            9.2576    -3.3113     0.8562 C.3     
  21 C21           10.6672    -2.8966     1.2840 C.3     
  22 N22           11.5570    -2.9051     0.1158 N.3     
  23 C23           11.1108    -1.9417    -0.8986 C.3     
  24 C24            9.7145    -2.3278    -1.3915 C.3     
  25 C25           12.9479    -2.6467     0.5116 C.3     
  26 O26            0.7563    -2.5400    -2.3901 O.2     
  27 N27           -0.5539    -3.4626    -0.7639 N.am    
  28 C28            0.4503    -2.7460     1.1592 C.ar    
  29 C29           -0.5978    -3.4898     0.6316 C.ar    
  30 C30            0.6150    -2.6254     2.5206 C.ar    
  31 C31           -0.2720    -3.2512     3.3822 C.ar    
  32 C32           -1.3212    -3.9958     2.8677 C.ar    
  33 C33           -1.4864    -4.1167     1.5022 C.ar    
  34 Cl34          -2.4334    -4.7805     3.9451 Cl      
  35 C35           -1.0184    -5.8562    -2.0403 C.ar    
  36 C36            0.1593    -6.0200    -2.7554 C.ar    
  37 C37           -1.6963    -6.9610    -1.5607 C.ar    
  38 C38           -1.2032    -8.2307    -1.7914 C.ar    
  39 C39           -0.0255    -8.3998    -2.5062 C.ar    
  40 C40            0.6560    -7.2934    -2.9886 C.ar    
  41 O41            0.4588    -9.6491    -2.7332 O.3     
  42 O42            0.8252    -4.9334    -3.2271 O.3     
  43 C43           -0.2955   -10.7428    -2.2072 C.3     
  44 C44            2.0308    -5.1767    -3.9547 C.3     
  45 C45            2.6343    -3.8438    -4.4021 C.3     
  46 C46           13.8736    -2.9076    -0.6783 C.3     
  47 S47           -1.6464    -4.2381    -1.7372 S.o2    
  48 O48           -2.8264    -4.4041    -0.9631 O.2     
  49 O49           -1.6248    -3.5590    -2.9853 O.2     
  50 O50           -1.1673    -0.6919     0.0099 O.3     
  51 C51           -3.5777    -0.8652     0.0330 C.3     
  52 C52           -2.3720     0.0766     0.0260 C.3     
  53 H53            3.3442    -0.4925    -0.0322 H       
  54 H54            3.2375     1.9916    -0.0178 H       
  55 H55            1.0444     3.1046     0.0084 H       
  56 H56            5.7699    -3.2182    -2.8053 H       
  57 H57            5.0540    -1.5849    -2.7920 H       
  58 H58            7.5507    -1.5887    -2.4009 H       
  59 H59            6.6256    -0.8577    -1.0668 H       
  60 H60            6.9954    -3.6883     1.1753 H       
  61 H61            6.3083    -2.0578     0.9772 H       
  62 H62            4.5005    -3.6837     0.7968 H       
  63 H63            5.4017    -4.6019    -0.4381 H       
  64 H64            8.6793    -1.3346     0.2187 H       
  65 H65            8.5939    -3.2898     1.7205 H       
  66 H66            9.2846    -4.3194     0.4424 H       
  67 H67           10.6371    -1.8939     1.7103 H       
  68 H68           11.0411    -3.5974     2.0305 H       
  69 H69           11.0787    -0.9434    -0.4620 H       
  70 H70           11.8069    -1.9488    -1.7373 H       
  71 H71            9.7487    -3.3204    -1.8407 H       
  72 H72            9.3771    -1.6037    -2.1331 H       
  73 H73           13.0484    -1.6089     0.8294 H       
  74 H74           13.2199    -3.3068     1.3352 H       
  75 H75            1.4346    -2.0442     2.9168 H       
  76 H76           -2.3064    -4.6986     1.1081 H       
  77 H77           -2.6128    -6.8314    -1.0043 H       
  78 H78           -1.7343    -9.0924    -1.4150 H       
  79 H79            1.5724    -7.4229    -3.5453 H       
  80 H80            0.2001   -11.6804    -2.4588 H       
  81 H81           -0.3653   -10.6482    -1.1235 H       
  82 H82           -1.2968   -10.7341    -2.6379 H       
  83 H83            2.7413    -5.7009    -3.3157 H       
  84 H84            1.8099    -5.7875    -4.8300 H       
  85 H85            2.8552    -3.2329    -3.5268 H       
  86 H86            3.5539    -4.0294    -4.9571 H       
  87 H87            1.9237    -3.3195    -5.0411 H       
  88 H88           14.9057    -2.7158    -0.3846 H       
  89 H89           13.7732    -3.9454    -0.9960 H       
  90 H90           13.6016    -2.2475    -1.5019 H       
  91 H91           -4.4966    -0.2790     0.0452 H       
  92 H92           -3.5566    -1.4891    -0.8606 H       
  93 H93           -3.5390    -1.4986     0.9192 H       
  94 H94           -2.3931     0.7004     0.9196 H       
  95 H95           -2.4108     0.7099    -0.8602 H       
@<TRIPOS>BOND
   1    1   31 1
   2    2    3 ar
   3    2    7 ar
   4    3    4 ar
   5    3   50 1
   6    4    5 ar
   7    4    8 1
   8    5    6 ar
   9    5   53 1
  10    6    7 ar
  11    6   54 1
  12    7   55 1
  13    8    9 1
  14    8   10 1
  15    8   28 1
  16    9   26 2
  17    9   27 am
  18   10   11 1
  19   11   12 am
  20   11   13 2
  21   12   14 1
  22   12   18 1
  23   14   15 1
  24   14   56 1
  25   14   57 1
  26   15   16 1
  27   15   58 1
  28   15   59 1
  29   16   17 1
  30   16   19 1
  31   17   18 1
  32   17   60 1
  33   17   61 1
  34   18   62 1
  35   18   63 1
  36   19   20 1
  37   19   24 1
  38   19   64 1
  39   20   21 1
  40   20   65 1
  41   20   66 1
  42   21   22 1
  43   21   67 1
  44   21   68 1
  45   22   23 1
  46   22   25 1
  47   23   24 1
  48   23   69 1
  49   23   70 1
  50   24   71 1
  51   24   72 1
  52   25   46 1
  53   25   73 1
  54   25   74 1
  55   27   47 am
  56   27   29 1
  57   28   29 ar
  58   28   30 ar
  59   29   33 ar
  60   30   31 ar
  61   30   75 1
  62   31   32 ar
  63   32   33 ar
  64   32   34 1
  65   33   76 1
  66   35   36 ar
  67   35   37 ar
  68   35   47 1
  69   36   42 1
  70   36   40 ar
  71   37   38 ar
  72   37   77 1
  73   38   39 ar
  74   38   78 1
  75   39   40 ar
  76   39   41 1
  77   40   79 1
  78   41   43 1
  79   42   44 1
  80   43   80 1
  81   43   81 1
  82   43   82 1
  83   44   45 1
  84   44   83 1
  85   44   84 1
  86   45   85 1
  87   45   86 1
  88   45   87 1
  89   46   88 1
  90   46   89 1
  91   46   90 1
  92   47   48 2
  93   47   49 2
  94   50   52 1
  95   51   52 1
  96   51   91 1
  97   51   92 1
  98   51   93 1
  99   52   94 1
 100   52   95 1

#	End of record

