#	Name: ASD01813769
#	Creating user name:	WinNT
#	Creation time:	15. 06. 2019 19:31

#	Modifying user name:	WinNT
#	Modification time:	15. 06. 2019 19:31

#	Program:	/corina/corina34_cracker 3.40 0067  02.08.2006

@<TRIPOS>MOLECULE
ASD01813769
  50   53    0    0    0
SMALL
NO_CHARGES


@<TRIPOS>ATOM
   1 C1             0.0961     1.4750     0.3440 C.ar    
   2 C2             0.0783     0.0877     0.3363 C.ar    
   3 C3             1.2490    -0.6310     0.2096 C.ar    
   4 C4             2.4664     0.0381     0.0877 C.ar    
   5 C5             2.4797     1.4428     0.0960 C.ar    
   6 C6             1.2876     2.1556     0.2248 C.ar    
   7 N7             3.6441    -0.6677    -0.0385 N.pl3   
   8 C8             4.8374    -0.0726    -0.1571 C.2     
   9 C9             4.9773     1.3008    -0.1616 C.2     
  10 C10            3.7739     2.1383    -0.0338 C.2     
  11 O11            3.8440     3.3548    -0.0326 O.2     
  12 C12            6.3055     1.9162    -0.2928 C.2     
  13 O13            6.4290     3.2586    -0.2959 O.3     
  14 O14            7.2927     1.2147    -0.3986 O.2     
  15 C15            3.5871    -2.1316    -0.0427 C.3     
  16 C16            3.4445    -2.6248    -1.4595 C.ar    
  17 C17            4.5577    -2.7728    -2.2735 C.ar    
  18 N18            4.3980    -3.2081    -3.5114 N.ar    
  19 C19            3.1914    -3.5017    -3.9763 C.ar    
  20 N20            2.1072    -3.3713    -3.2242 N.ar    
  21 C21            2.1980    -2.9459    -1.9759 C.ar    
  22 F22            1.2162    -1.9816     0.2042 F       
  23 C23            3.0511    -3.9871    -5.3708 C.ar    
  24 C24            4.1787    -4.1306    -6.1776 C.ar    
  25 C25            4.0466    -4.5826    -7.4756 C.ar    
  26 C26            2.7983    -4.8941    -7.9795 C.ar    
  27 C27            1.6682    -4.7546    -7.1822 C.ar    
  28 C28            1.7930    -4.3063    -5.8758 C.ar    
  29 N29            0.4078    -5.0701    -7.6954 N.pl3   
  30 C30            0.2769    -5.5481    -9.0740 C.3     
  31 C31           -0.7831    -4.9231    -6.8549 C.3     
  32 H32           -0.8292     2.0238     0.4394 H       
  33 H33           -0.8620    -0.4351     0.4308 H       
  34 H34            1.2988     3.2355     0.2308 H       
  35 H35            5.7202    -0.6875    -0.2519 H       
  36 H36            7.3228     3.6170    -0.3846 H       
  37 H37            4.5034    -2.5321     0.3910 H       
  38 H38            2.7315    -2.4636     0.5454 H       
  39 H39            5.5429    -2.5349    -1.9006 H       
  40 H40            1.3114    -2.8421    -1.3680 H       
  41 H41            5.1561    -3.8878    -5.7874 H       
  42 H42            4.9216    -4.6926    -8.0990 H       
  43 H43            2.7004    -5.2465    -8.9957 H       
  44 H44            0.9163    -4.1975    -5.2545 H       
  45 H45            0.3544    -6.6353    -9.0906 H       
  46 H46           -0.6919    -5.2469    -9.4726 H       
  47 H47            1.0707    -5.1179    -9.6847 H       
  48 H48           -1.1884    -3.9180    -6.9718 H       
  49 H49           -1.5329    -5.6546    -7.1560 H       
  50 H50           -0.5139    -5.0871    -5.8115 H       
@<TRIPOS>BOND
   1    1    2 ar
   2    1    6 ar
   3    1   32 1
   4    2    3 ar
   5    2   33 1
   6    3   22 1
   7    3    4 ar
   8    4    5 ar
   9    4    7 1
  10    5    6 ar
  11    5   10 1
  12    6   34 1
  13    7    8 1
  14    7   15 1
  15    8    9 2
  16    8   35 1
  17    9   10 1
  18    9   12 1
  19   10   11 2
  20   12   13 1
  21   12   14 2
  22   13   36 1
  23   15   16 1
  24   15   37 1
  25   15   38 1
  26   16   17 ar
  27   16   21 ar
  28   17   18 ar
  29   17   39 1
  30   18   19 ar
  31   19   20 ar
  32   19   23 1
  33   20   21 ar
  34   21   40 1
  35   23   24 ar
  36   23   28 ar
  37   24   25 ar
  38   24   41 1
  39   25   26 ar
  40   25   42 1
  41   26   27 ar
  42   26   43 1
  43   27   28 ar
  44   27   29 1
  45   28   44 1
  46   29   30 1
  47   29   31 1
  48   30   45 1
  49   30   46 1
  50   30   47 1
  51   31   48 1
  52   31   49 1
  53   31   50 1

#	End of record

