#	Name: ASD01120181
#	Creating user name:	WinNT
#	Creation time:	15. 06. 2019 18:59

#	Modifying user name:	WinNT
#	Modification time:	15. 06. 2019 18:59

#	Program:	/corina/corina34_cracker 3.40 0067  02.08.2006

@<TRIPOS>MOLECULE
ASD01120181
  30   31    0    0    0
SMALL
NO_CHARGES


@<TRIPOS>ATOM
   1 C1            -0.0180     1.4760     0.0102 C.ar    
   2 C2             1.1792     2.1803     0.0025 C.ar    
   3 C3             1.1836     3.5574     0.0099 C.ar    
   4 C4            -0.0219     4.2531     0.0246 C.ar    
   5 C5            -1.2349     3.5363     0.0319 C.ar    
   6 C6            -1.2126     2.1357     0.0194 C.ar    
   7 N7            -0.3352     5.5916     0.0339 N.pl3   
   8 C8            -1.7105     5.7266     0.0468 C.2     
   9 C9            -2.2793     4.4918     0.0458 C.2     
  10 C10           -3.7564     4.1937     0.0574 C.3     
  11 C11           -4.2692     4.1005    -1.3810 C.3     
  12 C12           -5.7464     3.8024    -1.3694 C.2     
  13 O13           -6.4147     3.6758    -2.5266 O.3     
  14 O14           -6.3292     3.6774    -0.3184 O.2     
  15 C15           -2.4412     7.0009     0.0595 C.2     
  16 O16           -3.6568     7.0044     0.0707 O.2     
  17 O17           -1.7635     8.1667     0.0587 O.3     
  18 N18            0.0021    -0.0041     0.0020 N.pl3   
  19 O19            1.0650    -0.5986    -0.0113 O.2     
  20 O20           -1.0443    -0.6274     0.0087 O.2     
  21 H21            2.1158     1.6427    -0.0090 H       
  22 H22            2.1197     4.0960     0.0045 H       
  23 H23           -2.1382     1.5794     0.0245 H       
  24 H24            0.3039     6.3213     0.0321 H       
  25 H25           -3.9320     3.2468     0.5679 H       
  26 H26           -4.2840     4.9915     0.5803 H       
  27 H27           -4.0937     5.0475    -1.8914 H       
  28 H28           -3.7417     3.3027    -1.9038 H       
  29 H29           -7.3608     3.4845    -2.4685 H       
  30 H30           -2.2878     8.9792     0.0673 H       
@<TRIPOS>BOND
   1    1   18 1
   2    1    2 ar
   3    1    6 ar
   4    2    3 ar
   5    2   21 1
   6    3    4 ar
   7    3   22 1
   8    4    5 ar
   9    4    7 1
  10    5    6 ar
  11    5    9 1
  12    6   23 1
  13    7    8 1
  14    7   24 1
  15    8    9 2
  16    8   15 1
  17    9   10 1
  18   10   11 1
  19   10   25 1
  20   10   26 1
  21   11   12 1
  22   11   27 1
  23   11   28 1
  24   12   13 1
  25   12   14 2
  26   13   29 1
  27   15   16 2
  28   15   17 1
  29   17   30 1
  30   18   19 2
  31   18   20 2

#	End of record

