#	Name: ASD08170614
#	Creating user name:	WinNT
#	Creation time:	15. 06. 2019 21:17

#	Modifying user name:	WinNT
#	Modification time:	15. 06. 2019 21:17

#	Program:	/corina/corina34_cracker 3.40 0067  02.08.2006

@<TRIPOS>MOLECULE
ASD08170614
  71   74    0    0    0
SMALL
NO_CHARGES


@<TRIPOS>ATOM
   1 N1            -0.0159     1.3150     0.0224 N.ar    
   2 C2             0.0017    -0.0034     0.0124 C.ar    
   3 C3            -1.2931    -0.7743     0.0243 C.3     
   4 C4            -4.2984    -0.6746     2.4294 C.3     
   5 C5            -5.5932    -1.4455     2.4412 C.2     
   6 N6            -5.8033    -2.5767     3.0361 N.2     
   7 N7            -6.9625    -3.0651     2.9277 N.2     
   8 C8            -7.8359    -2.3975     2.2358 C.2     
   9 S9            -7.0970    -0.9657     1.6538 S.3     
  10 N10           -9.1540    -2.7791     2.0098 N.am    
  11 C11           -3.4530    -1.1158     1.2328 C.3     
  12 C12           -2.1384    -0.3331     1.2208 C.3     
  13 C13            1.2122    -0.6808    -0.0095 C.ar    
  14 C14            2.3785     0.0690    -0.0202 C.ar    
  15 C15            2.2616     1.4575    -0.0083 C.ar    
  16 N16            1.0600     2.0148     0.0126 N.ar    
  17 N17            3.4043     2.2567    -0.0179 N.am    
  18 C18            3.2889     3.5963    -0.1113 C.2     
  19 O19            2.1992     4.1007    -0.2812 O.2     
  20 C20            4.5141     4.4673    -0.0047 C.3     
  21 C21            4.1152     5.9141    -0.1410 C.ar    
  22 C22            3.7797     6.6473     0.9819 C.ar    
  23 C23            3.4138     7.9744     0.8569 C.ar    
  24 C24            3.3838     8.5686    -0.3908 C.ar    
  25 C25            3.7202     7.8357    -1.5136 C.ar    
  26 C26            4.0903     6.5097    -1.3882 C.ar    
  27 C27           -9.6205    -3.9317     2.5297 C.2     
  28 O28           -8.8908    -4.6361     3.1947 O.2     
  29 C29          -11.0488    -4.3451     2.2847 C.3     
  30 C30          -11.3154    -5.6609     2.9693 C.ar    
  31 C31          -11.7762    -5.6799     4.2728 C.ar    
  32 C32          -12.0208    -6.8847     4.9027 C.ar    
  33 C33          -11.3476    -8.0546     2.9163 C.ar    
  34 C34          -11.1041    -6.8471     2.2910 C.ar    
  35 C35          -11.8042    -8.0764     4.2262 C.ar    
  36 O36          -12.0442    -9.2630     4.8437 O.3     
  37 C37          -11.7989   -10.4497     4.0863 C.3     
  38 C38          -12.1234   -11.6764     4.9412 C.3     
  39 C39          -11.8609   -12.9470     4.1303 C.3     
  40 H40           -1.8401    -0.5802    -0.8983 H       
  41 H41           -1.0805    -1.8405     0.1031 H       
  42 H42           -4.5110     0.3916     2.3505 H       
  43 H43           -3.7514    -0.8687     3.3520 H       
  44 H44           -9.7376    -2.2157     1.4779 H       
  45 H45           -3.2404    -2.1820     1.3116 H       
  46 H46           -4.0000    -0.9216     0.3102 H       
  47 H47           -1.5915    -0.5273     2.1434 H       
  48 H48           -2.3511     0.7331     1.1420 H       
  49 H49            1.2451    -1.7603    -0.0176 H       
  50 H50            3.3472    -0.4082    -0.0369 H       
  51 H51            4.2821     1.8485     0.0427 H       
  52 H52            4.9880     4.3107     0.9643 H       
  53 H53            5.2148     4.2073    -0.7981 H       
  54 H54            3.8032     6.1831     1.9568 H       
  55 H55            3.1510     8.5470     1.7341 H       
  56 H56            3.0972     9.6053    -0.4886 H       
  57 H57            3.6964     8.2998    -2.4885 H       
  58 H58            4.3531     5.9371    -2.2654 H       
  59 H59          -11.7206    -3.5852     2.6839 H       
  60 H60          -11.2174    -4.4524     1.2132 H       
  61 H61          -11.9447    -4.7519     4.7990 H       
  62 H62          -12.3801    -6.8990     5.9211 H       
  63 H63          -11.1821    -8.9808     2.3861 H       
  64 H64          -10.7490    -6.8296     1.2712 H       
  65 H65          -12.4290   -10.4498     3.1968 H       
  66 H66          -10.7507   -10.4809     3.7891 H       
  67 H67          -11.4934   -11.6764     5.8307 H       
  68 H68          -13.1717   -11.6452     5.2384 H       
  69 H69          -12.4909   -12.9471     3.2408 H       
  70 H70          -10.8126   -12.9783     3.8331 H       
  71 H71          -12.0920   -13.8210     4.7393 H       
@<TRIPOS>BOND
   1    1    2 ar
   2    1   16 ar
   3    2    3 1
   4    2   13 ar
   5    3   12 1
   6    3   40 1
   7    3   41 1
   8    4    5 1
   9    4   11 1
  10    4   42 1
  11    4   43 1
  12    5    6 2
  13    5    9 1
  14    6    7 1
  15    7    8 2
  16    8    9 1
  17    8   10 1
  18   10   27 am
  19   10   44 1
  20   11   12 1
  21   11   45 1
  22   11   46 1
  23   12   47 1
  24   12   48 1
  25   13   14 ar
  26   13   49 1
  27   14   15 ar
  28   14   50 1
  29   15   16 ar
  30   15   17 1
  31   17   18 am
  32   17   51 1
  33   18   19 2
  34   18   20 1
  35   20   21 1
  36   20   52 1
  37   20   53 1
  38   21   22 ar
  39   21   26 ar
  40   22   23 ar
  41   22   54 1
  42   23   24 ar
  43   23   55 1
  44   24   25 ar
  45   24   56 1
  46   25   26 ar
  47   25   57 1
  48   26   58 1
  49   27   28 2
  50   27   29 1
  51   29   30 1
  52   29   59 1
  53   29   60 1
  54   30   31 ar
  55   30   34 ar
  56   31   32 ar
  57   31   61 1
  58   32   35 ar
  59   32   62 1
  60   33   34 ar
  61   33   35 ar
  62   33   63 1
  63   34   64 1
  64   35   36 1
  65   36   37 1
  66   37   38 1
  67   37   65 1
  68   37   66 1
  69   38   39 1
  70   38   67 1
  71   38   68 1
  72   39   69 1
  73   39   70 1
  74   39   71 1

#	End of record

