#	Name: ASD01881261
#	Creating user name:	WinNT
#	Creation time:	15. 06. 2019 19:42

#	Modifying user name:	WinNT
#	Modification time:	15. 06. 2019 19:42

#	Program:	/corina/corina34_cracker 3.40 0067  02.08.2006

@<TRIPOS>MOLECULE
ASD01881261
  46   48    0    0    0
SMALL
NO_CHARGES


@<TRIPOS>ATOM
   1 C1            -0.0162     1.3398     0.0094 C.2     
   2 N2             0.0021    -0.0041     0.0020 N.am    
   3 C3             1.3975    -0.4575    -0.0137 C.3     
   4 C4             2.2454     0.7902    -0.0151 C.ar    
   5 C5             3.6006     1.0048    -0.0278 C.ar    
   6 C6             4.0977     2.3066    -0.0264 C.ar    
   7 C7             3.2198     3.3875    -0.0118 C.ar    
   8 C8             1.8604     3.1761     0.0009 C.ar    
   9 C9             1.3570     1.8711    -0.0008 C.ar    
  10 O10           -1.0238     2.0204     0.0181 O.2     
  11 N11            5.4711     2.5264    -0.0392 N.pl3   
  12 C12            6.3948     1.3895    -0.0542 C.3     
  13 C13            6.2335     4.4847     1.1600 C.ar    
  14 C14            5.9698     3.8319    -0.0379 C.ar    
  15 C15            6.2103     4.4979    -1.2373 C.ar    
  16 C16            6.7053     5.7907    -1.1843 C.ar    
  17 C17            6.9424     6.3731     0.0467 C.ar    
  18 N18            6.7046     5.7154     1.1649 N.ar    
  19 C19            5.9393     3.8285    -2.5600 C.3     
  20 F20            6.2622     4.7054    -3.6012 F       
  21 F21            6.7191     2.6718    -2.6657 F       
  22 F22            4.5850     3.4870    -2.6410 F       
  23 C23           -1.1772    -0.8732     0.0090 C.3     
  24 C24           -1.6017    -1.1686    -1.4309 C.3     
  25 C25           -2.8333    -2.0763    -1.4236 C.3     
  26 C26           -3.2578    -2.3716    -2.8635 C.3     
  27 H27            1.6082    -1.0527     0.8747 H       
  28 H28            1.5911    -1.0431    -0.9124 H       
  29 H29            4.2810     0.1661    -0.0384 H       
  30 H30            3.6075     4.3955    -0.0100 H       
  31 H31            1.1827     4.0169     0.0123 H       
  32 H32            6.6135     1.1125    -1.0855 H       
  33 H33            7.3198     1.6662     0.4517 H       
  34 H34            5.9384     0.5437     0.4602 H       
  35 H35            6.0467     3.9800     2.0963 H       
  36 H36            6.9039     6.3373    -2.0944 H       
  37 H37            7.3283     7.3807     0.0935 H       
  38 H38           -0.9368    -1.8078     0.5159 H       
  39 H39           -1.9927    -0.3749     0.5333 H       
  40 H40           -1.8421    -0.2340    -1.9378 H       
  41 H41           -0.7862    -1.6668    -1.9552 H       
  42 H42           -2.5929    -3.0108    -0.9167 H       
  43 H43           -3.6488    -1.5780    -0.8993 H       
  44 H44           -2.4423    -2.8699    -3.3878 H       
  45 H45           -4.1352    -3.0183    -2.8583 H       
  46 H46           -3.4982    -1.4370    -3.3704 H       
@<TRIPOS>BOND
   1    1    2 am
   2    1    9 1
   3    1   10 2
   4    2    3 1
   5    2   23 1
   6    3    4 1
   7    3   27 1
   8    3   28 1
   9    4    5 ar
  10    4    9 ar
  11    5    6 ar
  12    5   29 1
  13    6    7 ar
  14    6   11 1
  15    7    8 ar
  16    7   30 1
  17    8    9 ar
  18    8   31 1
  19   11   12 1
  20   11   14 1
  21   12   32 1
  22   12   33 1
  23   12   34 1
  24   13   14 ar
  25   13   18 ar
  26   13   35 1
  27   14   15 ar
  28   15   16 ar
  29   15   19 1
  30   16   17 ar
  31   16   36 1
  32   17   18 ar
  33   17   37 1
  34   19   20 1
  35   19   21 1
  36   19   22 1
  37   23   24 1
  38   23   38 1
  39   23   39 1
  40   24   25 1
  41   24   40 1
  42   24   41 1
  43   25   26 1
  44   25   42 1
  45   25   43 1
  46   26   44 1
  47   26   45 1
  48   26   46 1

#	End of record

