#	Name: ASD01028075
#	Creating user name:	WinNT
#	Creation time:	15. 06. 2019 18:56

#	Modifying user name:	WinNT
#	Modification time:	15. 06. 2019 18:56

#	Program:	/corina/corina34_cracker 3.40 0067  02.08.2006

@<TRIPOS>MOLECULE
ASD01028075
  70   75    0    0    0
SMALL
NO_CHARGES


@<TRIPOS>ATOM
   1 C1            -0.0187     1.5243     0.0104 C.3     
   2 C2             0.0021    -0.0041     0.0020 C.3     
   3 C3            -1.4077    -0.5722     0.1681 C.3     
   4 N4             1.4162     3.4096    -0.6326 N.am    
   5 C5             1.4157     2.0597    -0.0004 C.3     
   6 C6             1.9237     3.4347    -2.0337 C.3     
   7 N7             0.4064     0.2353    -4.3359 N.pl3   
   8 C8             1.1245     1.2003    -5.0131 C.ar    
   9 C9             1.5991     2.2690    -4.2500 C.ar    
  10 C10            1.2693     2.2757    -2.7829 C.3     
  11 C11            1.4018     1.1452    -6.3736 C.ar    
  12 C12            2.1441     2.1543    -6.9713 C.ar    
  13 C13            2.6028     3.2133    -6.2035 C.ar    
  14 C14            2.3352     3.2634    -4.8476 C.ar    
  15 O15           -1.4700    -1.9193    -0.3053 O.3     
  16 C16           -1.6560    -2.1156    -1.6375 C.ar    
  17 C17           -0.9377    -1.3600    -2.5233 C.ar    
  18 C18           -1.1154    -1.5501    -3.8975 C.ar    
  19 C19           -0.4061    -0.7433    -4.8330 C.ar    
  20 N20           -0.5914    -0.9866    -6.1223 N.ar    
  21 O21            1.0697     0.2221    -7.3228 O.3     
  22 C22            1.6727     0.6272    -8.5569 C.3     
  23 O23            2.2893     1.8901    -8.2964 O.3     
  24 C24           -2.5647    -3.0792    -2.1042 C.ar    
  25 C25           -2.7374    -3.2923    -3.4572 C.ar    
  26 C26           -2.0107    -2.5288    -4.3806 C.ar    
  27 N27           -2.1237    -2.6841    -5.7094 N.ar    
  28 C28           -1.4278    -1.9308    -6.5255 C.ar    
  29 O29           -3.2825    -3.8113    -1.2129 O.3     
  30 C30           -4.1908    -4.7760    -1.7481 C.3     
  31 C31            0.9926     4.5162     0.0097 C.2     
  32 O32            0.5883     4.4378     1.1529 O.2     
  33 O33            1.0173     5.7084    -0.6153 O.3     
  34 C34            0.5461     6.8572     0.1375 C.3     
  35 C35            0.6473     8.0939    -0.7177 C.ar    
  36 C36           -0.4165     8.4716    -1.5155 C.ar    
  37 C37            1.8019     8.8539    -0.7000 C.ar    
  38 C38            1.8948     9.9883    -1.4844 C.ar    
  39 C39            0.8332    10.3626    -2.2868 C.ar    
  40 C40           -0.3237     9.6060    -2.2999 C.ar    
  41 H41           -0.5470     1.8847    -0.8722 H       
  42 H42           -0.5300     1.8751     0.9068 H       
  43 H43            0.4188    -0.3512    -0.9435 H       
  44 H44            0.6293    -0.3581     0.8201 H       
  45 H45           -1.6818    -0.5495     1.2229 H       
  46 H46           -2.1102     0.0398    -0.3976 H       
  47 H47            1.7859     2.1346     1.0221 H       
  48 H48            2.0530     1.3869    -0.5742 H       
  49 H49            1.6560     4.3793    -2.5071 H       
  50 H50            3.0069     3.3125    -2.0369 H       
  51 H51            0.4912     0.2548    -3.3698 H       
  52 H52            1.6063     1.3372    -2.3426 H       
  53 H53            0.1880     2.3479    -2.6660 H       
  54 H54            3.1731     4.0045    -6.6673 H       
  55 H55            2.7058     4.0877    -4.2563 H       
  56 H56           -0.2375    -0.6206    -2.1634 H       
  57 H57            2.4231    -0.1007    -8.8651 H       
  58 H58            0.9115     0.7333    -9.3299 H       
  59 H59           -3.4304    -4.0451    -3.8029 H       
  60 H60           -1.5423    -2.0900    -7.5875 H       
  61 H61           -4.9273    -4.2732    -2.3747 H       
  62 H62           -3.6394    -5.5015    -2.3463 H       
  63 H63           -4.6983    -5.2894    -0.9314 H       
  64 H64           -0.4927     6.7002     0.4277 H       
  65 H65            1.1581     6.9821     1.0308 H       
  66 H66           -1.3201     7.8801    -1.5262 H       
  67 H67            2.6313     8.5615    -0.0731 H       
  68 H68            2.7965    10.5825    -1.4700 H       
  69 H69            0.9056    11.2491    -2.8994 H       
  70 H70           -1.1531     9.8984    -2.9268 H       
@<TRIPOS>BOND
   1    1    2 1
   2    1    5 1
   3    1   41 1
   4    1   42 1
   5    2    3 1
   6    2   43 1
   7    2   44 1
   8    3   15 1
   9    3   45 1
  10    3   46 1
  11    4    5 1
  12    4    6 1
  13    4   31 am
  14    5   47 1
  15    5   48 1
  16    6   10 1
  17    6   49 1
  18    6   50 1
  19    7    8 1
  20    7   19 1
  21    7   51 1
  22    8    9 ar
  23    8   11 ar
  24    9   10 1
  25    9   14 ar
  26   10   52 1
  27   10   53 1
  28   11   12 ar
  29   11   21 1
  30   12   13 ar
  31   12   23 1
  32   13   14 ar
  33   13   54 1
  34   14   55 1
  35   15   16 1
  36   16   17 ar
  37   16   24 ar
  38   17   18 ar
  39   17   56 1
  40   18   19 ar
  41   18   26 ar
  42   19   20 ar
  43   20   28 ar
  44   21   22 1
  45   22   23 1
  46   22   57 1
  47   22   58 1
  48   24   25 ar
  49   24   29 1
  50   25   26 ar
  51   25   59 1
  52   26   27 ar
  53   27   28 ar
  54   28   60 1
  55   29   30 1
  56   30   61 1
  57   30   62 1
  58   30   63 1
  59   31   32 2
  60   31   33 1
  61   33   34 1
  62   34   35 1
  63   34   64 1
  64   34   65 1
  65   35   36 ar
  66   35   37 ar
  67   36   40 ar
  68   36   66 1
  69   37   38 ar
  70   37   67 1
  71   38   39 ar
  72   38   68 1
  73   39   40 ar
  74   39   69 1
  75   40   70 1

#	End of record

