#	Name: ASD01410375
#	Creating user name:	WinNT
#	Creation time:	15. 06. 2019 19:17

#	Modifying user name:	WinNT
#	Modification time:	15. 06. 2019 19:17

#	Program:	/corina/corina34_cracker 3.40 0067  02.08.2006

@<TRIPOS>MOLECULE
ASD01410375
  62   65    0    0    0
SMALL
NO_CHARGES


@<TRIPOS>ATOM
   1 N1            -0.0166     1.3704     0.0096 N.pl3   
   2 C2             0.0021    -0.0041     0.0020 C.2     
   3 C3             1.2892    -0.4360    -0.0126 C.2     
   4 C4             2.1286     0.7034    -0.0145 C.ar    
   5 C5             3.5212     0.8708    -0.0275 C.ar    
   6 C6             4.0569     2.1217    -0.0262 C.ar    
   7 C7             3.2244     3.2512    -0.0117 C.ar    
   8 C8             1.8380     3.1024     0.0014 C.ar    
   9 C9             1.2841     1.8324    -0.0004 C.ar    
  10 C10            3.8178     4.6003    -0.0099 C.2     
  11 O11            3.0991     5.5801     0.0026 O.2     
  12 O12            5.1574     4.7472    -0.0221 O.3     
  13 C13           -1.1920    -0.8752     0.0092 C.ar    
  14 C14           -2.2526    -0.6020     0.8751 C.ar    
  15 C15           -3.3645    -1.4164     0.8784 C.ar    
  16 C16           -3.4305    -2.5080     0.0222 C.ar    
  17 C17           -2.3776    -2.7832    -0.8406 C.ar    
  18 C18           -1.2647    -1.9702    -0.8540 C.ar    
  19 C19            1.7431    -1.8730    -0.0246 C.3     
  20 C20            2.5726    -2.1353    -1.2833 C.3     
  21 C21            3.0335    -3.5942    -1.2955 C.3     
  22 C22            3.8867    -3.8699    -0.0558 C.3     
  23 C23            3.0573    -3.6076     1.2028 C.3     
  24 C24            2.5964    -2.1487     1.2151 C.3     
  25 C25           -1.2190     2.2072     0.0201 C.3     
  26 C26           -1.6243     2.4864     1.4444 C.2     
  27 N27           -2.7107     3.2419     1.7002 N.am    
  28 C28           -3.1047     3.5134     3.0848 C.3     
  29 C29           -3.4976     3.7918     0.5935 C.3     
  30 O30           -0.9729     2.0312     2.3606 O.2     
  31 O31           -4.5278    -3.3089     0.0291 O.3     
  32 C32           -4.5300    -4.4141    -0.8768 C.3     
  33 H33            4.1686     0.0064    -0.0383 H       
  34 H34            5.1297     2.2459    -0.0359 H       
  35 H35            1.1990     3.9730     0.0125 H       
  36 H36            5.4999     5.6515    -0.0204 H       
  37 H37           -2.2017     0.2463     1.5416 H       
  38 H38           -4.1853    -1.2057     1.5479 H       
  39 H39           -2.4327    -3.6330    -1.5049 H       
  40 H40           -0.4482    -2.1822    -1.5284 H       
  41 H41            0.8727    -2.5291    -0.0198 H       
  42 H42            1.9647    -1.9389    -2.1664 H       
  43 H43            3.4430    -1.4792    -1.2880 H       
  44 H44            2.1630    -4.2502    -1.2907 H       
  45 H45            3.6244    -3.7810    -2.1922 H       
  46 H46            4.2150    -4.9092    -0.0645 H       
  47 H47            4.7571    -3.2138    -0.0606 H       
  48 H48            2.1868    -4.2637     1.2076 H       
  49 H49            3.6652    -3.8040     2.0860 H       
  50 H50            3.4668    -1.4926     1.2103 H       
  51 H51            2.0055    -1.9618     2.1117 H       
  52 H52           -1.0114     3.1480    -0.4897 H       
  53 H53           -2.0281     1.6870    -0.4926 H       
  54 H54           -2.2956     4.0335     3.5975 H       
  55 H55           -3.9994     4.1360     3.0926 H       
  56 H56           -3.3123     2.5726     3.5946 H       
  57 H57           -4.2798     3.0846     0.3173 H       
  58 H58           -3.9516     4.7331     0.9030 H       
  59 H59           -2.8469     3.9666    -0.2633 H       
  60 H60           -4.4424    -4.0461    -1.8991 H       
  61 H61           -3.6879    -5.0690    -0.6531 H       
  62 H62           -5.4613    -4.9701    -0.7694 H       
@<TRIPOS>BOND
   1    1    2 1
   2    1    9 1
   3    1   25 1
   4    2    3 2
   5    2   13 1
   6    3    4 1
   7    3   19 1
   8    4    5 ar
   9    4    9 ar
  10    5    6 ar
  11    5   33 1
  12    6    7 ar
  13    6   34 1
  14    7    8 ar
  15    7   10 1
  16    8    9 ar
  17    8   35 1
  18   10   11 2
  19   10   12 1
  20   12   36 1
  21   13   14 ar
  22   13   18 ar
  23   14   15 ar
  24   14   37 1
  25   15   16 ar
  26   15   38 1
  27   16   17 ar
  28   16   31 1
  29   17   18 ar
  30   17   39 1
  31   18   40 1
  32   19   20 1
  33   19   24 1
  34   19   41 1
  35   20   21 1
  36   20   42 1
  37   20   43 1
  38   21   22 1
  39   21   44 1
  40   21   45 1
  41   22   23 1
  42   22   46 1
  43   22   47 1
  44   23   24 1
  45   23   48 1
  46   23   49 1
  47   24   50 1
  48   24   51 1
  49   25   26 1
  50   25   52 1
  51   25   53 1
  52   26   27 am
  53   26   30 2
  54   27   28 1
  55   27   29 1
  56   28   54 1
  57   28   55 1
  58   28   56 1
  59   29   57 1
  60   29   58 1
  61   29   59 1
  62   31   32 1
  63   32   60 1
  64   32   61 1
  65   32   62 1

#	End of record

