#	Name: ASD01901264
#	Creating user name:	WinNT
#	Creation time:	15. 06. 2019 19:53

#	Modifying user name:	WinNT
#	Modification time:	15. 06. 2019 19:53

#	Program:	/corina/corina34_cracker 3.40 0067  02.08.2006

@<TRIPOS>MOLECULE
ASD01901264
  45   48    0    0    0
SMALL
NO_CHARGES


@<TRIPOS>ATOM
   1 C1            -0.0158     1.3123     0.0093 C.ar    
   2 N2             0.0021    -0.0041     0.0020 N.ar    
   3 C3             1.1316    -0.6859    -0.0124 C.ar    
   4 C4             2.3557    -0.0416    -0.0206 C.ar    
   5 C5             2.3936     1.3414    -0.0135 C.ar    
   6 C6             1.1781     2.0387     0.0018 C.ar    
   7 C7             1.1598     3.4705     0.0096 C.1     
   8 C8             1.1447     4.6444     0.0160 C.1     
   9 C9             1.1264     6.0763     0.0239 C.ar    
  10 C10           -0.1060     8.1402     0.0530 C.ar    
  11 C11           -0.0918     6.7611     0.0450 C.ar    
  12 C12            2.3271     6.7926     0.0163 C.ar    
  13 C13            2.3052     8.1718     0.0243 C.ar    
  14 C14            1.0895     8.8499     0.0400 C.ar    
  15 N15            1.0708    10.2488     0.0473 N.am    
  16 N16            0.9438    12.2701    -1.1618 N.am    
  17 C17            1.0280    10.9226    -1.1088 C.2     
  18 C18            1.0779    10.9156     1.2204 C.2     
  19 C19            1.2337    12.3805     1.1937 C.ar    
  20 C20            1.2620    13.0410    -0.0603 C.ar    
  21 C21            1.6649    14.3631    -0.0739 C.ar    
  22 C22            1.3182    13.1026     2.3808 C.ar    
  23 C23            1.5645    14.4567     2.3364 C.ar    
  24 C24            1.7664    15.0719     1.1152 C.ar    
  25 C25            0.4048    12.8293    -2.4060 C.3     
  26 O26            1.0663    10.3059    -2.1546 O.2     
  27 O27            0.9585    10.3211     2.2752 O.2     
  28 Cl28          -1.6188     8.9913     0.0792 Cl      
  29 F29            3.4646     8.8653     0.0174 F       
  30 C30            2.0844    15.0948    -1.3254 C.3     
  31 H31           -0.9608     1.8351     0.0166 H       
  32 H32            1.1000    -1.7654    -0.0175 H       
  33 H33            3.2725    -0.6123    -0.0321 H       
  34 H34            3.3354     1.8699    -0.0193 H       
  35 H35           -1.0211     6.2110     0.0547 H       
  36 H36            3.2704     6.2668     0.0044 H       
  37 H37            1.1922    12.6033     3.3311 H       
  38 H38            1.5995    15.0313     3.2491 H       
  39 H39            2.0069    16.1249     1.0763 H       
  40 H40            0.1592    12.0188    -3.0922 H       
  41 H41           -0.4948    13.4043    -2.1862 H       
  42 H42            1.1492    13.4803    -2.8642 H       
  43 H43            1.2130    15.5657    -1.7803 H       
  44 H44            2.8189    15.8588    -1.0707 H       
  45 H45            2.5243    14.3882    -2.0292 H       
@<TRIPOS>BOND
   1    1    2 ar
   2    1    6 ar
   3    1   31 1
   4    2    3 ar
   5    3    4 ar
   6    3   32 1
   7    4    5 ar
   8    4   33 1
   9    5    6 ar
  10    5   34 1
  11    6    7 1
  12    7    8 3
  13    8    9 1
  14    9   12 ar
  15    9   11 ar
  16   10   11 ar
  17   10   14 ar
  18   10   28 1
  19   11   35 1
  20   12   13 ar
  21   12   36 1
  22   13   14 ar
  23   13   29 1
  24   14   15 1
  25   15   18 am
  26   15   17 am
  27   16   17 am
  28   16   20 1
  29   16   25 1
  30   17   26 2
  31   18   19 1
  32   18   27 2
  33   19   22 ar
  34   19   20 ar
  35   20   21 ar
  36   21   24 ar
  37   21   30 1
  38   22   23 ar
  39   22   37 1
  40   23   24 ar
  41   23   38 1
  42   24   39 1
  43   25   40 1
  44   25   41 1
  45   25   42 1
  46   30   43 1
  47   30   44 1
  48   30   45 1

#	End of record

