#	Name: ASD08150125
#	Creating user name:	WinNT
#	Creation time:	15. 06. 2019 21:15

#	Modifying user name:	WinNT
#	Modification time:	15. 06. 2019 21:15

#	Program:	/corina/corina34_cracker 3.40 0067  02.08.2006

@<TRIPOS>MOLECULE
ASD08150125
  55   58    0    0    0
SMALL
NO_CHARGES


@<TRIPOS>ATOM
   1 O1            -0.0161     1.3334     0.0094 O.3     
   2 C2             0.0021    -0.0041     0.0020 C.2     
   3 N3             1.2348    -0.5293    -0.0126 N.am    
   4 C4             2.2183     0.5645    -0.0161 C.3     
   5 C5             1.3508     1.8379    -0.0010 C.3     
   6 O6            -1.0069    -0.6808     0.0084 O.2     
   7 C7             3.0931    -3.5894     0.0537 C.ar    
   8 N8             2.1556    -4.5191    -0.0404 N.ar    
   9 C9             0.8687    -4.1833    -0.1299 C.ar    
  10 C10            0.5191    -2.8335    -0.1233 C.ar    
  11 C11            1.5353    -1.8872    -0.0227 C.ar    
  12 N12            2.7968    -2.2984     0.0630 N.ar    
  13 C13           -2.0648    -7.1227    -0.4257 C.ar    
  14 N14           -0.7935    -7.4879    -0.3385 N.ar    
  15 C15            0.1661    -6.5852    -0.2434 C.ar    
  16 C16           -0.1757    -5.2298    -0.2355 C.ar    
  17 C17           -1.5278    -4.8863    -0.3293 C.ar    
  18 N18           -2.4286    -5.8477    -0.4215 N.ar    
  19 N19            4.4183    -3.9768     0.1507 N.3     
  20 C20            4.5419    -5.4416     0.1295 C.3     
  21 C21            6.0235    -5.8241     0.1786 C.3     
  22 O22            6.6214    -5.2471     1.3426 O.3     
  23 C23            6.5199    -3.8215     1.3954 C.3     
  24 C24            5.0433    -3.4187     1.3587 C.3     
  25 N25           -3.0382    -8.0984    -0.5295 N.pl3   
  26 C26            1.6085    -7.0104    -0.1443 C.3     
  27 F27            1.6961    -8.3993    -0.2872 F       
  28 F28            2.3482    -6.3898    -1.1567 F       
  29 F29            2.1202    -6.6367     1.1030 F       
  30 C30            3.0990     0.4993     1.2333 C.3     
  31 O31            3.9060    -0.6791     1.1862 O.3     
  32 C32            1.6042     2.6745    -1.2567 C.3     
  33 C33            1.6283     2.6610     1.2586 C.3     
  34 H34            2.8286     0.5277    -0.9184 H       
  35 H35           -0.5148    -2.5295    -0.1947 H       
  36 H36           -1.8313    -3.8498    -0.3261 H       
  37 H37            4.0285    -5.8627     0.9939 H       
  38 H38            4.0955    -5.8313    -0.7853 H       
  39 H39            6.1181    -6.9092     0.2207 H       
  40 H40            6.5260    -5.4486    -0.7128 H       
  41 H41            6.9734    -3.4582     2.3176 H       
  42 H42            7.0368    -3.3878     0.5394 H       
  43 H43            4.9628    -2.3318     1.3412 H       
  44 H44            4.5379    -3.8075     2.2428 H       
  45 H45           -2.7869    -9.0352    -0.5379 H       
  46 H46           -3.9726    -7.8463    -0.5941 H       
  47 H47            3.7420     1.3787     1.2708 H       
  48 H48            2.4680     0.4723     2.1216 H       
  49 H49            4.4911    -0.7858     1.9487 H       
  50 H50            0.9328     3.5331    -1.2629 H       
  51 H51            2.6376     3.0213    -1.2597 H       
  52 H52            1.4229     2.0650    -2.1420 H       
  53 H53            1.4638     2.0421     2.1406 H       
  54 H54            2.6615     3.0078     1.2456 H       
  55 H55            0.9572     3.5194     1.2868 H       
@<TRIPOS>BOND
   1    1    2 1
   2    1    5 1
   3    2    3 am
   4    2    6 2
   5    3    4 1
   6    3   11 1
   7    4    5 1
   8    4   30 1
   9    4   34 1
  10    5   32 1
  11    5   33 1
  12    7    8 ar
  13    7   12 ar
  14    7   19 1
  15    8    9 ar
  16    9   10 ar
  17    9   16 1
  18   10   11 ar
  19   10   35 1
  20   11   12 ar
  21   13   14 ar
  22   13   18 ar
  23   13   25 1
  24   14   15 ar
  25   15   16 ar
  26   15   26 1
  27   16   17 ar
  28   17   18 ar
  29   17   36 1
  30   19   20 1
  31   19   24 1
  32   20   21 1
  33   20   37 1
  34   20   38 1
  35   21   22 1
  36   21   39 1
  37   21   40 1
  38   22   23 1
  39   23   24 1
  40   23   41 1
  41   23   42 1
  42   24   43 1
  43   24   44 1
  44   25   45 1
  45   25   46 1
  46   26   27 1
  47   26   28 1
  48   26   29 1
  49   30   31 1
  50   30   47 1
  51   30   48 1
  52   31   49 1
  53   32   50 1
  54   32   51 1
  55   32   52 1
  56   33   53 1
  57   33   54 1
  58   33   55 1

#	End of record

