#	Name: ASD01208508
#	Creating user name:	WinNT
#	Creation time:	15. 06. 2019 19:09

#	Modifying user name:	WinNT
#	Modification time:	15. 06. 2019 19:09

#	Program:	/corina/corina34_cracker 3.40 0067  02.08.2006

@<TRIPOS>MOLECULE
ASD01208508
  22   23    0    0    0
SMALL
NO_CHARGES


@<TRIPOS>ATOM
   1 C1            -0.0940     1.2248    -0.0959 C.ar    
   2 C2             1.0045     2.0236    -0.3754 C.ar    
   3 C3             2.2694     1.4631    -0.3619 C.ar    
   4 C4             2.3883     0.0996    -0.0637 C.ar    
   5 C5             1.2335    -0.6353     0.2064 C.ar    
   6 N6             0.0502    -0.0579     0.1817 N.ar    
   7 Cl7            0.7949     3.7082    -0.7387 Cl      
   8 Cl8           -1.6831     1.9239    -0.1041 Cl      
   9 C9             3.7154    -0.5501    -0.0360 C.2     
  10 O10            3.7990    -1.7568     0.0845 O.2     
  11 N11            4.8330     0.1953    -0.1445 N.am    
  12 C12            6.2815    -0.0563    -0.1063 C.3     
  13 C13            6.4640     1.3853     0.3882 C.3     
  14 C14            5.1407     1.6172    -0.3596 C.3     
  15 H15            3.1426     2.0614    -0.5761 H       
  16 H16            1.3107    -1.6873     0.4378 H       
  17 H17            6.5724    -0.8073     0.6281 H       
  18 H18            6.7168    -0.2364    -1.0893 H       
  19 H19            6.3956     1.4987     1.4701 H       
  20 H20            7.3183     1.9028    -0.0484 H       
  21 H21            5.2753     1.8783    -1.4092 H       
  22 H22            4.4598     2.2920     0.1592 H       
@<TRIPOS>BOND
   1    1    2 ar
   2    1    6 ar
   3    1    8 1
   4    2    3 ar
   5    2    7 1
   6    3    4 ar
   7    3   15 1
   8    4    5 ar
   9    4    9 1
  10    5    6 ar
  11    5   16 1
  12    9   10 2
  13    9   11 am
  14   11   12 1
  15   11   14 1
  16   12   13 1
  17   12   17 1
  18   12   18 1
  19   13   14 1
  20   13   19 1
  21   13   20 1
  22   14   21 1
  23   14   22 1

#	End of record

