#	Name: ASD01901367
#	Creating user name:	WinNT
#	Creation time:	15. 06. 2019 19:53

#	Modifying user name:	WinNT
#	Modification time:	15. 06. 2019 19:53

#	Program:	/corina/corina34_cracker 3.40 0067  02.08.2006

@<TRIPOS>MOLECULE
ASD01901367
  37   40    0    0    0
SMALL
NO_CHARGES


@<TRIPOS>ATOM
   1 C1            -0.0169     1.3927     0.0097 C.ar    
   2 C2             1.1832     2.0793     0.0019 C.ar    
   3 N3             2.3342     1.4306    -0.0130 N.ar    
   4 C4             2.3931     0.1122    -0.0206 C.ar    
   5 C5             1.2430    -0.6485    -0.0138 C.ar    
   6 C6             0.0021    -0.0041     0.0020 C.ar    
   7 C7            -1.2605    -0.7829     0.0099 C.2     
   8 N8            -3.2465    -1.4120     1.1210 N.2     
   9 C9            -2.1323    -0.7224     1.1192 C.2     
  10 C10           -1.5993    -1.5651    -1.0592 C.2     
  11 N11           -2.7665    -2.2672    -1.0197 N.pl3   
  12 C12           -3.5841    -2.1862     0.0784 C.2     
  13 C13           -3.3683    -3.1157    -1.9100 C.2     
  14 C14           -4.5228    -3.5286    -1.3458 C.2     
  15 N15           -4.6377    -2.9588    -0.1424 N.2     
  16 C16           -5.5158    -4.4760    -1.9683 C.3     
  17 O17           -5.0484    -4.8762    -3.2580 O.3     
  18 C18           -5.8332    -5.7367    -3.9592 C.ar    
  19 C19           -7.0307    -6.1815    -3.4189 C.ar    
  20 C20           -5.4398    -6.1663    -5.2181 C.ar    
  21 C21           -6.2385    -7.0404    -5.9298 C.ar    
  22 C22           -7.4313    -7.4874    -5.3872 C.ar    
  23 C23           -7.8275    -7.0557    -4.1328 C.ar    
  24 F24           -8.2119    -8.3415    -6.0846 F       
  25 F25            1.1789     3.4303     0.0092 F       
  26 H26           -0.9547     1.9281     0.0260 H       
  27 H27            3.3555    -0.3778    -0.0328 H       
  28 H28            1.2998    -1.7269    -0.0208 H       
  29 H29           -1.8795    -0.1060     1.9692 H       
  30 H30           -0.9521    -1.6251    -1.9217 H       
  31 H31           -2.9905    -3.4005    -2.8809 H       
  32 H32           -5.6268    -5.3549    -1.3332 H       
  33 H33           -6.4796    -3.9770    -2.0698 H       
  34 H34           -7.3400    -5.8450    -2.4404 H       
  35 H35           -4.5098    -5.8172    -5.6419 H       
  36 H36           -5.9325    -7.3750    -6.9100 H       
  37 H37           -8.7599    -7.4022    -3.7123 H       
@<TRIPOS>BOND
   1    1    6 ar
   2    1    2 ar
   3    1   26 1
   4    2    3 ar
   5    2   25 1
   6    3    4 ar
   7    4    5 ar
   8    4   27 1
   9    5    6 ar
  10    5   28 1
  11    6    7 1
  12    7   10 2
  13    7    9 1
  14    8    9 2
  15    8   12 1
  16    9   29 1
  17   10   11 1
  18   10   30 1
  19   11   13 1
  20   11   12 1
  21   12   15 2
  22   13   14 2
  23   13   31 1
  24   14   15 1
  25   14   16 1
  26   16   17 1
  27   16   32 1
  28   16   33 1
  29   17   18 1
  30   18   20 ar
  31   18   19 ar
  32   19   23 ar
  33   19   34 1
  34   20   21 ar
  35   20   35 1
  36   21   22 ar
  37   21   36 1
  38   22   23 ar
  39   22   24 1
  40   23   37 1

#	End of record

