#	Name: ASD01884816
#	Creating user name:	WinNT
#	Creation time:	15. 06. 2019 19:48

#	Modifying user name:	WinNT
#	Modification time:	15. 06. 2019 19:48

#	Program:	/corina/corina34_cracker 3.40 0067  02.08.2006

@<TRIPOS>MOLECULE
ASD01884816
  48   51    0    0    0
SMALL
NO_CHARGES


@<TRIPOS>ATOM
   1 N1            -0.0162     1.3436     0.0094 N.am    
   2 C2             0.0021    -0.0041     0.0020 C.2     
   3 O3             1.0625    -0.5972    -0.0113 O.2     
   4 C4            -1.2709    -0.7623     0.0101 C.ar    
   5 C5            -1.2445    -2.1525     0.0081 C.ar    
   6 C6            -2.4575    -2.8450     0.0139 C.ar    
   7 C7            -3.6481    -2.1083     0.0214 C.ar    
   8 C8            -4.9575    -2.8521     0.0171 C.3     
   9 C9            -6.0914    -1.9147     0.4342 C.3     
  10 N10           -6.0018    -0.6867    -0.3717 N.3     
  11 C11           -7.2409     0.0966    -0.2771 C.3     
  12 C12           -7.2116     1.2077    -1.2948 C.ar    
  13 C13           -7.8113     1.0418    -2.5330 C.ar    
  14 C14           -7.7589     2.0915    -3.4369 C.ar    
  15 N15           -7.1423     3.2096    -3.0898 N.ar    
  16 C16           -6.5828     3.3315    -1.9025 C.ar    
  17 N17           -6.6176     2.3571    -1.0160 N.ar    
  18 C18           -8.3953     1.9609    -4.7967 C.3     
  19 F19           -9.7241     2.3939    -4.7332 F       
  20 F20           -7.6927     2.7453    -5.7177 F       
  21 F21           -8.3599     0.6222    -5.2015 F       
  22 C22           -4.8433     0.1104     0.0426 C.3     
  23 C23           -3.5917    -0.7300     0.0267 C.ar    
  24 N24           -2.4240    -0.1091     0.0246 N.ar    
  25 C25           -2.4838    -4.3277     0.0116 C.ar    
  26 C26           -1.9858    -5.0374     1.1026 C.ar    
  27 C27           -2.0120    -6.4168     1.0964 C.ar    
  28 C28           -2.5321    -7.0983     0.0076 C.ar    
  29 F29           -2.5548    -8.4491     0.0071 F       
  30 C30           -3.0292    -6.3991    -1.0800 C.ar    
  31 C31           -3.0128    -5.0173    -1.0812 C.ar    
  32 F32           -3.5023    -4.3353    -2.1397 F       
  33 H33            0.8172     1.8399     0.0041 H       
  34 H34           -0.8627     1.8171     0.0160 H       
  35 H35           -0.3054    -2.6859     0.0018 H       
  36 H36           -5.1536    -3.2338    -0.9849 H       
  37 H37           -4.9020    -3.6865     0.7162 H       
  38 H38           -7.0514    -2.3997     0.2573 H       
  39 H39           -5.9920    -1.6672     1.4911 H       
  40 H40           -8.0959    -0.5511    -0.4708 H       
  41 H41           -7.3264     0.5220     0.7228 H       
  42 H42           -8.3072     0.1169    -2.7879 H       
  43 H43           -6.0866     4.2564    -1.6478 H       
  44 H44           -4.7216     0.9511    -0.6404 H       
  45 H45           -5.0093     0.4903     1.0507 H       
  46 H46           -1.5794    -4.5082     1.9518 H       
  47 H47           -1.6261    -6.9668     1.9420 H       
  48 H48           -3.4339    -6.9345    -1.9262 H       
@<TRIPOS>BOND
   1    1    2 am
   2    1   33 1
   3    1   34 1
   4    2    3 2
   5    2    4 1
   6    4   24 ar
   7    4    5 ar
   8    5    6 ar
   9    5   35 1
  10    6    7 ar
  11    6   25 1
  12    7   23 ar
  13    7    8 1
  14    8    9 1
  15    8   36 1
  16    8   37 1
  17    9   10 1
  18    9   38 1
  19    9   39 1
  20   10   11 1
  21   10   22 1
  22   11   12 1
  23   11   40 1
  24   11   41 1
  25   12   17 ar
  26   12   13 ar
  27   13   14 ar
  28   13   42 1
  29   14   15 ar
  30   14   18 1
  31   15   16 ar
  32   16   17 ar
  33   16   43 1
  34   18   19 1
  35   18   20 1
  36   18   21 1
  37   22   23 1
  38   22   44 1
  39   22   45 1
  40   23   24 ar
  41   25   31 ar
  42   25   26 ar
  43   26   27 ar
  44   26   46 1
  45   27   28 ar
  46   27   47 1
  47   28   29 1
  48   28   30 ar
  49   30   31 ar
  50   30   48 1
  51   31   32 1

#	End of record

