#	Name: ASD01910713
#	Creating user name:	WinNT
#	Creation time:	15. 06. 2019 19:56

#	Modifying user name:	WinNT
#	Modification time:	15. 06. 2019 19:56

#	Program:	/corina/corina34_cracker 3.40 0067  02.08.2006

@<TRIPOS>MOLECULE
ASD01910713
  55   58    0    0    0
SMALL
NO_CHARGES


@<TRIPOS>ATOM
   1 C1            12.4812    -1.9056     4.2719 C.ar    
   2 C2            13.1011    -2.0693     3.0404 C.ar    
   3 C3            12.3917    -1.7498     1.8965 C.ar    
   4 C4            11.0889    -1.2780     2.0181 C.ar    
   5 N5            10.5326    -1.1351     3.2113 N.ar    
   6 C6            11.1850    -1.4324     4.3189 C.ar    
   7 N7            10.3646    -0.9532     0.8770 N.3     
   8 C8             9.0191    -0.4774     1.2253 C.3     
   9 C9             8.3208     0.0389    -0.0373 C.3     
  10 N10            8.3616    -1.0182    -1.0592 N.am    
  11 C11            9.6585    -1.6411    -1.3647 C.3     
  12 C12           10.3041    -2.0912    -0.0498 C.3     
  13 C13            7.2404    -1.4055    -1.6989 C.2     
  14 C14            7.3210    -2.3785    -2.8064 C.ar    
  15 O15            6.1625    -0.9537    -1.3640 O.2     
  16 C16            6.3464    -3.3726    -2.9362 C.ar    
  17 C17            6.4169    -4.2835    -3.9682 C.ar    
  18 C18            7.4552    -4.2211    -4.8859 C.ar    
  19 C19            8.4401    -3.2270    -4.7658 C.ar    
  20 C20            8.3661    -2.3027    -3.7265 C.ar    
  21 C21            9.5130    -3.1603    -5.7119 C.1     
  22 C22           10.3926    -3.1057    -6.4875 C.1     
  23 C23           11.4655    -3.0390    -7.4335 C.ar    
  24 O24            7.5196    -5.1205    -5.8991 O.3     
  25 C25           12.4445    -2.0509    -7.3142 C.ar    
  26 C26           13.4798    -1.9933    -8.2343 C.ar    
  27 C27           13.5405    -2.9170    -9.2715 C.ar    
  28 C28           12.5709    -3.8956    -9.3904 C.ar    
  29 C29           11.5398    -3.9666    -8.4767 C.ar    
  30 N30           14.4621    -1.0066    -8.1196 N.pl3   
  31 C31            6.4849    -6.1042    -5.9602 C.3     
  32 H32           13.0061    -2.1501     5.1836 H       
  33 H33           14.1144    -2.4375     2.9769 H       
  34 H34           12.8435    -1.8648     0.9223 H       
  35 H35           10.6992    -1.3031     5.2748 H       
  36 H36            8.4417    -1.2984     1.6503 H       
  37 H37            9.0959     0.3294     1.9541 H       
  38 H38            7.2844     0.2861     0.1926 H       
  39 H39            8.8384     0.9245    -0.4058 H       
  40 H40            9.5065    -2.5045    -2.0124 H       
  41 H41           10.3047    -0.9169    -1.8608 H       
  42 H42           11.3128    -2.4548    -0.2457 H       
  43 H43            9.7088    -2.8897     0.3930 H       
  44 H44            5.5355    -3.4272    -2.2250 H       
  45 H45            5.6610    -5.0491    -4.0625 H       
  46 H46            9.1200    -1.5356    -3.6286 H       
  47 H47           12.3953    -1.3337    -6.5082 H       
  48 H48           14.3478    -2.8699    -9.9873 H       
  49 H49           12.6235    -4.6097   -10.1988 H       
  50 H50           10.7844    -4.7325    -8.5732 H       
  51 H51           14.4197    -0.3618    -7.3961 H       
  52 H52           15.1865    -0.9663    -8.7633 H       
  53 H53            6.6557    -6.7586    -6.8149 H       
  54 H54            6.4902    -6.6944    -5.0438 H       
  55 H55            5.5195    -5.6098    -6.0683 H       
@<TRIPOS>BOND
   1    1    2 ar
   2    1    6 ar
   3    1   32 1
   4    2    3 ar
   5    2   33 1
   6    3    4 ar
   7    3   34 1
   8    4    5 ar
   9    4    7 1
  10    5    6 ar
  11    6   35 1
  12    7    8 1
  13    7   12 1
  14    8    9 1
  15    8   36 1
  16    8   37 1
  17    9   10 1
  18    9   38 1
  19    9   39 1
  20   10   11 1
  21   10   13 am
  22   11   12 1
  23   11   40 1
  24   11   41 1
  25   12   42 1
  26   12   43 1
  27   13   14 1
  28   13   15 2
  29   14   16 ar
  30   14   20 ar
  31   16   17 ar
  32   16   44 1
  33   17   18 ar
  34   17   45 1
  35   18   19 ar
  36   18   24 1
  37   19   20 ar
  38   19   21 1
  39   20   46 1
  40   21   22 3
  41   22   23 1
  42   23   25 ar
  43   23   29 ar
  44   24   31 1
  45   25   26 ar
  46   25   47 1
  47   26   27 ar
  48   26   30 1
  49   27   28 ar
  50   27   48 1
  51   28   29 ar
  52   28   49 1
  53   29   50 1
  54   30   51 1
  55   30   52 1
  56   31   53 1
  57   31   54 1
  58   31   55 1

#	End of record

