#	Name: ASD06020062
#	Creating user name:	WinNT
#	Creation time:	15. 06. 2019 21:04

#	Modifying user name:	WinNT
#	Modification time:	15. 06. 2019 21:04

#	Program:	/corina/corina34_cracker 3.40 0067  02.08.2006

@<TRIPOS>MOLECULE
ASD06020062
  34   37    0    0    0
SMALL
NO_CHARGES


@<TRIPOS>ATOM
   1 C1            -0.0187     1.5258     0.0104 C.3     
   2 C2             0.0021    -0.0041     0.0020 C.3     
   3 C3             1.3165     0.7789    -0.0063 C.3     
   4 C4            -0.4176     2.2092     1.2929 C.2     
   5 O5            -0.7068     1.5482     2.2678 O.2     
   6 N6            -0.4530     3.5550     1.3566 N.am    
   7 F7            -0.3508    -0.6614     1.1855 F       
   8 C8            -0.8221     4.1873     2.5431 C.ar    
   9 C9            -0.8575     5.5836     2.6049 C.ar    
  10 C10           -1.2294     6.2125     3.7992 C.ar    
  11 C11           -1.5543     5.3741     4.8953 C.ar    
  12 C12           -1.4935     4.0240     4.7476 C.ar    
  13 N13           -1.1418     3.4636     3.6014 N.ar    
  14 S14           -0.5081     6.8272     1.4095 S.3     
  15 C15           -0.8827     8.0785     2.5877 C.2     
  16 N16           -1.2202     7.5436     3.7157 N.2     
  17 C17           -0.8202     9.5320     2.3263 C.ar    
  18 C18           -1.1397    10.4411     3.3372 C.ar    
  19 C19           -1.0786    11.7977     3.0859 C.ar    
  20 C20           -0.7022    12.2568     1.8365 C.ar    
  21 C21           -0.3844    11.3622     0.8304 C.ar    
  22 C22           -0.4359    10.0029     1.0688 C.ar    
  23 Cl23          -0.0297     8.8821    -0.1931 Cl      
  24 Cl24          -1.6129     9.8672     4.9058 Cl      
  25 H25           -0.3248     2.0300    -0.9061 H       
  26 H26           -0.2904    -0.5063    -0.9201 H       
  27 H27            1.8888     0.7918    -0.9339 H       
  28 H28            1.9064     0.7818     0.9103 H       
  29 H29           -0.2217     4.0837     0.5769 H       
  30 H30           -1.8477     5.8050     5.8412 H       
  31 H31           -1.7421     3.3918     5.5873 H       
  32 H32           -1.3257    12.5019     3.8666 H       
  33 H33           -0.6565    13.3188     1.6455 H       
  34 H34           -0.0913    11.7278    -0.1427 H       
@<TRIPOS>BOND
   1    1    2 1
   2    1    3 1
   3    1    4 1
   4    1   25 1
   5    2    3 1
   6    2    7 1
   7    2   26 1
   8    3   27 1
   9    3   28 1
  10    4    5 2
  11    4    6 am
  12    6    8 1
  13    6   29 1
  14    8    9 ar
  15    8   13 ar
  16    9   10 ar
  17    9   14 1
  18   10   11 ar
  19   10   16 1
  20   11   12 ar
  21   11   30 1
  22   12   13 ar
  23   12   31 1
  24   14   15 1
  25   15   16 2
  26   15   17 1
  27   17   18 ar
  28   17   22 ar
  29   18   19 ar
  30   18   24 1
  31   19   20 ar
  32   19   32 1
  33   20   21 ar
  34   20   33 1
  35   21   22 ar
  36   21   34 1
  37   22   23 1

#	End of record

