#	Name: ASD01814434
#	Creating user name:	WinNT
#	Creation time:	15. 06. 2019 19:32

#	Modifying user name:	WinNT
#	Modification time:	15. 06. 2019 19:32

#	Program:	/corina/corina34_cracker 3.40 0067  02.08.2006

@<TRIPOS>MOLECULE
ASD01814434
  53   58    0    0    0
SMALL
NO_CHARGES


@<TRIPOS>ATOM
   1 C1            -0.0167     1.3818     0.0096 C.ar    
   2 C2             0.0021    -0.0041     0.0020 C.ar    
   3 C3             1.1970    -0.6935    -0.0127 C.ar    
   4 C4             2.3990     0.0036    -0.0204 C.ar    
   5 C5             2.3750     1.4118    -0.0131 C.ar    
   6 C6             1.1663     2.0939     0.0022 C.ar    
   7 N7             3.6103    -0.6575    -0.0347 N.pl3   
   8 N8             4.7456    -0.0608    -0.0419 N.2     
   9 C9             4.8828     1.2398    -0.0366 C.2     
  10 C10            3.6771     2.1039    -0.0219 C.2     
  11 C11            6.0123     2.1723    -0.0425 C.2     
  12 N12            5.4768     3.4119    -0.0316 N.am    
  13 N13            4.0816     3.3386    -0.0196 N.2     
  14 C14            3.5988    -2.1224    -0.0414 C.3     
  15 C15            3.5818    -2.6181    -1.4645 C.ar    
  16 C16            4.7722    -2.8544    -2.1271 C.ar    
  17 C17            4.7597    -3.3088    -3.4314 C.ar    
  18 C18            3.5505    -3.5281    -4.0771 C.ar    
  19 C19            2.3570    -3.2899    -3.4092 C.ar    
  20 C20            2.3757    -2.8411    -2.1031 C.ar    
  21 O21            7.1981     1.8866    -0.0544 O.2     
  22 C22            6.2491     4.6568    -0.0324 C.3     
  23 C23            5.8944     5.4785    -1.2756 C.3     
  24 C24            6.6486     6.8108    -1.2258 C.3     
  25 C25            6.2951     7.5401     0.0730 C.3     
  26 O26            6.6215     6.7089     1.1886 O.3     
  27 C27            5.9110     5.4694     1.2203 C.3     
  28 N28            3.5347    -3.9889    -5.4016 N.pl3   
  29 C29            2.4237    -4.2430    -6.1458 C.2     
  30 C30            2.8699    -4.6649    -7.3523 C.2     
  31 N31            4.2061    -4.6494    -7.2908 N.2     
  32 N32            4.5683    -4.2399    -6.1267 N.2     
  33 H33           -0.9605     1.9069     0.0170 H       
  34 H34           -0.9294    -0.5506     0.0080 H       
  35 H35            1.1982    -1.7735    -0.0178 H       
  36 H36            1.1511     3.1738     0.0077 H       
  37 H37            4.4906    -2.4951     0.4625 H       
  38 H38            2.7107    -2.4812     0.4789 H       
  39 H39            5.7126    -2.6833    -1.6244 H       
  40 H40            5.6898    -3.4928    -3.9486 H       
  41 H41            1.4148    -3.4597    -3.9090 H       
  42 H42            1.4476    -2.6556    -1.5830 H       
  43 H43            7.3141     4.4248    -0.0408 H       
  44 H44            6.1843     4.9287    -2.1710 H       
  45 H45            4.8211     5.6675    -1.2937 H       
  46 H46            7.7219     6.6233    -1.2577 H       
  47 H47            6.3597     7.4250    -2.0786 H       
  48 H48            6.8617     8.4693     0.1339 H       
  49 H49            5.2283     7.7633     0.0858 H       
  50 H50            4.8392     5.6654     1.2481 H       
  51 H51            6.2010     4.9068     2.1077 H       
  52 H52            1.3950    -4.1314    -5.8364 H       
  53 H53            2.2656    -4.9572    -8.1983 H       
@<TRIPOS>BOND
   1    1    2 ar
   2    1    6 ar
   3    1   33 1
   4    2    3 ar
   5    2   34 1
   6    3    4 ar
   7    3   35 1
   8    4    5 ar
   9    4    7 1
  10    5    6 ar
  11    5   10 1
  12    6   36 1
  13    7    8 1
  14    7   14 1
  15    8    9 2
  16    9   10 1
  17    9   11 1
  18   10   13 2
  19   11   12 am
  20   11   21 2
  21   12   13 1
  22   12   22 1
  23   14   15 1
  24   14   37 1
  25   14   38 1
  26   15   16 ar
  27   15   20 ar
  28   16   17 ar
  29   16   39 1
  30   17   18 ar
  31   17   40 1
  32   18   19 ar
  33   18   28 1
  34   19   20 ar
  35   19   41 1
  36   20   42 1
  37   22   23 1
  38   22   27 1
  39   22   43 1
  40   23   24 1
  41   23   44 1
  42   23   45 1
  43   24   25 1
  44   24   46 1
  45   24   47 1
  46   25   26 1
  47   25   48 1
  48   25   49 1
  49   26   27 1
  50   27   50 1
  51   27   51 1
  52   28   29 1
  53   28   32 1
  54   29   30 2
  55   29   52 1
  56   30   31 1
  57   30   53 1
  58   31   32 2

#	End of record

