#	Name: ASD01840391
#	Creating user name:	WinNT
#	Creation time:	15. 06. 2019 19:37

#	Modifying user name:	WinNT
#	Modification time:	15. 06. 2019 19:37

#	Program:	/corina/corina34_cracker 3.40 0067  02.08.2006

@<TRIPOS>MOLECULE
ASD01840391
  52   55    0    0    0
SMALL
NO_CHARGES


@<TRIPOS>ATOM
   1 C1             0.0674     1.7717    -0.0461 C.ar    
   2 C2             0.0214     0.4497    -0.4306 C.ar    
   3 N3             1.1311    -0.2669    -0.4835 N.ar    
   4 N4             2.2799     0.2161    -0.1883 N.ar    
   5 C5             1.3259     2.3243     0.2841 C.ar    
   6 C6             1.6763     3.6647     0.7160 C.2     
   7 C7             2.4438     1.4839     0.1965 C.ar    
   8 S8             3.8966     2.3657     0.6463 S.3     
   9 C9             3.0006     3.8416     0.9480 C.2     
  10 C10           -1.1862     2.6059     0.0148 C.3     
  11 C11           -1.2983    -0.1819    -0.7917 C.3     
  12 N12            0.7390     4.6761     0.8769 N.pl3   
  13 C13            3.6023     5.0988     1.3902 C.2     
  14 O14            2.9016     6.0774     1.5742 O.2     
  15 N15            4.9324     5.1744     1.5939 N.am    
  16 C16            5.8912     4.0751     1.4102 C.3     
  17 C17            7.2869     4.6172     1.7842 C.3     
  18 C18            6.9565     5.8263     2.6987 C.3     
  19 C19            5.6677     6.3748     2.0319 C.3     
  20 N20            6.6971     5.3898     4.0730 N.am    
  21 C21            6.8875     6.2435     5.0984 C.2     
  22 N22            6.5684     5.8708     6.3536 N.am    
  23 C23            6.6619     6.8214     7.4730 C.3     
  24 C24            5.3380     6.7907     8.2453 C.3     
  25 O25            5.0228     5.4384     8.5854 O.3     
  26 C26            4.8184     4.5836     7.4578 C.3     
  27 C27            6.1103     4.5029     6.6443 C.3     
  28 O28            7.3470     7.3499     4.8910 O.2     
  29 H29           -1.5576     2.6293     1.0393 H       
  30 H30           -0.9635     3.6209    -0.3142 H       
  31 H31           -1.9441     2.1708    -0.6366 H       
  32 H32           -1.4826    -0.0539    -1.8584 H       
  33 H33           -1.2698    -1.2451    -0.5530 H       
  34 H34           -2.0972     0.2964    -0.2250 H       
  35 H35           -0.1976     4.5031     0.6935 H       
  36 H36            1.0208     5.5559     1.1729 H       
  37 H37            5.6298     3.2422     2.0629 H       
  38 H38            5.8867     3.7492     0.3700 H       
  39 H39            7.8588     3.8663     2.3293 H       
  40 H40            7.8254     4.9426     0.8942 H       
  41 H41            7.7550     6.5676     2.6700 H       
  42 H42            5.9178     7.0001     1.1749 H       
  43 H43            5.0776     6.9385     2.7545 H       
  44 H44            6.3885     4.4865     4.2449 H       
  45 H45            7.4790     6.5315     8.1335 H       
  46 H46            6.8390     7.8256     7.0880 H       
  47 H47            5.4338     7.3823     9.1557 H       
  48 H48            4.5441     7.2042     7.6234 H       
  49 H49            4.5404     3.5874     7.8018 H       
  50 H50            4.0226     4.9892     6.8331 H       
  51 H51            5.9224     3.9725     5.7108 H       
  52 H52            6.8710     3.9756     7.2200 H       
@<TRIPOS>BOND
   1    1    2 ar
   2    1    5 ar
   3    1   10 1
   4    2   11 1
   5    2    3 ar
   6    3    4 ar
   7    4    7 ar
   8    5    7 ar
   9    5    6 1
  10    6    9 2
  11    6   12 1
  12    7    8 1
  13    8    9 1
  14    9   13 1
  15   10   29 1
  16   10   30 1
  17   10   31 1
  18   11   32 1
  19   11   33 1
  20   11   34 1
  21   12   35 1
  22   12   36 1
  23   13   14 2
  24   13   15 am
  25   15   16 1
  26   15   19 1
  27   16   17 1
  28   16   37 1
  29   16   38 1
  30   17   18 1
  31   17   39 1
  32   17   40 1
  33   18   19 1
  34   18   20 1
  35   18   41 1
  36   19   42 1
  37   19   43 1
  38   20   21 am
  39   20   44 1
  40   21   22 am
  41   21   28 2
  42   22   23 1
  43   22   27 1
  44   23   24 1
  45   23   45 1
  46   23   46 1
  47   24   25 1
  48   24   47 1
  49   24   48 1
  50   25   26 1
  51   26   27 1
  52   26   49 1
  53   26   50 1
  54   27   51 1
  55   27   52 1

#	End of record

