#	Name: ASD01884853
#	Creating user name:	WinNT
#	Creation time:	15. 06. 2019 19:49

#	Modifying user name:	WinNT
#	Modification time:	15. 06. 2019 19:49

#	Program:	/corina/corina34_cracker 3.40 0067  02.08.2006

@<TRIPOS>MOLECULE
ASD01884853
  56   59    0    0    0
SMALL
NO_CHARGES


@<TRIPOS>ATOM
   1 C1            -0.0169     1.3946     0.0097 C.2     
   2 C2             0.0021    -0.0041     0.0020 C.2     
   3 C3            -1.1435    -0.7194     0.0096 C.2     
   4 N4            -2.3629    -0.1138     0.0250 N.pl3   
   5 C5            -2.4616     1.2563     0.0333 C.2     
   6 C6            -1.2368     2.0588     0.0307 C.2     
   7 C7            -3.6439    -0.5758     0.0352 C.2     
   8 N8            -4.4360     0.4642     0.0487 N.2     
   9 N9            -3.7459     1.5506     0.0476 N.2     
  10 C10           -4.0704    -2.0212     0.0317 C.3     
  11 C11            1.2734     2.1731     0.0016 C.3     
  12 N12            1.7682     2.3154     1.3774 N.3     
  13 C13            3.1330     2.8570     1.3925 C.3     
  14 C14            3.6682     2.8550     2.8262 C.3     
  15 C15            2.7516     3.7061     3.7092 C.3     
  16 C16            1.3268     3.1499     3.6378 C.3     
  17 C17            0.8594     3.1434     2.1805 C.3     
  18 C18            3.2396     3.6593     5.1343 C.ar    
  19 C19            3.6135     4.8287     5.7779 C.ar    
  20 C20            4.0631     4.7822     7.0918 C.ar    
  21 C21            4.1361     3.5698     7.7530 C.ar    
  22 C22            3.7624     2.4055     7.1069 C.ar    
  23 C23            3.3092     2.4511     5.8019 C.ar    
  24 C24           -4.2003    -2.5181     1.4729 C.3     
  25 O25            3.5409     6.0188     5.1247 O.3     
  26 C26            2.3120     6.7409     5.2266 C.3     
  27 F27            4.4288     5.9197     7.7224 F       
  28 C28           -4.6333    -3.9856     1.4694 C.3     
  29 C29           -1.2950     3.4896     0.0392 C.1     
  30 N30           -1.3412     4.6246     0.0459 N.1     
  31 H31            0.9500    -0.5214    -0.0106 H       
  32 H32           -1.0911    -1.7981     0.0029 H       
  33 H33           -5.0318    -2.1152    -0.4731 H       
  34 H34           -3.3247    -2.6188    -0.4928 H       
  35 H35            2.0137     1.6433    -0.5978 H       
  36 H36            1.0992     3.1606    -0.4258 H       
  37 H37            3.7755     2.2401     0.7641 H       
  38 H38            3.1230     3.8776     1.0100 H       
  39 H39            3.6916     1.8330     3.2045 H       
  40 H40            4.6754     3.2715     2.8392 H       
  41 H41            2.7585     4.7368     3.3545 H       
  42 H42            1.3132     2.1326     4.0288 H       
  43 H43            0.6611     3.7772     4.2306 H       
  44 H44            0.8600     4.1627     1.7943 H       
  45 H45           -0.1495     2.7346     2.1245 H       
  46 H46            4.4853     3.5321     8.7743 H       
  47 H47            3.8207     1.4594     7.6245 H       
  48 H48            3.0178     1.5402     5.3002 H       
  49 H49           -3.2388    -2.4242     1.9777 H       
  50 H50           -4.9460    -1.9206     1.9974 H       
  51 H51            1.5003     6.1355     4.8233 H       
  52 H52            2.1101     6.9686     6.2733 H       
  53 H53            2.3883     7.6696     4.6610 H       
  54 H54           -5.5948    -4.0795     0.9646 H       
  55 H55           -3.8876    -4.5831     0.9449 H       
  56 H56           -4.7259    -4.3396     2.4961 H       
@<TRIPOS>BOND
   1    1    2 1
   2    1   11 1
   3    1    6 2
   4    2    3 2
   5    2   31 1
   6    3    4 1
   7    3   32 1
   8    4    5 1
   9    4    7 1
  10    5    6 1
  11    5    9 2
  12    6   29 1
  13    7    8 2
  14    7   10 1
  15    8    9 1
  16   10   24 1
  17   10   33 1
  18   10   34 1
  19   11   12 1
  20   11   35 1
  21   11   36 1
  22   12   13 1
  23   12   17 1
  24   13   14 1
  25   13   37 1
  26   13   38 1
  27   14   15 1
  28   14   39 1
  29   14   40 1
  30   15   16 1
  31   15   18 1
  32   15   41 1
  33   16   17 1
  34   16   42 1
  35   16   43 1
  36   17   44 1
  37   17   45 1
  38   18   19 ar
  39   18   23 ar
  40   19   20 ar
  41   19   25 1
  42   20   21 ar
  43   20   27 1
  44   21   22 ar
  45   21   46 1
  46   22   23 ar
  47   22   47 1
  48   23   48 1
  49   24   28 1
  50   24   49 1
  51   24   50 1
  52   25   26 1
  53   26   51 1
  54   26   52 1
  55   26   53 1
  56   28   54 1
  57   28   55 1
  58   28   56 1
  59   29   30 3

#	End of record

