#	Name: ASD01910375
#	Creating user name:	WinNT
#	Creation time:	15. 06. 2019 19:55

#	Modifying user name:	WinNT
#	Modification time:	15. 06. 2019 19:55

#	Program:	/corina/corina34_cracker 3.40 0067  02.08.2006

@<TRIPOS>MOLECULE
ASD01910375
  45   47    0    0    0
SMALL
NO_CHARGES


@<TRIPOS>ATOM
   1 C1            -0.0789     1.4248     0.1476 C.ar    
   2 C2            -0.0488    -0.0065     0.1159 C.1     
   3 C3            -0.0241    -1.1800     0.0899 C.1     
   4 C4             0.0060    -2.6113     0.0582 C.ar    
   5 C5            -1.0595    -3.3458     0.5905 C.ar    
   6 C6            -1.0304    -4.7109     0.5595 C.ar    
   7 C7             0.0639    -5.3744    -0.0034 C.ar    
   8 C8             1.1290    -4.6412    -0.5350 C.ar    
   9 C9             1.0983    -3.2761    -0.5103 C.ar    
  10 C10            0.0949    -6.8500    -0.0362 C.2     
  11 O11            1.0707    -7.4468     0.3762 O.2     
  12 N12           -0.9584    -7.5356    -0.5231 N.am    
  13 C13            0.9836     2.1615    -0.3831 C.ar    
  14 C14            0.9475     3.5397    -0.3489 C.ar    
  15 C15           -0.1369     4.1933     0.2095 C.ar    
  16 C16           -1.1927     3.4706     0.7369 C.ar    
  17 C17           -1.1737     2.0920     0.7043 C.ar    
  18 C18           -0.9098    -8.9994    -0.6392 C.3     
  19 C19           -1.2585    -9.3918    -2.0783 C.3     
  20 C20           -2.6068    -8.7755    -2.4584 C.3     
  21 C21           -2.5117    -7.2499    -2.3832 C.3     
  22 C22           -2.1792    -6.8338    -0.9422 C.3     
  23 C23           -2.9749    -9.1937    -3.8834 C.3     
  24 O24           -4.2846    -8.7158    -4.1967 O.3     
  25 H25           -1.9046    -2.8334     1.0260 H       
  26 H26           -1.8527    -5.2779     0.9703 H       
  27 H27            1.9743    -5.1544    -0.9691 H       
  28 H28            1.9211    -2.7098    -0.9209 H       
  29 H29            1.8309     1.6528    -0.8186 H       
  30 H30            1.7679     4.1104    -0.7586 H       
  31 H31           -0.1593     5.2728     0.2341 H       
  32 H32           -2.0355     3.9876     1.1714 H       
  33 H33           -1.9983     1.5293     1.1163 H       
  34 H34            0.0927    -9.3521    -0.3970 H       
  35 H35           -1.6314    -9.4444     0.0460 H       
  36 H36           -0.4865    -9.0224    -2.7534 H       
  37 H37           -1.3202   -10.4773    -2.1547 H       
  38 H38           -3.3739    -9.1260    -1.7677 H       
  39 H39           -1.7279    -6.9007    -3.0553 H       
  40 H40           -3.4653    -6.8110    -2.6765 H       
  41 H41           -3.0057    -7.1026    -0.2844 H       
  42 H42           -2.0126    -5.7574    -0.9020 H       
  43 H43           -2.2559    -8.7688    -4.5838 H       
  44 H44           -2.9570   -10.2809    -3.9590 H       
  45 H45           -4.5842    -8.9448    -5.0872 H       
@<TRIPOS>BOND
   1    1    2 1
   2    1   13 ar
   3    1   17 ar
   4    2    3 3
   5    3    4 1
   6    4    5 ar
   7    4    9 ar
   8    5    6 ar
   9    5   25 1
  10    6    7 ar
  11    6   26 1
  12    7    8 ar
  13    7   10 1
  14    8    9 ar
  15    8   27 1
  16    9   28 1
  17   10   11 2
  18   10   12 am
  19   12   18 1
  20   12   22 1
  21   13   14 ar
  22   13   29 1
  23   14   15 ar
  24   14   30 1
  25   15   16 ar
  26   15   31 1
  27   16   17 ar
  28   16   32 1
  29   17   33 1
  30   18   19 1
  31   18   34 1
  32   18   35 1
  33   19   20 1
  34   19   36 1
  35   19   37 1
  36   20   21 1
  37   20   23 1
  38   20   38 1
  39   21   22 1
  40   21   39 1
  41   21   40 1
  42   22   41 1
  43   22   42 1
  44   23   24 1
  45   23   43 1
  46   23   44 1
  47   24   45 1

#	End of record

