#	Name: ASD01140404
#	Creating user name:	WinNT
#	Creation time:	15. 06. 2019 19:00

#	Modifying user name:	WinNT
#	Modification time:	15. 06. 2019 19:00

#	Program:	/corina/corina34_cracker 3.40 0067  02.08.2006

@<TRIPOS>MOLECULE
ASD01140404
  46   50    0    0    0
SMALL
NO_CHARGES


@<TRIPOS>ATOM
   1 C1            -0.0170     1.4031     0.0098 C.2     
   2 C2             0.0021    -0.0041     0.0020 C.2     
   3 C3             1.1978    -0.6509    -0.0129 C.2     
   4 C4             2.4013     0.0859    -0.0204 C.2     
   5 N5             2.3844     1.4010    -0.0128 N.2     
   6 N6             1.1720     2.0929     0.0021 N.pl3   
   7 N7            -0.4805     3.4868     0.0230 N.2     
   8 N8            -0.9878     2.3041     0.0186 N.2     
   9 C9             0.8375     3.4155     0.0124 C.2     
  10 N10            7.4346    -2.3976    -0.0805 N.pl3   
  11 C11            8.2483    -1.2975    -0.0826 C.2     
  12 C12            7.5063    -0.1791    -0.0700 C.2     
  13 C13            6.1021    -0.5977    -0.0590 C.ar    
  14 C14            4.8877     0.0875    -0.0442 C.ar    
  15 C15            3.6998    -0.6308    -0.0367 C.ar    
  16 C16            3.7254    -2.0298    -0.0440 C.ar    
  17 C17            4.9113    -2.7046    -0.0585 C.ar    
  18 C18            6.1154    -2.0052    -0.0662 C.ar    
  19 C19            7.8987    -3.7870    -0.0974 C.3     
  20 C20            7.9229    -4.2992    -1.5389 C.3     
  21 C21            8.4076    -5.7502    -1.5566 C.3     
  22 C22            1.7763     4.5566     0.0100 C.ar    
  23 C23            1.2889     5.8669     0.0217 C.ar    
  24 C24            2.1722     6.9292     0.0193 C.ar    
  25 C25            3.5361     6.6987     0.0050 C.ar    
  26 C26            4.0259     5.4027    -0.0066 C.ar    
  27 C27            3.1534     4.3310     0.0019 C.ar    
  28 F28            5.3593     5.1861    -0.0206 F       
  29 F29           -0.0428     6.0938     0.0348 F       
  30 H30           -0.9219    -0.5633     0.0082 H       
  31 H31            1.2266    -1.7305    -0.0186 H       
  32 H32            9.3279    -1.3250    -0.0923 H       
  33 H33            7.8743     0.8363    -0.0680 H       
  34 H34            4.8714     1.1674    -0.0382 H       
  35 H35            2.7968    -2.5813    -0.0377 H       
  36 H36            4.9161    -3.7846    -0.0636 H       
  37 H37            8.9027    -3.8399     0.3238 H       
  38 H38            7.2229    -4.4031     0.4958 H       
  39 H39            6.9189    -4.2463    -1.9602 H       
  40 H40            8.5987    -3.6831    -2.1321 H       
  41 H41            8.4248    -6.1151    -2.5835 H       
  42 H42            9.4115    -5.8031    -1.1354 H       
  43 H43            7.7318    -6.3663    -0.9634 H       
  44 H44            1.7970     7.9419     0.0283 H       
  45 H45            4.2223     7.5327     0.0025 H       
  46 H46            3.5364     3.3212    -0.0027 H       
@<TRIPOS>BOND
   1    1    2 1
   2    1    6 1
   3    1    8 2
   4    2    3 2
   5    2   30 1
   6    3    4 1
   7    3   31 1
   8    4    5 2
   9    4   15 1
  10    5    6 1
  11    6    9 1
  12    7    8 1
  13    7    9 2
  14    9   22 1
  15   10   11 1
  16   10   18 1
  17   10   19 1
  18   11   12 2
  19   11   32 1
  20   12   13 1
  21   12   33 1
  22   13   14 ar
  23   13   18 ar
  24   14   15 ar
  25   14   34 1
  26   15   16 ar
  27   16   17 ar
  28   16   35 1
  29   17   18 ar
  30   17   36 1
  31   19   20 1
  32   19   37 1
  33   19   38 1
  34   20   21 1
  35   20   39 1
  36   20   40 1
  37   21   41 1
  38   21   42 1
  39   21   43 1
  40   22   23 ar
  41   22   27 ar
  42   23   24 ar
  43   23   29 1
  44   24   25 ar
  45   24   44 1
  46   25   26 ar
  47   25   45 1
  48   26   27 ar
  49   26   28 1
  50   27   46 1

#	End of record

