#	Name: ASD08150553
#	Creating user name:	WinNT
#	Creation time:	15. 06. 2019 21:16

#	Modifying user name:	WinNT
#	Modification time:	15. 06. 2019 21:16

#	Program:	/corina/corina34_cracker 3.40 0067  02.08.2006

@<TRIPOS>MOLECULE
ASD08150553
  62   68    0    0    0
SMALL
NO_CHARGES


@<TRIPOS>ATOM
   1 N1             0.0051     1.3804     0.0495 N.am    
   2 C2             0.0226     0.0346    -0.0068 C.2     
   3 C3             1.2414    -0.6733    -0.0238 C.2     
   4 C4             2.4212    -0.0031     0.0166 C.2     
   5 C5             2.4065     1.4129     0.0755 C.ar    
   6 C6             3.6014     2.1563     0.1192 C.ar    
   7 N7             3.5850     3.4625     0.1739 N.ar    
   8 C8             2.4425     4.1657     0.1911 C.ar    
   9 C9             1.1924     3.5004     0.1496 C.ar    
  10 C10            1.1755     2.0870     0.0910 C.ar    
  11 C11            0.0698     5.6255     0.2278 C.ar    
  12 C12            1.3106     6.2769     0.2685 C.ar    
  13 C13            2.4714     5.5687     0.2508 C.ar    
  14 O14           -1.0301    -0.5796    -0.0432 O.2     
  15 C15           -1.2195     2.0609     0.0599 C.ar    
  16 C16           -1.9790     2.1412    -1.1000 C.ar    
  17 C17           -3.1866     2.8117    -1.0896 C.ar    
  18 C18           -3.6411     3.4058     0.0820 C.ar    
  19 C19           -2.8807     3.3249     1.2415 C.ar    
  20 C20           -1.6765     2.6502     1.2318 C.ar    
  21 C21            0.0076     4.2426     0.1685 C.ar    
  22 C22           -1.1822     6.4204     0.2487 C.ar    
  23 C23           -2.4249     5.7866     0.0903 C.ar    
  24 N24           -4.8636     4.0853     0.0932 N.3     
  25 Cl25          -4.1361     2.9129    -2.5394 Cl      
  26 N26           -3.5456     6.4627     0.1050 N.ar    
  27 C27           -3.5631     7.7895     0.2713 C.ar    
  28 C28           -2.3488     8.5021     0.4378 C.ar    
  29 C29           -1.1342     7.7950     0.4306 C.ar    
  30 C30           -4.7770     8.4985     0.2837 C.ar    
  31 C31           -4.7700     9.8487     0.4541 C.ar    
  32 C32           -3.5752    10.5472     0.6173 C.ar    
  33 C33           -2.3797     9.8963     0.6110 C.ar    
  34 C34           -5.9865     3.1469     0.2276 C.3     
  35 C35           -5.0158     4.9153    -1.1100 C.3     
  36 C36           -6.3262     5.7012    -1.0220 C.3     
  37 N37           -7.4491     4.7628    -0.8875 N.3     
  38 C38           -7.2969     3.9328     0.3157 C.3     
  39 H39            1.2366    -1.7524    -0.0688 H       
  40 H40            3.3576    -0.5411     0.0045 H       
  41 H41            4.5489     1.6381     0.1076 H       
  42 H42            1.3450     7.3553     0.3142 H       
  43 H43            3.4185     6.0867     0.2832 H       
  44 H44           -1.6253     1.6797    -2.0101 H       
  45 H45           -3.2337     3.7864     2.1519 H       
  46 H46           -1.0857     2.5872     2.1337 H       
  47 H47           -0.9487     3.7417     0.1368 H       
  48 H48           -2.4570     4.7159    -0.0471 H       
  49 H49           -0.1915     8.3073     0.5548 H       
  50 H50           -5.7123     7.9733     0.1580 H       
  51 H51           -5.7058    10.3878     0.4628 H       
  52 H52           -3.5981    11.6188     0.7500 H       
  53 H53           -1.4601    10.4481     0.7386 H       
  54 H54           -6.0154     2.4877    -0.6400 H       
  55 H55           -5.8574     2.5526     1.1322 H       
  56 H56           -4.1790     5.6102    -1.1807 H       
  57 H57           -5.0337     4.2761    -1.9928 H       
  58 H58           -6.2973     6.3604    -0.1544 H       
  59 H59           -6.4552     6.2955    -1.9265 H       
  60 H60           -8.3310     5.2529    -0.8795 H       
  61 H61           -8.1337     3.2379     0.3863 H       
  62 H62           -7.2790     4.5719     1.1984 H       
@<TRIPOS>BOND
   1    1    2 am
   2    1   10 1
   3    1   15 1
   4    2    3 1
   5    2   14 2
   6    3    4 2
   7    3   39 1
   8    4    5 1
   9    4   40 1
  10    5    6 ar
  11    5   10 ar
  12    6    7 ar
  13    6   41 1
  14    7    8 ar
  15    8    9 ar
  16    8   13 ar
  17    9   10 ar
  18    9   21 ar
  19   11   12 ar
  20   11   22 1
  21   11   21 ar
  22   12   13 ar
  23   12   42 1
  24   13   43 1
  25   15   16 ar
  26   15   20 ar
  27   16   17 ar
  28   16   44 1
  29   17   18 ar
  30   17   25 1
  31   18   19 ar
  32   18   24 1
  33   19   20 ar
  34   19   45 1
  35   20   46 1
  36   21   47 1
  37   22   23 ar
  38   22   29 ar
  39   23   26 ar
  40   23   48 1
  41   24   34 1
  42   24   35 1
  43   26   27 ar
  44   27   28 ar
  45   27   30 ar
  46   28   29 ar
  47   28   33 ar
  48   29   49 1
  49   30   31 ar
  50   30   50 1
  51   31   32 ar
  52   31   51 1
  53   32   33 ar
  54   32   52 1
  55   33   53 1
  56   34   38 1
  57   34   54 1
  58   34   55 1
  59   35   36 1
  60   35   56 1
  61   35   57 1
  62   36   37 1
  63   36   58 1
  64   36   59 1
  65   37   38 1
  66   37   60 1
  67   38   61 1
  68   38   62 1

#	End of record

