#	Name: ASD02030116
#	Creating user name:	WinNT
#	Creation time:	15. 06. 2019 20:14

#	Modifying user name:	WinNT
#	Modification time:	15. 06. 2019 20:14

#	Program:	/corina/corina34_cracker 3.40 0067  02.08.2006

@<TRIPOS>MOLECULE
ASD02030116
  53   56    0    0    0
SMALL
NO_CHARGES


@<TRIPOS>ATOM
   1 N1            -1.2411     0.8134    -2.0987 N.am    
   2 C2            -1.4913    -0.6107    -1.8353 C.3     
   3 C3            -1.7258    -0.7971    -0.3311 C.3     
   4 N4            -2.7180     0.1908     0.1155 N.am    
   5 C5            -2.4678     1.6149    -0.1479 C.3     
   6 C6            -2.2307     1.8017    -1.6471 C.3     
   7 C7            -0.1216     1.2064    -2.7379 C.2     
   8 C8             0.9299     0.2190    -3.0618 C.2     
   9 N9             2.1140     0.4877    -3.5683 N.2     
  10 N10            0.8467    -1.1125    -2.8852 N.2     
  11 C11            1.9779    -1.6302    -3.2915 C.2     
  12 N12            2.7607    -0.6170    -3.7160 N.pl3   
  13 O13            0.0236     2.3727    -3.0480 O.2     
  14 C14           -3.8376    -0.2022     0.7547 C.2     
  15 C15           -4.1498    -1.6247     0.8738 C.2     
  16 O16           -4.5889     0.6282     1.2330 O.2     
  17 C17           -1.7056     3.2141    -1.9119 C.3     
  18 C18           -3.5423     1.5872    -2.4051 C.3     
  19 C19            4.0578    -0.7444    -4.2310 C.ar    
  20 C20            4.7599     0.3835    -4.6346 C.ar    
  21 C21            6.0381     0.2548    -5.1418 C.ar    
  22 C22            6.6185    -0.9958    -5.2484 C.ar    
  23 C23            5.9218    -2.1210    -4.8473 C.ar    
  24 C24            4.6457    -1.9981    -4.3335 C.ar    
  25 C25           -5.3443    -2.2047     0.5432 C.2     
  26 S26           -3.0479    -2.8642     1.4574 S.3     
  27 C27           -4.2250    -4.0801     1.2401 C.2     
  28 C28           -5.3676    -3.5601     0.7532 C.2     
  29 O29           -4.0343    -5.3932     1.5168 O.3     
  30 C30           -2.7531    -5.7696     2.0257 C.3     
  31 H31           -2.3742    -0.9350    -2.3861 H       
  32 H32           -0.6271    -1.1976    -2.1463 H       
  33 H33           -2.1000    -1.8030    -0.1411 H       
  34 H34           -0.7900    -0.6445     0.2067 H       
  35 H35           -3.3321     2.2017     0.1631 H       
  36 H36           -1.5849     1.9392     0.4029 H       
  37 H37            2.2386    -2.6782    -3.2851 H       
  38 H38           -0.6580     3.2736    -1.6168 H       
  39 H39           -1.7975     3.4429    -2.9736 H       
  40 H40           -2.2872     3.9323    -1.3338 H       
  41 H41           -4.2823     2.3106    -2.0627 H       
  42 H42           -3.3708     1.7209    -3.4732 H       
  43 H43           -3.9083     0.5774    -2.2195 H       
  44 H44            4.3069     1.3605    -4.5523 H       
  45 H45            6.5847     1.1317    -5.4559 H       
  46 H46            7.6178    -1.0940    -5.6460 H       
  47 H47            6.3778    -3.0963    -4.9317 H       
  48 H48            4.1022    -2.8772    -4.0201 H       
  49 H49           -6.1860    -1.6499     0.1558 H       
  50 H50           -6.2379    -4.1648     0.5448 H       
  51 H51           -1.9828    -5.5083     1.3001 H       
  52 H52           -2.5647    -5.2428     2.9612 H       
  53 H53           -2.7345    -6.8447     2.2041 H       
@<TRIPOS>BOND
   1    1    2 1
   2    1    7 am
   3    1    6 1
   4    2    3 1
   5    2   31 1
   6    2   32 1
   7    3    4 1
   8    3   33 1
   9    3   34 1
  10    4    5 1
  11    4   14 am
  12    5    6 1
  13    5   35 1
  14    5   36 1
  15    6   17 1
  16    6   18 1
  17    7    8 1
  18    7   13 2
  19    8    9 2
  20    8   10 1
  21    9   12 1
  22   10   11 2
  23   11   12 1
  24   11   37 1
  25   12   19 1
  26   14   15 1
  27   14   16 2
  28   15   26 1
  29   15   25 2
  30   17   38 1
  31   17   39 1
  32   17   40 1
  33   18   41 1
  34   18   42 1
  35   18   43 1
  36   19   20 ar
  37   19   24 ar
  38   20   21 ar
  39   20   44 1
  40   21   22 ar
  41   21   45 1
  42   22   23 ar
  43   22   46 1
  44   23   24 ar
  45   23   47 1
  46   24   48 1
  47   25   28 1
  48   25   49 1
  49   26   27 1
  50   27   28 2
  51   27   29 1
  52   28   50 1
  53   29   30 1
  54   30   51 1
  55   30   52 1
  56   30   53 1

#	End of record

