#	Name: ASD08178224
#	Creating user name:	WinNT
#	Creation time:	15. 06. 2019 21:18

#	Modifying user name:	WinNT
#	Modification time:	15. 06. 2019 21:18

#	Program:	/corina/corina34_cracker 3.40 0067  02.08.2006

@<TRIPOS>MOLECULE
ASD08178224
  67   70    0    0    0
SMALL
NO_CHARGES


@<TRIPOS>ATOM
   1 C1            -0.0191     1.5027     0.0208 C.ar    
   2 C2             0.0010    -0.0042     0.0167 C.3     
   3 C3            -0.8036    -0.5282     1.2079 C.3     
   4 C4            -0.7831    -2.0581     1.2037 C.3     
   5 C5            -1.5877    -2.5822     2.3949 C.3     
   6 C6            -1.5676    -4.0890     2.3908 C.2     
   7 N7            -0.6930    -4.8429     2.9775 N.2     
   8 N8            -0.8497    -6.0898     2.8560 N.2     
   9 C9            -1.8647    -6.5049     2.1598 C.2     
  10 S10           -2.7352    -5.1430     1.5924 S.3     
  11 N11           -2.1934    -7.8347     1.9197 N.am    
  12 C12           -1.4285    -8.8206     2.4291 C.2     
  13 C13           -1.7847   -10.2616     2.1689 C.3     
  14 O14           -0.4534    -8.5480     3.0969 O.2     
  15 C15           -0.7784   -11.1576     2.8438 C.ar    
  16 C16           -0.9909   -11.5804     4.1424 C.ar    
  17 C17           -0.0677   -12.4024     4.7616 C.ar    
  18 C18            1.0676   -12.8016     4.0819 C.ar    
  19 C19            1.2798   -12.3794     2.7826 C.ar    
  20 C20            0.3547   -11.5612     2.1621 C.ar    
  21 C21            1.1728     2.2124     0.0067 C.ar    
  22 C22            1.1067     3.5974     0.0112 C.ar    
  23 C23           -0.1542     4.1903     0.0296 C.ar    
  24 N24           -1.2377     3.4283     0.0421 N.ar    
  25 N25           -1.1697     2.1466     0.0324 N.ar    
  26 N26           -0.2749     5.5795     0.0353 N.am    
  27 C27           -1.4926     6.1505    -0.0517 C.2     
  28 C28           -1.6342     7.6458     0.0713 C.3     
  29 O29           -2.4744     5.4610    -0.2290 O.2     
  30 C30            2.5179   -12.8143     2.0417 C.3     
  31 N31            2.2463   -14.0697     1.3288 N.3     
  32 O32           -2.9931     8.0169    -0.1693 O.3     
  33 C33           -1.2342     8.0757     1.4592 C.ar    
  34 C34            0.0226     8.6060     1.6830 C.ar    
  35 C35           -2.1261     7.9450     2.5070 C.ar    
  36 C36           -1.7602     8.3401     3.7804 C.ar    
  37 C37           -0.5023     8.8660     4.0063 C.ar    
  38 C38            0.3894     9.0011     2.9569 C.ar    
  39 Cl39           1.9700     9.6610     3.2400 Cl      
  40 H40           -0.4408    -0.3709    -0.9098 H       
  41 H41            1.0306    -0.3540     0.0916 H       
  42 H42           -0.3618    -0.1615     2.1344 H       
  43 H43           -1.8332    -0.1784     1.1330 H       
  44 H44           -1.2250    -2.4249     0.2772 H       
  45 H45            0.2465    -2.4079     1.2786 H       
  46 H46           -1.1459    -2.2154     3.3214 H       
  47 H47           -2.6174    -2.2324     2.3200 H       
  48 H48           -2.9732    -8.0527     1.3856 H       
  49 H49           -2.7786   -10.4676     2.5661 H       
  50 H50           -1.7763   -10.4498     1.0953 H       
  51 H51           -1.8781   -11.2684     4.6735 H       
  52 H52           -0.2334   -12.7322     5.7766 H       
  53 H53            1.7892   -13.4431     4.5659 H       
  54 H54            0.5205   -11.2314     1.1471 H       
  55 H55            2.1241     1.7012    -0.0070 H       
  56 H56            2.0044     4.1978     0.0010 H       
  57 H57            0.5176     6.1349     0.1018 H       
  58 H58           -0.9895     8.1332    -0.6601 H       
  59 H59            2.8020   -12.0437     1.3251 H       
  60 H60            3.3309   -12.9680     2.7513 H       
  61 H61            3.0619   -14.3825     0.8237 H       
  62 H62            1.9188   -14.7824     1.9636 H       
  63 H63           -3.6243     7.6190     0.4458 H       
  64 H64            0.7180     8.7116     0.8635 H       
  65 H65           -3.1094     7.5345     2.3309 H       
  66 H66           -2.4576     8.2381     4.5987 H       
  67 H67           -0.2168     9.1753     5.0009 H       
@<TRIPOS>BOND
   1    1    2 1
   2    1   21 ar
   3    1   25 ar
   4    2    3 1
   5    2   40 1
   6    2   41 1
   7    3    4 1
   8    3   42 1
   9    3   43 1
  10    4    5 1
  11    4   44 1
  12    4   45 1
  13    5    6 1
  14    5   46 1
  15    5   47 1
  16    6    7 2
  17    6   10 1
  18    7    8 1
  19    8    9 2
  20    9   10 1
  21    9   11 1
  22   11   12 am
  23   11   48 1
  24   12   13 1
  25   12   14 2
  26   13   15 1
  27   13   49 1
  28   13   50 1
  29   15   16 ar
  30   15   20 ar
  31   16   17 ar
  32   16   51 1
  33   17   18 ar
  34   17   52 1
  35   18   19 ar
  36   18   53 1
  37   19   20 ar
  38   19   30 1
  39   20   54 1
  40   21   22 ar
  41   21   55 1
  42   22   23 ar
  43   22   56 1
  44   23   24 ar
  45   23   26 1
  46   24   25 ar
  47   26   27 am
  48   26   57 1
  49   27   28 1
  50   27   29 2
  51   28   32 1
  52   28   33 1
  53   28   58 1
  54   30   31 1
  55   30   59 1
  56   30   60 1
  57   31   61 1
  58   31   62 1
  59   32   63 1
  60   33   34 ar
  61   33   35 ar
  62   34   38 ar
  63   34   64 1
  64   35   36 ar
  65   35   65 1
  66   36   37 ar
  67   36   66 1
  68   37   38 ar
  69   37   67 1
  70   38   39 1

#	End of record

