#	Name: ASD01230056
#	Creating user name:	WinNT
#	Creation time:	15. 06. 2019 19:11

#	Modifying user name:	WinNT
#	Modification time:	15. 06. 2019 19:11

#	Program:	/corina/corina34_cracker 3.40 0067  02.08.2006

@<TRIPOS>MOLECULE
ASD01230056
  61   64    0    0    0
SMALL
NO_CHARGES


@<TRIPOS>ATOM
   1 P1            -0.0180     1.4758     0.0102 P.3     
   2 O2             0.0021    -0.0041     0.0020 O.2     
   3 O3             1.4924     2.0330    -0.0013 O.3     
   4 O4            -0.7967     2.0091    -1.2942 O.3     
   5 N5            -0.8057     2.0185     1.3948 N.3     
   6 O6            -2.9690     4.2651     1.9428 O.3     
   7 C7            -2.1659     3.9953     0.8972 C.2     
   8 C8            -0.8449     3.4864     1.4370 C.3     
   9 C9            -0.8028     3.9845     2.8986 C.3     
  10 C10           -2.1422     4.7372     3.0489 C.3     
  11 O11           -2.4493     4.1341    -0.2691 O.2     
  12 C12           -1.9186     6.2468     2.9387 C.3     
  13 C13           -2.7982     4.3924     4.3875 C.3     
  14 C14            2.3232     1.3961     0.8653 C.ar    
  15 C15            3.0337     0.2784     0.4523 C.ar    
  16 C16            3.8775    -0.3674     1.3351 C.ar    
  17 C17            4.0143     0.0993     2.6294 C.ar    
  18 C18            3.3069     1.2128     3.0436 C.ar    
  19 C19            2.4665     1.8658     2.1628 C.ar    
  20 C20           -2.0843     1.5269    -1.6833 C.3     
  21 O21           -1.6795     1.8726    -4.0670 O.3     
  22 C22           -2.5317     2.2407    -2.9605 C.3     
  23 C23           -3.9427     1.7678    -3.3748 C.3     
  24 C24           -3.8852     1.7216    -4.9181 C.3     
  25 C25           -2.4461     2.1721    -5.2537 C.3     
  26 O26           -4.9321     2.7020    -2.9384 O.3     
  27 F27           -4.1113     0.4200    -5.3784 F       
  28 F28           -4.8173     2.6069    -5.4701 F       
  29 C29           -1.7960     0.0815    -6.3143 C.2     
  30 N30           -1.3294    -0.6289    -7.3397 N.2     
  31 C31           -0.9835    -0.0342    -8.4740 C.2     
  32 C32           -1.1113     1.3649    -8.5946 C.2     
  33 C33           -1.5872     2.0731    -7.5431 C.2     
  34 N34           -1.9295     1.4178    -6.3985 N.am    
  35 O35           -2.1121    -0.4893    -5.2836 O.2     
  36 N36           -0.5023    -0.7781    -9.5263 N.pl3   
  37 H37           -1.7348     1.6300     1.4581 H       
  38 H38           -0.0151     3.9045     0.8672 H       
  39 H39           -0.7534     3.1440     3.5908 H       
  40 H40            0.0384     4.6606     3.0512 H       
  41 H41           -2.8779     6.7612     2.9950 H       
  42 H42           -1.2790     6.5800     3.7560 H       
  43 H43           -1.4396     6.4745     1.9864 H       
  44 H44           -2.9388     3.3137     4.4560 H       
  45 H45           -2.1576     4.7278     5.2031 H       
  46 H46           -3.7654     4.8901     4.4569 H       
  47 H47            2.9269    -0.0868    -0.5585 H       
  48 H48            4.4305    -1.2378     1.0141 H       
  49 H49            4.6745    -0.4069     3.3181 H       
  50 H50            3.4149     1.5750     4.0553 H       
  51 H51            1.9180     2.7383     2.4854 H       
  52 H52           -2.0302     0.4538    -1.8667 H       
  53 H53           -2.8019     1.7236    -0.8868 H       
  54 H54           -2.5207     3.3210    -2.8162 H       
  55 H55           -4.1474     0.7765    -2.9704 H       
  56 H56           -2.4220     3.2419    -5.4611 H       
  57 H57           -5.8371     2.4543    -3.1721 H       
  58 H58           -0.8336     1.8639    -9.5112 H       
  59 H59           -1.6939     3.1457    -7.6109 H       
  60 H60           -0.4152    -1.7404    -9.4403 H       
  61 H61           -0.2502    -0.3404   -10.3544 H       
@<TRIPOS>BOND
   1    1    2 2
   2    1    3 1
   3    1    4 1
   4    1    5 1
   5    3   14 1
   6    4   20 1
   7    5    8 1
   8    5   37 1
   9    6    7 1
  10    6   10 1
  11    7    8 1
  12    7   11 2
  13    8    9 1
  14    8   38 1
  15    9   10 1
  16    9   39 1
  17    9   40 1
  18   10   12 1
  19   10   13 1
  20   12   41 1
  21   12   42 1
  22   12   43 1
  23   13   44 1
  24   13   45 1
  25   13   46 1
  26   14   15 ar
  27   14   19 ar
  28   15   16 ar
  29   15   47 1
  30   16   17 ar
  31   16   48 1
  32   17   18 ar
  33   17   49 1
  34   18   19 ar
  35   18   50 1
  36   19   51 1
  37   20   22 1
  38   20   52 1
  39   20   53 1
  40   21   22 1
  41   21   25 1
  42   22   23 1
  43   22   54 1
  44   23   24 1
  45   23   26 1
  46   23   55 1
  47   24   25 1
  48   24   27 1
  49   24   28 1
  50   25   34 1
  51   25   56 1
  52   26   57 1
  53   29   30 1
  54   29   34 am
  55   29   35 2
  56   30   31 2
  57   31   32 1
  58   31   36 1
  59   32   33 2
  60   32   58 1
  61   33   34 1
  62   33   59 1
  63   36   60 1
  64   36   61 1

#	End of record

