#	Name: ASD01410647
#	Creating user name:	WinNT
#	Creation time:	15. 06. 2019 19:18

#	Modifying user name:	WinNT
#	Modification time:	15. 06. 2019 19:18

#	Program:	/corina/corina34_cracker 3.40 0067  02.08.2006

@<TRIPOS>MOLECULE
ASD01410647
  64   67    0    0    0
SMALL
NO_CHARGES


@<TRIPOS>ATOM
   1 C1             2.0596     4.6713    -0.4968 C.ar    
   2 C2             2.5694     4.4686    -1.7717 C.ar    
   3 C3             3.6152     3.5842    -1.9485 C.ar    
   4 N4             4.1315     2.9338    -0.9234 N.ar    
   5 C5             3.6729     3.1002     0.3064 C.ar    
   6 C6             2.6228     3.9740     0.5580 C.ar    
   7 O7             4.2333     2.4106     1.3315 O.3     
   8 C8             5.1879     1.4885     1.0343 C.ar    
   9 C9             6.4981     1.8972     0.7978 C.ar    
  10 C10            7.4756     0.9675     0.4954 C.ar    
  11 C11            7.1560    -0.3807     0.4258 C.ar    
  12 C12            5.8368    -0.7981     0.6633 C.ar    
  13 C13            4.8562     0.1490     0.9736 C.ar    
  14 F14            6.8153     3.2088     0.8638 F       
  15 N15            8.1410    -1.3174     0.1206 N.am    
  16 C16            8.9861    -1.7436     1.0802 C.2     
  17 C17            8.2584    -1.8392    -1.2433 C.3     
  18 O18            9.9067    -2.4845     0.7942 O.2     
  19 C19            8.7938    -1.3110     2.4783 C.ar    
  20 C20            7.6146    -0.6648     2.8572 C.ar    
  21 C21            7.4408    -0.2637     4.1641 C.ar    
  22 C22            8.4319    -0.4994     5.1035 C.ar    
  23 C23            9.6029    -1.1385     4.7378 C.ar    
  24 C24            9.7890    -1.5513     3.4314 C.ar    
  25 Br25           8.1827     0.0560     6.8938 Br      
  26 C26            8.2288    -3.3685    -1.2086 C.3     
  27 C27            9.5782    -1.3684    -1.8576 C.3     
  28 C28            1.9875     5.2054    -2.9505 C.3     
  29 O29            9.5724     0.0566    -1.9644 O.3     
  30 N30            2.7007     6.4717    -3.1353 N.pl3   
  31 C31           10.7663     0.6020    -2.5293 C.3     
  32 N32            3.7460     6.6211    -3.8692 N.2     
  33 C33            4.1265     7.8772    -3.8103 C.2     
  34 C34            3.2162     8.5135    -2.9633 C.2     
  35 N35            2.3633     7.5865    -2.5901 N.2     
  36 F36           10.9325    -2.1759     3.0744 F       
  37 C37            2.1041     4.1607     1.9605 C.3     
  38 F38            1.0538     5.0848     1.9500 F       
  39 F39            1.6424     2.9357     2.4539 F       
  40 F40            3.1344     4.6349     2.7795 F       
  41 C41            5.4885    -2.2270     0.5910 C.2     
  42 O42            6.3628    -3.0590     0.4479 O.2     
  43 O43            4.2003    -2.6122     0.6835 O.3     
  44 H44            1.2450     5.3607    -0.3308 H       
  45 H45            4.0152     3.4227    -2.9386 H       
  46 H46            8.4896     1.2913     0.3128 H       
  47 H47            3.8394    -0.1653     1.1575 H       
  48 H48            7.4265    -1.4732    -1.8451 H       
  49 H49            6.8406    -0.4796     2.1270 H       
  50 H50            6.5293     0.2362     4.4570 H       
  51 H51           10.3714    -1.3191     5.4749 H       
  52 H52            7.2306    -3.7063    -0.9299 H       
  53 H53            8.4826    -3.7592    -2.1940 H       
  54 H54            8.9519    -3.7294    -0.4773 H       
  55 H55           10.4068    -1.6818    -1.2226 H       
  56 H56            9.6942    -1.8065    -2.8489 H       
  57 H57            2.0918     4.5954    -3.8478 H       
  58 H58            0.9318     5.4062    -2.7684 H       
  59 H59           11.6196     0.3294    -1.9082 H       
  60 H60           10.9070     0.2047    -3.5345 H       
  61 H61           10.6831     1.6878    -2.5761 H       
  62 H62            4.9704     8.3258    -4.3134 H       
  63 H63            3.2117     9.5549    -2.6774 H       
  64 H64            4.0209    -3.5609     0.6306 H       
@<TRIPOS>BOND
   1    1    2 ar
   2    1    6 ar
   3    1   44 1
   4    2    3 ar
   5    2   28 1
   6    3    4 ar
   7    3   45 1
   8    4    5 ar
   9    5    6 ar
  10    5    7 1
  11    6   37 1
  12    7    8 1
  13    8    9 ar
  14    8   13 ar
  15    9   10 ar
  16    9   14 1
  17   10   11 ar
  18   10   46 1
  19   11   12 ar
  20   11   15 1
  21   12   13 ar
  22   12   41 1
  23   13   47 1
  24   15   16 am
  25   15   17 1
  26   16   18 2
  27   16   19 1
  28   17   26 1
  29   17   27 1
  30   17   48 1
  31   19   20 ar
  32   19   24 ar
  33   20   21 ar
  34   20   49 1
  35   21   22 ar
  36   21   50 1
  37   22   23 ar
  38   22   25 1
  39   23   24 ar
  40   23   51 1
  41   24   36 1
  42   26   52 1
  43   26   53 1
  44   26   54 1
  45   27   29 1
  46   27   55 1
  47   27   56 1
  48   28   30 1
  49   28   57 1
  50   28   58 1
  51   29   31 1
  52   30   32 1
  53   30   35 1
  54   31   59 1
  55   31   60 1
  56   31   61 1
  57   32   33 2
  58   33   34 1
  59   33   62 1
  60   34   35 2
  61   34   63 1
  62   37   38 1
  63   37   39 1
  64   37   40 1
  65   41   42 2
  66   41   43 1
  67   43   64 1

#	End of record

