#	Name: ASD00311345
#	Creating user name:	WinNT
#	Creation time:	15. 06. 2019 18:34

#	Modifying user name:	WinNT
#	Modification time:	15. 06. 2019 18:34

#	Program:	/corina/corina34_cracker 3.40 0067  02.08.2006

@<TRIPOS>MOLECULE
ASD00311345
  41   44    0    0    0
SMALL
NO_CHARGES


@<TRIPOS>ATOM
   1 C1            -0.0167     1.3779     0.0096 C.2     
   2 C2             0.0021    -0.0041     0.0020 C.2     
   3 C3             1.2588    -0.6766    -0.0131 C.2     
   4 C4             2.4315     0.0674    -0.0199 C.2     
   5 C5             2.3575     1.4753    -0.0117 C.2     
   6 N6             1.1649     2.0906     0.0022 N.am    
   7 C7            -1.3431    -0.5749     0.0118 C.2     
   8 C8            -2.3223     0.3256     0.0260 C.2     
   9 S9            -1.6794     1.9560     0.0358 S.3     
  10 O10            3.3823     2.1374    -0.0171 O.2     
  11 C11            3.7477    -0.6118    -0.0352 C.ar    
  12 C12            4.5938    -0.4743    -1.1354 C.ar    
  13 C13            5.8187    -1.1096    -1.1437 C.ar    
  14 C14            6.2081    -1.8816    -0.0637 C.ar    
  15 C15            5.3732    -2.0217     1.0305 C.ar    
  16 C16            4.1483    -1.3868     1.0530 C.ar    
  17 C17           -1.5956    -2.0354     0.0056 C.ar    
  18 C18           -1.2007    -2.8207     1.0935 C.ar    
  19 C19           -1.4394    -4.1842     1.0824 C.ar    
  20 C20           -2.0671    -4.7701    -0.0014 C.ar    
  21 C21           -2.4612    -3.9962    -1.0836 C.ar    
  22 C22           -2.2322    -2.6302    -1.0813 C.ar    
  23 O23           -3.0775    -4.5792    -2.1463 O.3     
  24 C24           -3.2867    -5.9913    -2.0805 C.3     
  25 O25           -0.5829    -2.2459     2.1598 O.3     
  26 O26            1.3089    -2.0291    -0.0204 O.3     
  27 H27            1.1327     3.0600     0.0073 H       
  28 H28           -3.3748     0.0838     0.0341 H       
  29 H29            4.2908     0.1278    -1.9792 H       
  30 H30            6.4746    -1.0042    -1.9952 H       
  31 H31            7.1676    -2.3772    -0.0750 H       
  32 H32            5.6826    -2.6257     1.8706 H       
  33 H33            3.4993    -1.4933     1.9097 H       
  34 H34           -1.1346    -4.7915     1.9218 H       
  35 H35           -2.2510    -5.8343    -0.0059 H       
  36 H36           -2.5430    -2.0280    -1.9223 H       
  37 H37           -2.3257    -6.4969    -1.9857 H       
  38 H38           -3.9079    -6.2266    -1.2163 H       
  39 H39           -3.7860    -6.3274    -2.9892 H       
  40 H40           -1.1892    -1.9450     2.8504 H       
  41 H41            2.2062    -2.3894    -0.0307 H       
@<TRIPOS>BOND
   1    1    2 2
   2    1    6 1
   3    1    9 1
   4    2    3 1
   5    2    7 1
   6    3    4 2
   7    3   26 1
   8    4    5 1
   9    4   11 1
  10    5    6 am
  11    5   10 2
  12    6   27 1
  13    7    8 2
  14    7   17 1
  15    8    9 1
  16    8   28 1
  17   11   12 ar
  18   11   16 ar
  19   12   13 ar
  20   12   29 1
  21   13   14 ar
  22   13   30 1
  23   14   15 ar
  24   14   31 1
  25   15   16 ar
  26   15   32 1
  27   16   33 1
  28   17   18 ar
  29   17   22 ar
  30   18   19 ar
  31   18   25 1
  32   19   20 ar
  33   19   34 1
  34   20   21 ar
  35   20   35 1
  36   21   22 ar
  37   21   23 1
  38   22   36 1
  39   23   24 1
  40   24   37 1
  41   24   38 1
  42   24   39 1
  43   25   40 1
  44   26   41 1

#	End of record

