#	Name: ASD01820229
#	Creating user name:	WinNT
#	Creation time:	15. 06. 2019 19:36

#	Modifying user name:	WinNT
#	Modification time:	15. 06. 2019 19:36

#	Program:	/corina/corina34_cracker 3.40 0067  02.08.2006

@<TRIPOS>MOLECULE
ASD01820229
  33   34    0    0    0
SMALL
NO_CHARGES


@<TRIPOS>ATOM
   1 O1             0.0021    -0.0041     0.0020 O.2     
   2 C2            -0.0144     1.2086     0.0087 C.2     
   3 C3             1.2138     2.0919     0.0017 C.3     
   4 C4             0.6854     3.4795     0.4332 C.3     
   5 C5            -0.7999     3.3942     0.0173 C.3     
   6 N6            -1.1266     1.9634     0.0175 N.am    
   7 C7            -2.4896     1.4268     0.0342 C.3     
   8 C8            -2.9648     1.2511    -1.3478 C.1     
   9 C9            -3.3438     1.1110    -2.4501 C.1     
  10 C10           -3.8190     0.9353    -3.8322 C.3     
  11 N11           -5.1857     0.3972    -3.8154 N.3     
  12 C12           -5.7831     0.4300    -5.1630 C.3     
  13 C13           -6.2065    -1.0126    -5.5107 C.3     
  14 C14           -6.3439    -1.6818    -4.1178 C.3     
  15 C15           -5.1996    -0.9986    -3.3282 C.3     
  16 H16            1.9512     1.7255     0.7159 H       
  17 H17            1.6425     2.1413    -0.9992 H       
  18 H18            0.7817     3.6159     1.5104 H       
  19 H19            1.1965     4.2767    -0.1066 H       
  20 H20           -1.4238     3.9263     0.7355 H       
  21 H21           -0.9363     3.8084    -0.9816 H       
  22 H22           -2.4948     0.4640     0.5454 H       
  23 H23           -3.1467     2.1203     0.5590 H       
  24 H24           -3.8138     1.8981    -4.3433 H       
  25 H25           -3.1618     0.2419    -4.3569 H       
  26 H26           -6.6555     1.0835    -5.1660 H       
  27 H27           -5.0485     0.7853    -5.8857 H       
  28 H28           -7.1612    -1.0179    -6.0366 H       
  29 H29           -5.4367    -1.5082    -6.1021 H       
  30 H30           -7.3132    -1.4594    -3.6716 H       
  31 H31           -6.1840    -2.7580    -4.1842 H       
  32 H32           -4.2478    -1.4848    -3.5423 H       
  33 H33           -5.4081    -1.0251    -2.2586 H       
@<TRIPOS>BOND
   1    1    2 2
   2    2    3 1
   3    2    6 am
   4    3    4 1
   5    3   16 1
   6    3   17 1
   7    4    5 1
   8    4   18 1
   9    4   19 1
  10    5    6 1
  11    5   20 1
  12    5   21 1
  13    6    7 1
  14    7    8 1
  15    7   22 1
  16    7   23 1
  17    8    9 3
  18    9   10 1
  19   10   11 1
  20   10   24 1
  21   10   25 1
  22   11   12 1
  23   11   15 1
  24   12   13 1
  25   12   26 1
  26   12   27 1
  27   13   14 1
  28   13   28 1
  29   13   29 1
  30   14   15 1
  31   14   30 1
  32   14   31 1
  33   15   32 1
  34   15   33 1

#	End of record

