#	Name: ASD01911670
#	Creating user name:	WinNT
#	Creation time:	15. 06. 2019 19:58

#	Modifying user name:	WinNT
#	Modification time:	15. 06. 2019 19:58

#	Program:	/corina/corina34_cracker 3.40 0067  02.08.2006

@<TRIPOS>MOLECULE
ASD01911670
  44   46    0    0    0
SMALL
NO_CHARGES


@<TRIPOS>ATOM
   1 N1            -0.0587     1.1448     0.7041 N.am    
   2 C2             0.0021    -0.0041     0.0020 C.2     
   3 C3             1.2748    -0.7187    -0.1246 C.2     
   4 C4             1.4470    -2.0747    -0.0500 C.2     
   5 S5             2.8518     0.0159    -0.4072 S.3     
   6 C6             3.5963    -1.5802    -0.3909 C.2     
   7 N7             2.6740    -2.4890    -0.1928 N.2     
   8 C8             4.9923    -1.8438    -0.5711 C.1     
   9 C9             6.1367    -2.0599    -0.7188 C.1     
  10 C10            7.5327    -2.3234    -0.8990 C.ar    
  11 C11            8.0097    -3.6374    -0.8661 C.ar    
  12 C12            9.3552    -3.8832    -1.0409 C.ar    
  13 C13           10.2329    -2.8333    -1.2481 C.ar    
  14 C14            9.7684    -1.5301    -1.2820 C.ar    
  15 C15            8.4248    -1.2686    -1.1146 C.ar    
  16 O16           -1.0003    -0.4479    -0.5269 O.2     
  17 C17            1.1099     1.6275     1.4524 C.3     
  18 C18            1.4089     3.0677     1.0245 C.3     
  19 C19            0.1511     3.9207     1.2045 C.3     
  20 C20           -0.9688     3.3753     0.3154 C.3     
  21 C21           -1.2930     1.9414     0.7307 C.3     
  22 N22           -2.1627     4.2111     0.4646 N.am    
  23 C23           -3.0733     4.2687    -0.5273 C.2     
  24 O24           -2.9044     3.6286    -1.5435 O.2     
  25 C25           -4.3014     5.1285    -0.3738 C.3     
  26 H26            0.6236    -2.7534     0.1160 H       
  27 H27            7.3261    -4.4576    -0.7038 H       
  28 H28            9.7252    -4.8975    -1.0157 H       
  29 H29           11.2857    -3.0321    -1.3836 H       
  30 H30           10.4595    -0.7160    -1.4437 H       
  31 H31            8.0638    -0.2511    -1.1412 H       
  32 H32            0.8962     1.6007     2.5209 H       
  33 H33            1.9705     0.9952     1.2338 H       
  34 H34            2.2129     3.4708     1.6403 H       
  35 H35            1.7106     3.0809    -0.0228 H       
  36 H36           -0.1643     3.8871     2.2473 H       
  37 H37            0.3680     4.9514     0.9240 H       
  38 H38           -0.6447     3.3855    -0.7253 H       
  39 H39           -2.0191     1.5157     0.0381 H       
  40 H40           -1.7025     1.9373     1.7408 H       
  41 H41           -2.2977     4.7231     1.2774 H       
  42 H42           -4.0023     6.1668    -0.2302 H       
  43 H43           -4.9157     5.0480    -1.2705 H       
  44 H44           -4.8743     4.7926     0.4905 H       
@<TRIPOS>BOND
   1    1    2 am
   2    1   17 1
   3    1   21 1
   4    2    3 1
   5    2   16 2
   6    3    4 2
   7    3    5 1
   8    4    7 1
   9    4   26 1
  10    5    6 1
  11    6    7 2
  12    6    8 1
  13    8    9 3
  14    9   10 1
  15   10   11 ar
  16   10   15 ar
  17   11   12 ar
  18   11   27 1
  19   12   13 ar
  20   12   28 1
  21   13   14 ar
  22   13   29 1
  23   14   15 ar
  24   14   30 1
  25   15   31 1
  26   17   18 1
  27   17   32 1
  28   17   33 1
  29   18   19 1
  30   18   34 1
  31   18   35 1
  32   19   20 1
  33   19   36 1
  34   19   37 1
  35   20   21 1
  36   20   22 1
  37   20   38 1
  38   21   39 1
  39   21   40 1
  40   22   23 am
  41   22   41 1
  42   23   24 2
  43   23   25 1
  44   25   42 1
  45   25   43 1
  46   25   44 1

#	End of record

