#	Name: ASD02198153
#	Creating user name:	WinNT
#	Creation time:	15. 06. 2019 20:18

#	Modifying user name:	WinNT
#	Modification time:	15. 06. 2019 20:18

#	Program:	/corina/corina34_cracker 3.40 0067  02.08.2006

@<TRIPOS>MOLECULE
ASD02198153
  46   48    0    0    0
SMALL
NO_CHARGES


@<TRIPOS>ATOM
   1 C1            -0.0166     1.3754     0.0096 C.2     
   2 C2             0.0021    -0.0041     0.0020 C.2     
   3 C3            -1.1878    -0.8007     0.0087 C.1     
   4 S4             1.5674     2.0057    -0.0021 S.3     
   5 C5             2.2773     0.3993    -0.0175 C.2     
   6 C6             1.2821    -0.5521    -0.0131 C.2     
   7 C7             3.6563     0.1257    -0.0331 C.2     
   8 C8             4.6330     1.2405    -0.0370 C.ar    
   9 O9             4.0487    -1.0286    -0.0434 O.2     
  10 N10            1.5289    -1.9150    -0.0228 N.pl3   
  11 N11           -1.1592     2.1392     0.0194 N.pl3   
  12 N12           -2.1318    -1.4327     0.0139 N.1     
  13 C13            5.9981     0.9628    -0.0524 C.ar    
  14 C14            6.8990     2.0155    -0.0558 C.ar    
  15 C15            6.4035     3.3103    -0.0437 C.ar    
  16 C16            5.0334     3.5130    -0.0286 C.ar    
  17 N17            4.1997     2.4952    -0.0311 N.ar    
  18 C18           -1.0631     3.6010     0.0268 C.3     
  19 C19           -2.4478     4.1955     0.0369 C.ar    
  20 C20           -3.0758     4.4612     1.2399 C.ar    
  21 C21           -3.0850     4.4793    -1.1563 C.ar    
  22 C22           -4.3557     5.0248    -1.1524 C.ar    
  23 C23           -4.9927     5.2881     0.0492 C.ar    
  24 C24           -4.3487     5.0076     1.2509 C.ar    
  25 O25           -6.2423     5.8247     0.0548 O.3     
  26 O26           -4.9699     5.2643     2.4331 O.3     
  27 C27           -4.2488     4.9511     3.6264 C.3     
  28 C28           -6.8393     6.0919    -1.2158 C.3     
  29 H29            2.4419    -2.2425    -0.0333 H       
  30 H30            0.7888    -2.5420    -0.0191 H       
  31 H31           -2.0293     1.7104     0.0213 H       
  32 H32            6.3492    -0.0585    -0.0612 H       
  33 H33            7.9632     1.8316    -0.0673 H       
  34 H34            7.0793     4.1527    -0.0456 H       
  35 H35            4.6440     4.5204    -0.0191 H       
  36 H36           -0.5221     3.9250     0.9159 H       
  37 H37           -0.5309     3.9347    -0.8640 H       
  38 H38           -2.5741     4.2423     2.1709 H       
  39 H39           -2.5893     4.2748    -2.0938 H       
  40 H40           -4.8513     5.2459    -2.0861 H       
  41 H41           -4.8565     5.2039     4.4952 H       
  42 H42           -4.0176     3.8860     3.6422 H       
  43 H43           -3.3221     5.5244     3.6519 H       
  44 H44           -6.2194     6.7990    -1.7670 H       
  45 H45           -6.9217     5.1635    -1.7809 H       
  46 H46           -7.8321     6.5169    -1.0685 H       
@<TRIPOS>BOND
   1    1    2 2
   2    1    4 1
   3    1   11 1
   4    2    3 1
   5    2    6 1
   6    3   12 3
   7    4    5 1
   8    5    6 2
   9    5    7 1
  10    6   10 1
  11    7    8 1
  12    7    9 2
  13    8   13 ar
  14    8   17 ar
  15   10   29 1
  16   10   30 1
  17   11   18 1
  18   11   31 1
  19   13   14 ar
  20   13   32 1
  21   14   15 ar
  22   14   33 1
  23   15   16 ar
  24   15   34 1
  25   16   17 ar
  26   16   35 1
  27   18   19 1
  28   18   36 1
  29   18   37 1
  30   19   20 ar
  31   19   21 ar
  32   20   24 ar
  33   20   38 1
  34   21   22 ar
  35   21   39 1
  36   22   23 ar
  37   22   40 1
  38   23   24 ar
  39   23   25 1
  40   24   26 1
  41   25   28 1
  42   26   27 1
  43   27   41 1
  44   27   42 1
  45   27   43 1
  46   28   44 1
  47   28   45 1
  48   28   46 1

#	End of record

