#	Name: ASD01814022
#	Creating user name:	WinNT
#	Creation time:	15. 06. 2019 19:31

#	Modifying user name:	WinNT
#	Modification time:	15. 06. 2019 19:31

#	Program:	/corina/corina34_cracker 3.40 0067  02.08.2006

@<TRIPOS>MOLECULE
ASD01814022
  42   45    0    0    0
SMALL
NO_CHARGES


@<TRIPOS>ATOM
   1 C1            -0.0167     1.3820     0.0096 C.ar    
   2 C2             0.0021    -0.0041     0.0020 C.ar    
   3 C3             1.1959    -0.6932    -0.0127 C.ar    
   4 C4             2.4016     0.0019    -0.0205 C.ar    
   5 C5             2.3831     1.4075    -0.0132 C.ar    
   6 C6             1.1665     2.0939     0.0022 C.ar    
   7 N7             3.6010    -0.6771    -0.0346 N.pl3   
   8 C8             4.7870    -0.0549    -0.0418 C.2     
   9 C9             4.8957     1.3208    -0.0358 C.2     
  10 C10            3.6666     2.1313    -0.0216 C.2     
  11 F11            1.1476     3.4448     0.0091 F       
  12 O12            3.7090     3.3491    -0.0163 O.2     
  13 C13            6.2161     1.9660    -0.0431 C.2     
  14 O14            6.3092     3.3109    -0.0372 O.3     
  15 O15            7.2244     1.2870    -0.0544 O.2     
  16 C16            3.5775    -2.1419    -0.0418 C.3     
  17 C17            3.5567    -2.6371    -1.4649 C.ar    
  18 C18            4.7453    -2.8829    -2.1274 C.ar    
  19 C19            4.7295    -3.3364    -3.4319 C.ar    
  20 C20            3.5184    -3.5457    -4.0780 C.ar    
  21 C21            2.3266    -3.2984    -3.4100 C.ar    
  22 C22            2.3489    -2.8500    -2.1038 C.ar    
  23 N23            3.4991    -4.0053    -5.4018 N.pl3   
  24 C24            2.3957    -4.2466    -6.1358 C.2     
  25 C25            2.8136    -4.6828    -7.3768 C.2     
  26 C26            4.2266    -4.6951    -7.3615 C.2     
  27 N27            4.6228    -4.2857    -6.1873 N.2     
  28 C28            1.9725    -5.0538    -8.4748 C.1     
  29 N29            1.3052    -5.3480    -9.3458 N.1     
  30 H30           -0.9604     1.9071     0.0170 H       
  31 H31           -0.9295    -0.5505     0.0080 H       
  32 H32            1.1956    -1.7731    -0.0177 H       
  33 H33            5.6884    -0.6497    -0.0521 H       
  34 H34            7.1990     3.6894    -0.0423 H       
  35 H35            4.4661    -2.5220     0.4622 H       
  36 H36            2.6865    -2.4935     0.4783 H       
  37 H37            5.6870    -2.7199    -1.6244 H       
  38 H38            5.6582    -3.5275    -3.9491 H       
  39 H39            1.3831    -3.4599    -3.9100 H       
  40 H40            1.4222    -2.6578    -1.5835 H       
  41 H41            1.3727    -4.1216    -5.8129 H       
  42 H42            4.8671    -4.9880    -8.1802 H       
@<TRIPOS>BOND
   1    1    2 ar
   2    1    6 ar
   3    1   30 1
   4    2    3 ar
   5    2   31 1
   6    3    4 ar
   7    3   32 1
   8    4    5 ar
   9    4    7 1
  10    5    6 ar
  11    5   10 1
  12    6   11 1
  13    7    8 1
  14    7   16 1
  15    8    9 2
  16    8   33 1
  17    9   10 1
  18    9   13 1
  19   10   12 2
  20   13   14 1
  21   13   15 2
  22   14   34 1
  23   16   17 1
  24   16   35 1
  25   16   36 1
  26   17   18 ar
  27   17   22 ar
  28   18   19 ar
  29   18   37 1
  30   19   20 ar
  31   19   38 1
  32   20   21 ar
  33   20   23 1
  34   21   22 ar
  35   21   39 1
  36   22   40 1
  37   23   24 1
  38   23   27 1
  39   24   25 2
  40   24   41 1
  41   25   26 1
  42   25   28 1
  43   26   27 2
  44   26   42 1
  45   28   29 3

#	End of record

