#	Name: ASD09080034
#	Creating user name:	WinNT
#	Creation time:	15. 06. 2019 21:20

#	Modifying user name:	WinNT
#	Modification time:	15. 06. 2019 21:20

#	Program:	/corina/corina34_cracker 3.40 0067  02.08.2006

@<TRIPOS>MOLECULE
ASD09080034
  41   42    0    0    0
SMALL
NO_CHARGES


@<TRIPOS>ATOM
   1 C1            -0.0167     1.3772     0.0096 C.ar    
   2 C2             0.0021    -0.0041     0.0020 C.ar    
   3 C3             1.2087    -0.6820    -0.0127 C.ar    
   4 C4             2.4019     0.0195    -0.0203 C.ar    
   5 C5             2.3936     1.4009    -0.0128 C.ar    
   6 C6             1.1817     2.0879     0.0020 C.ar    
   7 Cl7           -1.4902    -0.8910     0.0115 Cl      
   8 Cl8            3.9112    -0.8380    -0.0387 Cl      
   9 C9             1.1672     3.5718     0.0096 C.ar    
  10 C10           -0.0448     4.2591     0.0244 C.ar    
  11 C11            2.3655     4.2827     0.0078 C.ar    
  12 C12           -0.0524     5.6392     0.0319 C.ar    
  13 C13            1.1401     6.3400     0.0248 C.ar    
  14 C14            2.3461     5.6628     0.0154 C.ar    
  15 C15            1.1254     7.8469     0.0325 C.3     
  16 C16            1.1333     8.3496     1.4776 C.3     
  17 N17            2.3981     7.9700     2.1211 N.3     
  18 C18            0.9927     9.8731     1.4884 C.3     
  19 C19            1.0007    10.3758     2.9334 C.3     
  20 C20            0.9859    11.8827     2.9412 C.2     
  21 C21            0.0561    12.5252     3.6035 C.2     
  22 O22           -0.2376    10.2424     0.8623 O.3     
  23 H23           -0.9587     1.9054     0.0170 H       
  24 H24            1.2193    -1.7620    -0.0179 H       
  25 H25            3.3252     1.9474    -0.0180 H       
  26 H26           -0.9765     3.7129     0.0296 H       
  27 H27            3.3077     3.7549     0.0009 H       
  28 H28           -0.9912     6.1730     0.0430 H       
  29 H29            3.2743     6.2149     0.0099 H       
  30 H30            2.0071     8.2216    -0.4873 H       
  31 H31            0.2273     8.2041    -0.4715 H       
  32 H32            0.3007     7.9040     2.0218 H       
  33 H33            2.4848     6.9667     2.1844 H       
  34 H34            3.1859     8.3711     1.6347 H       
  35 H35            1.8254    10.3187     0.9441 H       
  36 H36            0.1189    10.0011     3.4533 H       
  37 H37            1.8987    10.0186     3.4374 H       
  38 H38            1.7420    12.4329     2.4007 H       
  39 H39           -0.6999    11.9750     4.1440 H       
  40 H40            0.0456    13.6051     3.6091 H       
  41 H41           -1.0231     9.8802     1.2947 H       
@<TRIPOS>BOND
   1    1    2 ar
   2    1    6 ar
   3    1   23 1
   4    2    3 ar
   5    2    7 1
   6    3    4 ar
   7    3   24 1
   8    4    5 ar
   9    4    8 1
  10    5    6 ar
  11    5   25 1
  12    6    9 1
  13    9   10 ar
  14    9   11 ar
  15   10   12 ar
  16   10   26 1
  17   11   14 ar
  18   11   27 1
  19   12   13 ar
  20   12   28 1
  21   13   14 ar
  22   13   15 1
  23   14   29 1
  24   15   16 1
  25   15   30 1
  26   15   31 1
  27   16   17 1
  28   16   18 1
  29   16   32 1
  30   17   33 1
  31   17   34 1
  32   18   19 1
  33   18   22 1
  34   18   35 1
  35   19   20 1
  36   19   36 1
  37   19   37 1
  38   20   21 2
  39   20   38 1
  40   21   39 1
  41   21   40 1
  42   22   41 1

#	End of record

