#	Name: ASD04560078
#	Creating user name:	WinNT
#	Creation time:	15. 06. 2019 20:49

#	Modifying user name:	WinNT
#	Modification time:	15. 06. 2019 20:49

#	Program:	/corina/corina34_cracker 3.40 0067  02.08.2006

@<TRIPOS>MOLECULE
ASD04560078
  41   43    0    0    0
SMALL
NO_CHARGES


@<TRIPOS>ATOM
   1 C1            -0.0173     1.3666     0.0244 C.ar    
   2 C2             0.0010    -0.0041     0.0240 C.ar    
   3 C3             1.2157    -0.6859     0.0136 C.ar    
   4 C4             2.4151     0.0225     0.0034 C.ar    
   5 C5             2.4031     1.3933     0.0042 C.ar    
   6 C6             1.1852     2.0805     0.0143 C.ar    
   7 C7             1.1690     3.5549     0.0146 C.2     
   8 O8             2.2154     4.1746     0.0062 O.2     
   9 N9            -0.0055     4.2159     0.0243 N.am    
  10 C10           -0.0226     5.6108     0.1376 C.ar    
  11 C11           -0.9920     6.3506    -0.5268 C.ar    
  12 C12            0.9074     7.6331     1.0301 C.ar    
  13 C13            0.9263     6.2566     0.9193 C.ar    
  14 S14            1.2351    -2.4478     0.0137 S.3     
  15 C15           -1.0073     7.7269    -0.4133 C.ar    
  16 C16           -0.0567     8.3693     0.3621 C.ar    
  17 C17            3.0069    -2.8364    -0.0017 C.3     
  18 C18            3.1961    -4.3547    -0.0030 C.3     
  19 F19           -0.0734     9.7157     0.4718 F       
  20 O20            2.7112    -4.9036    -1.2340 O.3     
  21 C21            3.7870    -5.5336    -1.9477 C.3     
  22 C22            4.8283    -5.9070    -0.8627 C.3     
  23 C23            4.6983    -4.6954     0.1001 C.3     
  24 H24           -0.9594     1.8947     0.0280 H       
  25 H25           -0.9274    -0.5560     0.0322 H       
  26 H26            3.3553    -0.5088    -0.0047 H       
  27 H27            3.3333     1.9420    -0.0029 H       
  28 H28           -0.8390     3.7249    -0.0472 H       
  29 H29           -1.7331     5.8500    -1.1322 H       
  30 H30            1.6452     8.1357     1.6379 H       
  31 H31            1.6784     5.6828     1.4404 H       
  32 H32           -1.7610     8.3026    -0.9299 H       
  33 H33            3.4641    -2.4125    -0.8957 H       
  34 H34            3.4796    -2.4122     0.8841 H       
  35 H35            2.6572    -4.7951     0.8359 H       
  36 H36            3.4307    -6.4303    -2.4546 H       
  37 H37            4.2219    -4.8392    -2.6665 H       
  38 H38            4.5582    -6.8370    -0.3625 H       
  39 H39            5.8313    -5.9673    -1.2851 H       
  40 H40            5.3098    -3.8605    -0.2422 H       
  41 H41            4.9626    -4.9792     1.1187 H       
@<TRIPOS>BOND
   1    1    2 ar
   2    1    6 ar
   3    1   24 1
   4    2    3 ar
   5    2   25 1
   6    3    4 ar
   7    3   14 1
   8    4    5 ar
   9    4   26 1
  10    5    6 ar
  11    5   27 1
  12    6    7 1
  13    7    8 2
  14    7    9 am
  15    9   10 1
  16    9   28 1
  17   10   11 ar
  18   10   13 ar
  19   11   15 ar
  20   11   29 1
  21   12   13 ar
  22   12   16 ar
  23   12   30 1
  24   13   31 1
  25   14   17 1
  26   15   16 ar
  27   15   32 1
  28   16   19 1
  29   17   18 1
  30   17   33 1
  31   17   34 1
  32   18   20 1
  33   18   23 1
  34   18   35 1
  35   20   21 1
  36   21   22 1
  37   21   36 1
  38   21   37 1
  39   22   23 1
  40   22   38 1
  41   22   39 1
  42   23   40 1
  43   23   41 1

#	End of record

