#	Name: ASD01882035
#	Creating user name:	WinNT
#	Creation time:	15. 06. 2019 19:43

#	Modifying user name:	WinNT
#	Modification time:	15. 06. 2019 19:43

#	Program:	/corina/corina34_cracker 3.40 0067  02.08.2006

@<TRIPOS>MOLECULE
ASD01882035
  47   49    0    0    0
SMALL
NO_CHARGES


@<TRIPOS>ATOM
   1 C1            -0.0161     1.3337     0.0094 C.2     
   2 N2             0.0021    -0.0041     0.0020 N.am    
   3 C3             1.2613    -0.4841    -0.0126 C.2     
   4 C4             2.1640     0.7337    -0.0147 C.3     
   5 N5             1.2200     1.8645     0.0004 N.am    
   6 O6            -1.0354     1.9955     0.0180 O.2     
   7 O7             1.6013    -1.6477    -0.0215 O.2     
   8 C8             1.5609     3.2893     0.0041 C.3     
   9 C9             1.6916     3.7708     1.4261 C.ar    
  10 C10            2.9182     3.7120     2.0638 C.ar    
  11 C11            3.0436     4.1515     3.3656 C.ar    
  12 C12            1.9318     4.6560     4.0383 C.ar    
  13 C13            0.6987     4.7134     3.3909 C.ar    
  14 C14            0.5858     4.2755     2.0873 C.ar    
  15 O15            1.0377     5.7016     6.3570 O.3     
  16 B16            2.0678     5.1572     5.5199 Du      
  17 O17            3.2495     5.1707     6.3335 O.3     
  18 C18            2.7935     4.7820     7.6464 C.3     
  19 C19            1.2939     5.1420     7.6623 C.3     
  20 C20            1.0055     6.1766     8.7519 C.3     
  21 C21            0.4466     3.8867     7.8798 C.3     
  22 C22            2.9829     3.2779     7.8528 C.3     
  23 C23            3.5418     5.5679     8.7249 C.3     
  24 C24           -1.1986    -0.8435     0.0097 C.3     
  25 H25            2.7924     0.7467     0.8759 H       
  26 H26            2.7753     0.7564    -0.9169 H       
  27 H27            2.5060     3.4381    -0.5182 H       
  28 H28            0.7749     3.8522    -0.4994 H       
  29 H29            3.7789     3.3210     1.5416 H       
  30 H30            4.0012     4.1045     3.8626 H       
  31 H31           -0.1660     5.1029     3.9075 H       
  32 H32           -0.3683     4.3230     1.5834 H       
  33 H33           -0.0455     6.4630     8.7120 H       
  34 H34            1.2283     5.7473     9.7287 H       
  35 H35            1.6282     7.0567     8.5912 H       
  36 H36            0.6760     3.1548     7.1053 H       
  37 H37            0.6706     3.4622     8.8585 H       
  38 H38           -0.6103     4.1486     7.8306 H       
  39 H39            4.0424     3.0320     7.7812 H       
  40 H40            2.6105     2.9967     8.8379 H       
  41 H41            2.4309     2.7336     7.0866 H       
  42 H42            3.3832     6.6355     8.5726 H       
  43 H43            3.1682     5.2817     9.7081 H       
  44 H44            4.6072     5.3463     8.6626 H       
  45 H45           -1.5068    -1.0461    -1.0159 H       
  46 H46           -0.9813    -1.7838     0.5163 H       
  47 H47           -2.0010    -0.3250     0.5345 H       
@<TRIPOS>BOND
   1    1    2 am
   2    1    5 am
   3    1    6 2
   4    2    3 am
   5    2   24 1
   6    3    4 1
   7    3    7 2
   8    4    5 1
   9    4   25 1
  10    4   26 1
  11    5    8 1
  12    8    9 1
  13    8   27 1
  14    8   28 1
  15    9   10 ar
  16    9   14 ar
  17   10   11 ar
  18   10   29 1
  19   11   12 ar
  20   11   30 1
  21   12   13 ar
  22   12   16 1
  23   13   14 ar
  24   13   31 1
  25   14   32 1
  26   15   16 1
  27   15   19 1
  28   16   17 1
  29   17   18 1
  30   18   19 1
  31   18   22 1
  32   18   23 1
  33   19   20 1
  34   19   21 1
  35   20   33 1
  36   20   34 1
  37   20   35 1
  38   21   36 1
  39   21   37 1
  40   21   38 1
  41   22   39 1
  42   22   40 1
  43   22   41 1
  44   23   42 1
  45   23   43 1
  46   23   44 1
  47   24   45 1
  48   24   46 1
  49   24   47 1

#	End of record

