#	Name: ASD07300911
#	Creating user name:	WinNT
#	Creation time:	15. 06. 2019 21:10

#	Modifying user name:	WinNT
#	Modification time:	15. 06. 2019 21:10

#	Program:	/corina/corina34_cracker 3.40 0067  02.08.2006

@<TRIPOS>MOLECULE
ASD07300911
  47   51    0    0    0
SMALL
NO_CHARGES


@<TRIPOS>ATOM
   1 N1            -0.3633     1.5828     0.6078 N.am    
   2 C2            -0.1943     0.2366     0.6211 C.2     
   3 N3             0.9612    -0.3352     0.4482 N.2     
   4 C4             2.0804     0.3765     0.2416 C.2     
   5 C5             2.0044     1.7779     0.2108 C.2     
   6 C6             0.6960     2.4016     0.4077 C.2     
   7 N7             3.3839     0.0542     0.0366 N.pl3   
   8 N8             4.1112     1.2408    -0.1201 N.2     
   9 C9             3.3058     2.2619    -0.0188 C.2     
  10 O10            0.5643     3.6127     0.3916 O.2     
  11 C11            3.9347    -1.3025    -0.0118 C.3     
  12 C12            4.6957    -1.4999    -1.3265 C.3     
  13 C13            5.3336    -2.8916    -1.3338 C.3     
  14 O14            6.1956    -3.0250    -0.2018 O.3     
  15 C15            5.5303    -2.8970     1.0564 C.3     
  16 C16            4.9004    -1.5055     1.1598 C.3     
  17 C17           -1.4014    -0.6368     0.8472 C.3     
  18 C18           -1.0644    -2.0078     1.4569 C.3     
  19 C19           -0.8976    -2.5196     0.0164 C.3     
  20 C20           -1.8568    -1.3959    -0.4103 C.3     
  21 C21           -1.4616    -0.7215    -1.6987 C.2     
  22 C22           -0.2654    -0.8958    -2.2685 C.2     
  23 S23           -0.2223     0.0661    -3.7442 S.3     
  24 C24           -1.8171     0.6069    -3.4482 C.2     
  25 N25           -2.2691     0.0840    -2.3587 N.2     
  26 C26           -2.5857     1.5524    -4.3349 C.3     
  27 H27           -1.2474     1.9600     0.7381 H       
  28 H28            3.5892     3.3011    -0.0977 H       
  29 H29            3.1237    -2.0278     0.0525 H       
  30 H30            4.0042    -1.4117    -2.1644 H       
  31 H31            5.4742    -0.7420    -1.4141 H       
  32 H32            4.5520    -3.6499    -1.2869 H       
  33 H33            5.9120    -3.0215    -2.2485 H       
  34 H34            4.7513    -3.6554     1.1346 H       
  35 H35            6.2505    -3.0309     1.8636 H       
  36 H36            5.6830    -0.7477     1.1224 H       
  37 H37            4.3552    -1.4214     2.0999 H       
  38 H38           -2.2096    -0.1170     1.3617 H       
  39 H39           -0.1387    -2.0140     2.0324 H       
  40 H40           -1.8980    -2.4658     1.9893 H       
  41 H41            0.1132    -2.4026    -0.3743 H       
  42 H42           -1.3000    -3.5203    -0.1408 H       
  43 H43           -2.9071    -1.6866    -0.3884 H       
  44 H44            0.5338    -1.5166    -1.8912 H       
  45 H45           -1.9682     1.8337    -5.1879 H       
  46 H46           -3.4927     1.0623    -4.6888 H       
  47 H47           -2.8523     2.4452    -3.7692 H       
@<TRIPOS>BOND
   1    1    2 1
   2    1    6 am
   3    1   27 1
   4    2    3 2
   5    2   17 1
   6    3    4 1
   7    4    5 2
   8    4    7 1
   9    5    6 1
  10    5    9 1
  11    6   10 2
  12    7    8 1
  13    7   11 1
  14    8    9 2
  15    9   28 1
  16   11   12 1
  17   11   16 1
  18   11   29 1
  19   12   13 1
  20   12   30 1
  21   12   31 1
  22   13   14 1
  23   13   32 1
  24   13   33 1
  25   14   15 1
  26   15   16 1
  27   15   34 1
  28   15   35 1
  29   16   36 1
  30   16   37 1
  31   17   18 1
  32   17   20 1
  33   17   38 1
  34   18   19 1
  35   18   39 1
  36   18   40 1
  37   19   20 1
  38   19   41 1
  39   19   42 1
  40   20   21 1
  41   20   43 1
  42   21   22 2
  43   21   25 1
  44   22   23 1
  45   22   44 1
  46   23   24 1
  47   24   25 2
  48   24   26 1
  49   26   45 1
  50   26   46 1
  51   26   47 1

#	End of record

