#	Name: ASD01882276
#	Creating user name:	WinNT
#	Creation time:	15. 06. 2019 19:44

#	Modifying user name:	WinNT
#	Modification time:	15. 06. 2019 19:44

#	Program:	/corina/corina34_cracker 3.40 0067  02.08.2006

@<TRIPOS>MOLECULE
ASD01882276
  27   28    0    0    0
SMALL
NO_CHARGES


@<TRIPOS>ATOM
   1 C1            -0.2173     1.3938     0.2041 C.3     
   2 C2             0.0441    -0.1146     0.1866 C.3     
   3 C3             0.5434    -0.5223    -1.2029 C.3     
   4 C4             1.7979     0.2890    -1.5409 C.3     
   5 C5             1.4688     1.7818    -1.4568 C.3     
   6 O6             0.9810     2.0877    -0.1488 O.3     
   7 O7             0.8598    -1.9159    -1.2072 O.3     
   8 C8             0.8101    -2.5563    -2.4052 C.ar    
   9 C9             0.9880    -3.9320    -2.4661 C.ar    
  10 C10            0.9370    -4.5807    -3.6855 C.ar    
  11 C11            0.7093    -3.8599    -4.8444 C.ar    
  12 C12            0.5324    -2.4894    -4.7854 C.ar    
  13 C13            0.5760    -1.8375    -3.5676 C.ar    
  14 Cl14           1.2748    -4.8362    -1.0122 Cl      
  15 Br15           0.6406    -4.7497    -6.5115 Br      
  16 H16           -1.0017     1.6350    -0.5133 H       
  17 H17           -0.5321     1.6966     1.2027 H       
  18 H18            0.7997    -0.3619     0.9323 H       
  19 H19           -0.8798    -0.6470     0.4124 H       
  20 H20           -0.2315    -0.3207    -1.9424 H       
  21 H21            2.5889     0.0498    -0.8301 H       
  22 H22            2.1283     0.0452    -2.5506 H       
  23 H23            2.3687     2.3641    -1.6546 H       
  24 H24            0.7064     2.0281    -2.1958 H       
  25 H25            1.0752    -5.6507    -3.7338 H       
  26 H26            0.3555    -1.9287    -5.6913 H       
  27 H27            0.4329    -0.7680    -3.5219 H       
@<TRIPOS>BOND
   1    1    2 1
   2    1    6 1
   3    1   16 1
   4    1   17 1
   5    2    3 1
   6    2   18 1
   7    2   19 1
   8    3    4 1
   9    3    7 1
  10    3   20 1
  11    4    5 1
  12    4   21 1
  13    4   22 1
  14    5    6 1
  15    5   23 1
  16    5   24 1
  17    7    8 1
  18    8    9 ar
  19    8   13 ar
  20    9   10 ar
  21    9   14 1
  22   10   11 ar
  23   10   25 1
  24   11   12 ar
  25   11   15 1
  26   12   13 ar
  27   12   26 1
  28   13   27 1

#	End of record

