#	Name: ASD01140697
#	Creating user name:	WinNT
#	Creation time:	15. 06. 2019 19:01

#	Modifying user name:	WinNT
#	Modification time:	15. 06. 2019 19:01

#	Program:	/corina/corina34_cracker 3.40 0067  02.08.2006

@<TRIPOS>MOLECULE
ASD01140697
  52   55    0    0    0
SMALL
NO_CHARGES


@<TRIPOS>ATOM
   1 C1            -0.0187     1.5258     0.0104 C.3     
   2 C2             0.0021    -0.0041     0.0020 C.3     
   3 N3            -1.3723    -0.5112     0.0124 N.pl3   
   4 N4            -2.1340    -0.7957     1.1527 N.2     
   5 C5            -3.3109    -1.2288     0.7991 C.2     
   6 C6            -3.3769    -1.2487    -0.6084 C.ar    
   7 C7            -4.3617    -1.6094    -1.5540 C.ar    
   8 C8            -4.0297    -1.4831    -2.9009 C.ar    
   9 N9            -2.8347    -1.0412    -3.2495 N.ar    
  10 N10           -1.9320    -0.7104    -2.3989 N.ar    
  11 C11           -2.1356    -0.7829    -1.0903 C.ar    
  12 C12           -5.6931    -2.1025    -1.1308 C.ar    
  13 C13           -5.7917    -3.1241    -0.1858 C.ar    
  14 C14           -7.0312    -3.5850     0.2099 C.ar    
  15 C15           -8.1823    -3.0373    -0.3277 C.ar    
  16 F16           -9.3925    -3.4925     0.0640 F       
  17 C17           -8.0950    -2.0140    -1.2745 C.ar    
  18 C18           -6.8483    -1.5427    -1.6717 C.ar    
  19 C19           -9.3294    -1.4274    -1.8510 C.ar    
  20 C20           -9.6114    -1.5834    -3.2057 C.ar    
  21 C21          -10.7616    -1.0356    -3.7375 C.ar    
  22 C22          -11.6358    -0.3311    -2.9293 C.ar    
  23 C23          -11.3655    -0.1703    -1.5832 C.ar    
  24 C24          -10.2181    -0.7201    -1.0353 C.ar    
  25 O25           -9.9544    -0.5679     0.2887 O.3     
  26 C26          -10.9074     0.1665     1.0598 C.3     
  27 S27          -13.1003     0.3648    -3.6190 S.o2    
  28 O28          -13.4028     1.4606    -2.7663 O.2     
  29 O29          -12.7801     0.5688    -4.9884 O.2     
  30 C30          -14.3475    -0.9408    -3.4445 C.3     
  31 C31          -15.6807    -0.4520    -4.0143 C.3     
  32 H32            1.0039     1.9031     0.0027 H       
  33 H33           -0.5459     1.8868    -0.8726 H       
  34 H34           -0.5289     1.8773     0.9072 H       
  35 H35            0.5123    -0.3556    -0.8948 H       
  36 H36            0.5293    -0.3651     0.8851 H       
  37 H37           -4.1028    -1.5235     1.4717 H       
  38 H38           -4.7500    -1.7472    -3.6610 H       
  39 H39           -4.8963    -3.5555     0.2368 H       
  40 H40           -7.1027    -4.3763     0.9414 H       
  41 H41           -6.7760    -0.7484    -2.3999 H       
  42 H42           -8.9308    -2.1322    -3.8398 H       
  43 H43          -10.9795    -1.1571    -4.7883 H       
  44 H44          -12.0518     0.3807    -0.9573 H       
  45 H45          -11.8761    -0.3306     1.0093 H       
  46 H46          -10.5766     0.2134     2.0973 H       
  47 H47          -10.9963     1.1770     0.6608 H       
  48 H48          -14.0233    -1.8280    -3.9885 H       
  49 H49          -14.4713    -1.1864    -2.3898 H       
  50 H50          -16.4301    -1.2365    -3.9095 H       
  51 H51          -16.0048     0.4352    -3.4703 H       
  52 H52          -15.5568    -0.2064    -5.0690 H       
@<TRIPOS>BOND
   1    1    2 1
   2    1   32 1
   3    1   33 1
   4    1   34 1
   5    2    3 1
   6    2   35 1
   7    2   36 1
   8    3   11 1
   9    3    4 1
  10    4    5 2
  11    5    6 1
  12    5   37 1
  13    6   11 ar
  14    6    7 ar
  15    7    8 ar
  16    7   12 1
  17    8    9 ar
  18    8   38 1
  19    9   10 ar
  20   10   11 ar
  21   12   18 ar
  22   12   13 ar
  23   13   14 ar
  24   13   39 1
  25   14   15 ar
  26   14   40 1
  27   15   16 1
  28   15   17 ar
  29   17   18 ar
  30   17   19 1
  31   18   41 1
  32   19   24 ar
  33   19   20 ar
  34   20   21 ar
  35   20   42 1
  36   21   22 ar
  37   21   43 1
  38   22   23 ar
  39   22   27 1
  40   23   24 ar
  41   23   44 1
  42   24   25 1
  43   25   26 1
  44   26   45 1
  45   26   46 1
  46   26   47 1
  47   27   28 2
  48   27   29 2
  49   27   30 1
  50   30   31 1
  51   30   48 1
  52   30   49 1
  53   31   50 1
  54   31   51 1
  55   31   52 1

#	End of record

