#	Name: ASD01882173
#	Creating user name:	WinNT
#	Creation time:	15. 06. 2019 19:44

#	Modifying user name:	WinNT
#	Modification time:	15. 06. 2019 19:44

#	Program:	/corina/corina34_cracker 3.40 0067  02.08.2006

@<TRIPOS>MOLECULE
ASD01882173
  53   56    0    0    0
SMALL
NO_CHARGES


@<TRIPOS>ATOM
   1 C1            -0.4070     0.7384    -1.1126 C.2     
   2 C2             0.0021    -0.0041     0.0020 C.2     
   3 C3            -0.8269    -0.0436     1.1386 C.2     
   4 C4            -1.9990     0.6181     1.1664 C.2     
   5 N5            -2.4375     1.3532     0.1042 N.pl3   
   6 C6            -1.6865     1.4486    -1.0386 C.2     
   7 C7            -3.5720     2.0989    -0.1027 C.2     
   8 C8            -3.4873     2.6148    -1.3454 C.2     
   9 N9            -2.3371     2.2111    -1.8983 N.2     
  10 N10            1.2030    -0.6889    -0.0141 N.pl3   
  11 C11           -4.7001     2.3019     0.8756 C.3     
  12 C12            1.2305    -2.1543     0.0880 C.3     
  13 C13            2.1618    -2.5511     1.2378 C.3     
  14 C14            3.5346    -1.9102     1.0215 C.3     
  15 C15            3.3932    -0.3864     1.0183 C.3     
  16 C16            2.4756     0.0345    -0.1397 C.3     
  17 C17            4.4635    -2.3260     2.1329 C.ar    
  18 C18            5.6283    -3.0109     1.8405 C.ar    
  19 C19            6.4803    -3.3922     2.8598 C.ar    
  20 C20           -5.8074     1.2838     0.5957 C.3     
  21 C21            7.7497    -4.1391     2.5411 C.3     
  22 C22           -6.9527     1.4899     1.5890 C.3     
  23 C23            4.1538    -2.0176     3.4441 C.ar    
  24 C24            5.0060    -2.3990     4.4638 C.ar    
  25 C25            6.1681    -3.0878     4.1719 C.ar    
  26 F26            8.7882    -3.2255     2.3311 F       
  27 F27            8.0772    -4.9796     3.6105 F       
  28 F28            7.5622    -4.9057     1.3859 F       
  29 C29            0.4055     0.8066    -2.2898 C.1     
  30 N30            1.0500     0.8606    -3.2237 N.1     
  31 H31           -0.5180    -0.6142     2.0020 H       
  32 H32           -2.6099     0.5652     2.0554 H       
  33 H33           -4.2232     3.2506    -1.8152 H       
  34 H34           -4.3292     2.1653     1.8914 H       
  35 H35           -5.0982     3.3108     0.7668 H       
  36 H36            0.2253    -2.5257     0.2872 H       
  37 H37            1.6008    -2.5787    -0.8452 H       
  38 H38            1.7426    -2.2033     2.1820 H       
  39 H39            2.2666    -3.6358     1.2634 H       
  40 H40            3.9423    -2.2391     0.0656 H       
  41 H41            2.9625    -0.0590     1.9645 H       
  42 H42            4.3745     0.0697     0.8875 H       
  43 H43            2.9498    -0.2117    -1.0897 H       
  44 H44            2.2912     1.1076    -0.0883 H       
  45 H45            5.8724    -3.2483     0.8156 H       
  46 H46           -6.1783     1.4204    -0.4201 H       
  47 H47           -5.4093     0.2749     0.7045 H       
  48 H48           -6.5818     1.3533     2.6048 H       
  49 H49           -7.3508     2.4988     1.4802 H       
  50 H50           -7.7415     0.7646     1.3896 H       
  51 H51            3.2462    -1.4784     3.6722 H       
  52 H52            4.7641    -2.1578     5.4884 H       
  53 H53            6.8338    -3.3858     4.9684 H       
@<TRIPOS>BOND
   1    1    2 2
   2    1   29 1
   3    1    6 1
   4    2    3 1
   5    2   10 1
   6    3    4 2
   7    3   31 1
   8    4    5 1
   9    4   32 1
  10    5    6 1
  11    5    7 1
  12    6    9 2
  13    7    8 2
  14    7   11 1
  15    8    9 1
  16    8   33 1
  17   10   12 1
  18   10   16 1
  19   11   20 1
  20   11   34 1
  21   11   35 1
  22   12   13 1
  23   12   36 1
  24   12   37 1
  25   13   14 1
  26   13   38 1
  27   13   39 1
  28   14   15 1
  29   14   17 1
  30   14   40 1
  31   15   16 1
  32   15   41 1
  33   15   42 1
  34   16   43 1
  35   16   44 1
  36   17   23 ar
  37   17   18 ar
  38   18   19 ar
  39   18   45 1
  40   19   21 1
  41   19   25 ar
  42   20   22 1
  43   20   46 1
  44   20   47 1
  45   21   26 1
  46   21   27 1
  47   21   28 1
  48   22   48 1
  49   22   49 1
  50   22   50 1
  51   23   24 ar
  52   23   51 1
  53   24   25 ar
  54   24   52 1
  55   25   53 1
  56   29   30 3

#	End of record

