#	Name: ASD00844720
#	Creating user name:	WinNT
#	Creation time:	15. 06. 2019 18:50

#	Modifying user name:	WinNT
#	Modification time:	15. 06. 2019 18:50

#	Program:	/corina/corina34_cracker 3.40 0067  02.08.2006

@<TRIPOS>MOLECULE
ASD00844720
  94   99    0    0    0
SMALL
NO_CHARGES


@<TRIPOS>ATOM
   1 C1             0.7171     1.2154    -0.4478 C.ar    
   2 C2             0.9694    -0.1267    -0.6913 C.ar    
   3 C3             0.8625    -1.0486     0.3401 C.ar    
   4 C4             0.5053    -0.6281     1.6064 C.ar    
   5 C5             0.2539     0.7103     1.8465 C.ar    
   6 C6             0.3601     1.6309     0.8206 C.ar    
   7 C7             1.1354    -2.5075     0.0789 C.3     
   8 C8             0.8227    -3.3342     1.3080 C.2     
   9 C9             0.3201    -2.9981    -1.1192 C.3     
  10 C10           -1.1396    -2.7035    -0.8879 C.2     
  11 N11           -2.0627    -3.1396    -1.7677 N.am    
  12 O12           -1.4837    -2.0739     0.0899 O.2     
  13 C13           -3.4752    -2.7634    -1.6190 C.3     
  14 C14           -4.3268    -4.0368    -1.6140 C.3     
  15 C15           -4.0230    -4.8537    -2.8720 C.3     
  16 C16           -2.5474    -5.2594    -2.8749 C.3     
  17 C17           -1.6748    -3.9953    -2.8973 C.3     
  18 C18           -4.8970    -6.1094    -2.8876 C.3     
  19 C19           -6.3738    -5.7051    -2.8865 C.3     
  20 C20           -7.2421    -6.9629    -2.9637 C.3     
  21 N21           -6.9207    -7.7067    -4.1884 N.3     
  22 C22           -5.5196    -8.1464    -4.1903 C.3     
  23 C23           -4.5999    -6.9239    -4.1497 C.3     
  24 C24           -7.8304    -8.8464    -4.3661 C.3     
  25 O25           -0.2582    -3.4418     1.8475 O.2     
  26 N26            1.9665    -3.9269     1.6886 N.am    
  27 C27            2.6119    -2.7375    -0.1511 C.ar    
  28 C28            3.0344    -3.6003     0.8574 C.ar    
  29 C29            3.4894    -2.2730    -1.0978 C.ar    
  30 C30            4.8314    -2.6677    -1.0561 C.ar    
  31 C31            5.2633    -3.5347    -0.0451 C.ar    
  32 C32            4.3715    -3.9955     0.8995 C.ar    
  33 F33            6.5568    -3.9216     0.0039 F       
  34 C34            1.7737    -6.5698     2.4319 C.ar    
  35 C35            0.5184    -6.9023     1.9432 C.ar    
  36 C36            2.7760    -7.5204     2.4693 C.ar    
  37 C37            2.5312    -8.8037     2.0200 C.ar    
  38 C38            1.2772    -9.1413     1.5302 C.ar    
  39 C39            0.2701    -8.1897     1.4921 C.ar    
  40 O40            1.0369   -10.4039     1.0888 O.3     
  41 O41           -0.4670    -5.9672     1.9071 O.3     
  42 C42           -1.7342    -6.3797     1.3914 C.3     
  43 C43            2.1207   -11.3327     1.1580 C.3     
  44 S44            2.0922    -4.9320     2.9986 S.o2    
  45 O45            3.4559    -4.9034     3.3970 O.2     
  46 O46            1.0210    -4.5931     3.8686 O.2     
  47 C47            5.7554    -2.1889    -2.0398 C.1     
  48 N48            6.4884    -1.8091    -2.8201 N.1     
  49 O49            1.3202    -0.5380    -1.9382 O.3     
  50 C50            1.3473     0.4552    -2.9653 C.3     
  51 C51            1.8398    -0.1738    -4.2701 C.3     
  52 F52            3.0901    -0.7653    -4.0599 F       
  53 F53            0.9281    -1.1477    -4.6916 F       
  54 H54            0.8040     1.9355    -1.2480 H       
  55 H55            0.4220    -1.3453     2.4096 H       
  56 H56           -0.0260     1.0370     2.8371 H       
  57 H57            0.1632     2.6756     1.0107 H       
  58 H58            0.6556    -2.4862    -2.0211 H       
  59 H59            0.4595    -4.0726    -1.2380 H       
  60 H60           -3.6137    -2.2275    -0.6800 H       
  61 H61           -3.7737    -2.1274    -2.4524 H       
  62 H62           -4.0906    -4.6289    -0.7299 H       
  63 H63           -5.3830    -3.7680    -1.6010 H       
  64 H64           -4.2360    -4.2523    -3.7558 H       
  65 H65           -2.3280    -5.8401    -1.9789 H       
  66 H66           -2.3372    -5.8609    -3.7593 H       
  67 H67           -1.8277    -3.4623    -3.8358 H       
  68 H68           -0.6255    -4.2738    -2.7997 H       
  69 H69           -4.6838    -6.7126    -2.0051 H       
  70 H70           -6.6015    -5.1614    -1.9696 H       
  71 H71           -6.5776    -5.0688    -3.7477 H       
  72 H72           -7.0479    -7.5922    -2.0951 H       
  73 H73           -8.2941    -6.6778    -2.9775 H       
  74 H74           -5.3335    -8.7701    -3.3160 H       
  75 H75           -5.3205    -8.7209    -5.0950 H       
  76 H76           -4.7757    -6.3068    -5.0309 H       
  77 H77           -3.5602    -7.2510    -4.1354 H       
  78 H78           -8.8563    -8.4850    -4.4358 H       
  79 H79           -7.5701    -9.3798    -5.2804 H       
  80 H80           -7.7396    -9.5201    -3.5141 H       
  81 H81            3.1454    -1.6048    -1.8734 H       
  82 H82            4.7100    -4.6643     1.6771 H       
  83 H83            3.7525    -7.2596     2.8501 H       
  84 H84            3.3164    -9.5447     2.0496 H       
  85 H85           -0.7064    -8.4506     1.1117 H       
  86 H86           -2.4284    -5.5397     1.4186 H       
  87 H87           -1.6148    -6.7191     0.3625 H       
  88 H88           -2.1262    -7.1948     1.9997 H       
  89 H89            1.7952   -12.3001     0.7756 H       
  90 H90            2.9526   -10.9657     0.5569 H       
  91 H91            2.4411   -11.4407     2.1943 H       
  92 H92            0.3437     0.8549    -3.1107 H       
  93 H93            2.0206     1.2612    -2.6736 H       
  94 H94            1.9269     0.5977    -5.0352 H       
@<TRIPOS>BOND
   1    1    2 ar
   2    1    6 ar
   3    1   54 1
   4    2    3 ar
   5    2   49 1
   6    3    4 ar
   7    3    7 1
   8    4    5 ar
   9    4   55 1
  10    5    6 ar
  11    5   56 1
  12    6   57 1
  13    7    8 1
  14    7    9 1
  15    7   27 1
  16    8   25 2
  17    8   26 am
  18    9   10 1
  19    9   58 1
  20    9   59 1
  21   10   11 am
  22   10   12 2
  23   11   13 1
  24   11   17 1
  25   13   14 1
  26   13   60 1
  27   13   61 1
  28   14   15 1
  29   14   62 1
  30   14   63 1
  31   15   16 1
  32   15   18 1
  33   15   64 1
  34   16   17 1
  35   16   65 1
  36   16   66 1
  37   17   67 1
  38   17   68 1
  39   18   19 1
  40   18   23 1
  41   18   69 1
  42   19   20 1
  43   19   70 1
  44   19   71 1
  45   20   21 1
  46   20   72 1
  47   20   73 1
  48   21   22 1
  49   21   24 1
  50   22   23 1
  51   22   74 1
  52   22   75 1
  53   23   76 1
  54   23   77 1
  55   24   78 1
  56   24   79 1
  57   24   80 1
  58   26   44 am
  59   26   28 1
  60   27   28 ar
  61   27   29 ar
  62   28   32 ar
  63   29   30 ar
  64   29   81 1
  65   30   31 ar
  66   30   47 1
  67   31   32 ar
  68   31   33 1
  69   32   82 1
  70   34   35 ar
  71   34   36 ar
  72   34   44 1
  73   35   41 1
  74   35   39 ar
  75   36   37 ar
  76   36   83 1
  77   37   38 ar
  78   37   84 1
  79   38   39 ar
  80   38   40 1
  81   39   85 1
  82   40   43 1
  83   41   42 1
  84   42   86 1
  85   42   87 1
  86   42   88 1
  87   43   89 1
  88   43   90 1
  89   43   91 1
  90   44   45 2
  91   44   46 2
  92   47   48 3
  93   49   50 1
  94   50   51 1
  95   50   92 1
  96   50   93 1
  97   51   52 1
  98   51   53 1
  99   51   94 1

#	End of record

