#	Name: ASD01885003
#	Creating user name:	WinNT
#	Creation time:	15. 06. 2019 19:49

#	Modifying user name:	WinNT
#	Modification time:	15. 06. 2019 19:49

#	Program:	/corina/corina34_cracker 3.40 0067  02.08.2006

@<TRIPOS>MOLECULE
ASD01885003
  41   43    0    0    0
SMALL
NO_CHARGES


@<TRIPOS>ATOM
   1 C1            -0.0184     1.5028     0.0103 C.3     
   2 C2             0.0021    -0.0041     0.0020 C.ar    
   3 C3             0.0056    -0.6804    -1.2030 C.ar    
   4 C4             0.0249    -2.0669    -1.1996 C.ar    
   5 C5             0.0299    -2.8415    -2.4924 C.3     
   6 O6             1.3786    -3.0676    -2.9070 O.3     
   7 C7             1.5608    -3.7565    -4.0617 C.ar    
   8 C8             0.4679    -4.2065    -4.7936 C.ar    
   9 N9             0.6335    -4.8750    -5.9130 N.ar    
  10 C10            1.8400    -5.1507    -6.3959 C.ar    
  11 C11            2.9880    -4.7363    -5.7255 C.ar    
  12 C12            2.8547    -4.0193    -4.5363 C.ar    
  13 C13            4.0488    -3.5522    -3.7908 C.ar    
  14 C14            4.1360    -2.2259    -3.3710 C.ar    
  15 C15            5.2486    -1.7957    -2.6779 C.ar    
  16 C16            6.2783    -2.6798    -2.3990 C.ar    
  17 F17            7.3660    -2.2543    -1.7200 F       
  18 C18            6.1957    -3.9992    -2.8140 C.ar    
  19 C19            5.0845    -4.4395    -3.5031 C.ar    
  20 C20            1.9655    -5.9075    -7.6609 C.2     
  21 N21            0.8597    -6.3128    -8.3162 N.am    
  22 O22            3.0658    -6.1636    -8.1093 O.2     
  23 C23            0.0400    -2.7236     0.0212 C.ar    
  24 C24            0.0354    -1.9798     1.1862 C.ar    
  25 N25            0.0219    -0.6619     1.1449 N.ar    
  26 H26            1.0042     1.8801     0.0026 H       
  27 H27           -0.5455     1.8639    -0.8728 H       
  28 H28           -0.5286     1.8543     0.9071 H       
  29 H29           -0.0069    -0.1359    -2.1356 H       
  30 H30           -0.4700    -3.7987    -2.3443 H       
  31 H31           -0.4953    -2.2721    -3.2591 H       
  32 H32           -0.5313    -4.0042    -4.4372 H       
  33 H33            3.9665    -4.9634    -6.1221 H       
  34 H34            3.3339    -1.5361    -3.5882 H       
  35 H35            5.3171    -0.7682    -2.3525 H       
  36 H36            7.0005    -4.6851    -2.5942 H       
  37 H37            5.0190    -5.4690    -3.8226 H       
  38 H38           -0.0184    -6.1084    -7.9584 H       
  39 H39            0.9420    -6.8090    -9.1456 H       
  40 H40            0.0549    -3.8028     0.0614 H       
  41 H41            0.0467    -2.4838     2.1413 H       
@<TRIPOS>BOND
   1    1    2 1
   2    1   26 1
   3    1   27 1
   4    1   28 1
   5    2   25 ar
   6    2    3 ar
   7    3    4 ar
   8    3   29 1
   9    4    5 1
  10    4   23 ar
  11    5    6 1
  12    5   30 1
  13    5   31 1
  14    6    7 1
  15    7   12 ar
  16    7    8 ar
  17    8    9 ar
  18    8   32 1
  19    9   10 ar
  20   10   11 ar
  21   10   20 1
  22   11   12 ar
  23   11   33 1
  24   12   13 1
  25   13   19 ar
  26   13   14 ar
  27   14   15 ar
  28   14   34 1
  29   15   16 ar
  30   15   35 1
  31   16   17 1
  32   16   18 ar
  33   18   19 ar
  34   18   36 1
  35   19   37 1
  36   20   21 am
  37   20   22 2
  38   21   38 1
  39   21   39 1
  40   23   24 ar
  41   23   40 1
  42   24   25 ar
  43   24   41 1

#	End of record

