#	Name: ASD01208725
#	Creating user name:	WinNT
#	Creation time:	15. 06. 2019 19:10

#	Modifying user name:	WinNT
#	Modification time:	15. 06. 2019 19:10

#	Program:	/corina/corina34_cracker 3.40 0067  02.08.2006

@<TRIPOS>MOLECULE
ASD01208725
  55   58    0    0    0
SMALL
NO_CHARGES


@<TRIPOS>ATOM
   1 C1            -0.3173     1.7804     1.0055 C.2     
   2 C2            -0.2271     0.4165     0.4426 C.ar    
   3 C3             1.0162    -0.2018     0.3024 C.ar    
   4 C4             1.0963    -1.4797    -0.2254 C.ar    
   5 C5            -0.0573    -2.1453    -0.6146 C.ar    
   6 C6            -1.2953    -1.5342    -0.4774 C.ar    
   7 C7            -1.3850    -0.2584     0.0554 C.ar    
   8 O8             0.6923     2.3651     1.3469 O.2     
   9 N9            -1.5184     2.3779     1.1349 N.am    
  10 O10           -2.4219    -2.1902    -0.8610 O.3     
  11 C11           -2.9893    -1.8441    -2.0454 C.ar    
  12 C12           -4.1611    -2.4645    -2.4598 C.ar    
  13 C13           -4.7397    -2.1160    -3.6610 C.ar    
  14 C14           -4.1470    -1.1377    -4.4616 C.ar    
  15 C15           -2.9694    -0.5160    -4.0415 C.ar    
  16 C16           -2.3994    -0.8665    -2.8367 C.ar    
  17 O17           -4.3029     0.1609    -6.6189 O.3     
  18 C18           -4.7639    -0.7615    -5.7506 C.2     
  19 N19           -5.8633    -1.2631    -6.2635 N.2     
  20 N20           -6.0990    -0.6990    -7.3956 N.2     
  21 C21           -5.1678     0.1774    -7.6483 C.2     
  22 C22           -5.0768     1.0509    -8.8729 C.3     
  23 O23            2.3066    -2.0825    -0.3627 O.3     
  24 C24            3.5906    -4.1298    -0.3688 C.3     
  25 C25            2.3095    -3.4326    -0.8309 C.3     
  26 C26            2.2465    -3.4424    -2.3596 C.3     
  27 O27            4.7197    -3.5120    -0.9896 O.3     
  28 C28            5.9737    -4.0912    -0.6233 C.3     
  29 S29           -3.0920     4.5729     1.8966 S.3     
  30 C30           -1.6033     3.6604     1.6641 C.2     
  31 N31           -0.5982     4.3765     2.0662 N.2     
  32 C32           -0.8704     5.5770     2.5426 C.2     
  33 C33           -2.1613     5.9170     2.5548 C.2     
  34 F34           -2.6671     7.0895     2.9958 F       
  35 H35            1.9146     0.3156     0.6048 H       
  36 H36            0.0088    -3.1417    -1.0258 H       
  37 H37           -2.3495     0.2147     0.1664 H       
  38 H38           -2.3237     1.9130     0.8587 H       
  39 H39           -4.6190    -3.2211    -1.8400 H       
  40 H40           -5.6504    -2.5993    -3.9829 H       
  41 H41           -2.5078     0.2409    -4.6582 H       
  42 H42           -1.4906    -0.3834    -2.5093 H       
  43 H43           -4.5025     0.5371    -9.6438 H       
  44 H44           -6.0796     1.2599    -9.2454 H       
  45 H45           -4.5824     1.9876    -8.6152 H       
  46 H46            3.6799    -4.0452     0.7143 H       
  47 H47            3.5527    -5.1825    -0.6490 H       
  48 H48            1.4440    -3.9587    -0.4282 H       
  49 H49            1.3339    -2.9457    -2.6888 H       
  50 H50            3.1121    -2.9163    -2.7623 H       
  51 H51            2.2488    -4.4723    -2.7167 H       
  52 H52            6.1124    -4.0058     0.4544 H       
  53 H53            5.9852    -5.1431    -0.9089 H       
  54 H54            6.7799    -3.5666    -1.1362 H       
  55 H55           -0.0980     6.2418     2.9000 H       
@<TRIPOS>BOND
   1    1    2 1
   2    1    8 2
   3    1    9 am
   4    2    3 ar
   5    2    7 ar
   6    3    4 ar
   7    3   35 1
   8    4    5 ar
   9    4   23 1
  10    5    6 ar
  11    5   36 1
  12    6    7 ar
  13    6   10 1
  14    7   37 1
  15    9   30 1
  16    9   38 1
  17   10   11 1
  18   11   12 ar
  19   11   16 ar
  20   12   13 ar
  21   12   39 1
  22   13   14 ar
  23   13   40 1
  24   14   15 ar
  25   14   18 1
  26   15   16 ar
  27   15   41 1
  28   16   42 1
  29   17   18 1
  30   17   21 1
  31   18   19 2
  32   19   20 1
  33   20   21 2
  34   21   22 1
  35   22   43 1
  36   22   44 1
  37   22   45 1
  38   23   25 1
  39   24   25 1
  40   24   27 1
  41   24   46 1
  42   24   47 1
  43   25   26 1
  44   25   48 1
  45   26   49 1
  46   26   50 1
  47   26   51 1
  48   27   28 1
  49   28   52 1
  50   28   53 1
  51   28   54 1
  52   29   30 1
  53   29   33 1
  54   30   31 2
  55   31   32 1
  56   32   33 2
  57   32   55 1
  58   33   34 1

#	End of record

