#	Name: ASD06610036
#	Creating user name:	WinNT
#	Creation time:	15. 06. 2019 21:07

#	Modifying user name:	WinNT
#	Modification time:	15. 06. 2019 21:07

#	Program:	/corina/corina34_cracker 3.40 0067  02.08.2006

@<TRIPOS>MOLECULE
ASD06610036
 313  314    0    0    0
SMALL
NO_CHARGES


@<TRIPOS>ATOM
   1 C1            -3.6926   -10.8558    -5.0620 C.2     
   2 O2            -4.0621   -12.0044    -4.9394 O.2     
   3 N3            -1.4876   -11.8109    -5.4007 N.am    
   4 C4            -2.2406   -10.5561    -5.3317 C.3     
   5 C5            -2.1122    -9.8105    -6.6616 C.3     
   6 C6            -0.6768    -9.4030    -6.8726 C.ar    
   7 C7             0.1934   -10.2525    -7.5298 C.ar    
   8 C8             1.5102    -9.8787    -7.7233 C.ar    
   9 C9             1.9566    -8.6553    -7.2598 C.ar    
  10 C10            1.0861    -7.8054    -6.6034 C.ar    
  11 C11           -0.2317    -8.1774    -6.4138 C.ar    
  12 C12           -6.8433    -9.0097    -5.2298 C.2     
  13 O13           -6.3201    -8.0551    -5.7643 O.2     
  14 N14           -4.5816    -9.8476    -4.9625 N.am    
  15 C15           -5.9942   -10.1393    -4.7062 C.3     
  16 C16           -6.2187   -10.2905    -3.2004 C.3     
  17 C17           -5.4540   -11.5139    -2.6910 C.3     
  18 C18           -5.6785   -11.6651    -1.1852 C.3     
  19 N19           -4.9463   -12.8365    -0.6975 N.pl3   
  20 C20           -4.9984   -13.1744     0.6341 C.2     
  21 N21           -4.3469   -14.2166     1.0681 N.2     
  22 N22           -5.7377   -12.4130     1.5081 N.pl3   
  23 C23          -10.3138    -7.9228    -4.8587 C.2     
  24 O24          -10.5321    -8.7322    -3.9822 O.2     
  25 N25           -8.1843    -9.0604    -5.1040 N.am    
  26 C26           -9.0097    -7.9623    -5.6130 C.3     
  27 C27           -9.2880    -8.1810    -7.1015 C.3     
  28 O28          -10.0797    -9.3586    -7.2701 O.3     
  29 C29          -13.5601    -6.2958    -5.2794 C.2     
  30 O30          -13.2807    -5.9007    -6.3914 O.2     
  31 N31          -11.2374    -6.9880    -5.1580 N.am    
  32 C32          -12.5051    -6.9496    -4.4247 C.3     
  33 C33          -12.3240    -6.1470    -3.1348 C.3     
  34 O34          -12.0327    -4.7858    -3.4577 O.3     
  35 C35          -16.9070    -4.9224    -4.7543 C.2     
  36 O36          -16.8193    -5.0217    -3.5487 O.2     
  37 N37          -14.8143    -6.1500    -4.8078 N.am    
  38 C38          -15.8399    -5.5143    -5.6386 C.3     
  39 C39          -16.4664    -6.5593    -6.5641 C.3     
  40 C40          -15.4097    -7.0701    -7.5457 C.3     
  41 C41          -16.0362    -8.1151    -8.4711 C.3     
  42 N42          -15.0244    -8.6042    -9.4110 N.pl3   
  43 C43          -15.3575    -9.5557   -10.3458 C.2     
  44 N44          -16.5734   -10.0226   -10.3959 N.2     
  45 N45          -14.4080   -10.0148   -11.2278 N.pl3   
  46 C46          -20.2895    -3.6135    -5.2108 C.2     
  47 O47          -20.3399    -3.9903    -6.3625 O.2     
  48 N48          -17.9586    -4.2826    -5.3030 N.am    
  49 C49          -18.9959    -3.7072    -4.4433 C.3     
  50 C50          -18.5675    -2.3091    -3.9932 C.3     
  51 C51          -17.3232    -2.4167    -3.1095 C.3     
  52 C52          -16.9013    -1.0396    -2.6661 C.2     
  53 O53          -17.5312    -0.0714    -3.0206 O.2     
  54 O54          -15.8256    -0.8886    -1.8775 O.3     
  55 C55          -23.5046    -1.9300    -4.7725 C.2     
  56 O56          -23.1042    -1.2922    -3.8218 O.2     
  57 N57          -21.3903    -3.1110    -4.6173 N.am    
  58 C58          -22.6478    -3.0199    -5.3634 C.3     
  59 C59          -23.3898    -4.3551    -5.2772 C.3     
  60 C60          -22.5752    -5.4380    -5.9876 C.3     
  61 C61          -23.3172    -6.7733    -5.9015 C.3     
  62 C62          -22.5026    -7.8562    -6.6119 C.3     
  63 N63          -23.2150    -9.1382    -6.5292 N.3     
  64 C64          -26.9979    -0.8844    -5.0304 C.2     
  65 O65          -27.3048    -1.8716    -5.6646 O.2     
  66 N66          -24.7158    -1.6641    -5.3006 N.am    
  67 C67          -25.5487    -0.6046    -4.7262 C.3     
  68 C68          -25.1510     0.7423    -5.3331 C.3     
  69 C69          -23.7183     1.0849    -4.9197 C.3     
  70 C70          -23.3205     2.4318    -5.5267 C.3     
  71 N71          -21.9487     2.7598    -5.1309 N.pl3   
  72 C72          -21.3709     3.9312    -5.5598 C.2     
  73 N73          -22.0436     4.7500    -6.3188 N.2     
  74 N74          -20.0835     4.2391    -5.1884 N.pl3   
  75 C75          -30.1370     0.9827    -4.8777 C.2     
  76 O76          -29.5686     2.0279    -4.6425 O.2     
  77 N77          -27.9530    -0.0376    -4.5978 N.am    
  78 C78          -29.3618    -0.3096    -4.8935 C.3     
  79 C79          -29.9308    -1.2586    -3.8369 C.3     
  80 C80          -29.2273    -2.6136    -3.9366 C.3     
  81 C81          -29.7963    -3.5626    -2.8800 C.3     
  82 N82          -29.1227    -4.8601    -2.9755 N.pl3   
  83 C83          -29.4698    -5.8794    -2.1207 C.2     
  84 N84          -30.3982    -5.6914    -1.2253 N.2     
  85 N85          -28.8378    -7.0970    -2.2103 N.pl3   
  86 C86          -33.6621     1.9473    -4.7988 C.2     
  87 O87          -34.0276     0.8066    -4.6089 O.2     
  88 N88          -31.4619     0.9768    -5.1249 N.am    
  89 C89          -32.2154     2.2330    -5.1095 C.3     
  90 C90          -32.1115     2.9069    -6.4792 C.3     
  91 O91          -32.7550     2.0921    -7.4610 O.3     
  92 C92          -36.8176     3.7826    -4.9921 C.2     
  93 O93          -36.3072     4.7083    -5.5867 O.2     
  94 N94          -34.5496     2.9593    -4.7319 N.am    
  95 C95          -35.9560     2.6815    -4.4298 C.3     
  96 C96          -36.1471     2.6083    -2.9136 C.3     
  97 C97          -39.1016     5.8734    -4.1736 C.2     
  98 O98          -38.5490     5.6770    -3.1120 O.2     
  99 N99          -38.1553     3.7387    -4.8343 N.am    
 100 C100         -38.9831     4.8609    -5.2834 C.3     
 101 C101         -40.3756     4.3495    -5.6581 C.3     
 102 C102         -40.2730     3.4496    -6.8625 C.2     
 103 O103         -39.1893     3.1734    -7.3197 O.2     
 104 O104         -41.3856     2.9548    -7.4274 O.3     
 105 C105         -41.4130     8.5186    -3.3398 C.2     
 106 O106         -42.1508     8.1976    -4.2473 O.2     
 107 N107         -39.8217     6.9972    -4.3607 N.am    
 108 C108         -40.0297     7.9277    -3.2484 C.3     
 109 C109         -38.9906     9.0484    -3.3199 C.3     
 110 C110         -39.0288     9.6915    -4.7076 C.3     
 111 C111         -40.3544    10.4335    -4.8896 C.3     
 112 C112         -37.5976     8.4695    -3.0643 C.3     
 113 C113         -43.2814    11.2380    -1.7659 C.2     
 114 O114         -42.2749    11.7451    -1.3180 O.2     
 115 N115         -41.8302     9.4038    -2.4130 N.am    
 116 C116         -43.2126     9.8884    -2.4330 C.3     
 117 C117         -44.1096     8.9021    -1.6823 C.3     
 118 C118         -44.1373     7.5876    -2.4187 C.ar    
 119 C119         -43.2067     6.6094    -2.1220 C.ar    
 120 C120         -43.2320     5.4036    -2.7975 C.ar    
 121 C121         -44.1884     5.1758    -3.7693 C.ar    
 122 C122         -45.1196     6.1536    -4.0653 C.ar    
 123 C123         -45.0969     7.3578    -3.3868 C.ar    
 124 C124         -44.6676    13.0111     0.4707 C.2     
 125 O125         -44.7068    11.8993     0.9422 O.2     
 126 N126         -44.4616    11.8814    -1.6672 N.am    
 127 C127         -44.5285    13.1934    -1.0188 C.3     
 128 C128         -45.7366    13.9653    -1.5531 C.3     
 129 C129         -45.7363    15.3800    -0.9704 C.3     
 130 C130         -46.8711    16.1909    -1.5994 C.3     
 131 C131         -47.0233    13.2456    -1.1441 C.3     
 132 O132         -44.7480    14.0838     1.2735 O.3     
 133 C133          -0.1672   -11.8202    -5.1303 C.2     
 134 O134           0.3975   -10.7897    -4.8300 O.2     
 135 C135          16.3730   -20.4291    -3.2603 C.3     
 136 C136          15.5866   -19.1186    -3.1884 C.3     
 137 C137          14.1207   -19.3836    -3.5376 C.3     
 138 C138          13.3343   -18.0732    -3.4656 C.3     
 139 C139          11.8685   -18.3382    -3.8149 C.3     
 140 C140          11.0821   -17.0277    -3.7429 C.3     
 141 C141           9.6163   -17.2927    -4.0922 C.3     
 142 C142           8.8299   -15.9823    -4.0202 C.3     
 143 C143           7.3640   -16.2473    -4.3694 C.3     
 144 C144           6.5776   -14.9368    -4.2974 C.3     
 145 C145           5.1118   -15.2018    -4.6467 C.3     
 146 C146           4.3254   -13.8914    -4.5747 C.3     
 147 C147           2.8596   -14.1564    -4.9240 C.3     
 148 C148           2.0732   -12.8459    -4.8520 C.3     
 149 C149           0.6073   -13.1109    -5.2012 C.3     
 150 H150          -1.9393   -12.6350    -5.6408 H       
 151 H151          -1.8420    -9.9368    -4.5281 H       
 152 H152          -2.4281   -10.4628    -7.4758 H       
 153 H153          -2.7431    -8.9219    -6.6424 H       
 154 H154          -0.1553   -11.2084    -7.8919 H       
 155 H155           2.1902   -10.5427    -8.2362 H       
 156 H156           2.9855    -8.3635    -7.4103 H       
 157 H157           1.4350    -6.8497    -6.2410 H       
 158 H158          -0.9127    -7.5118    -5.9041 H       
 159 H159          -4.2861    -8.9290    -5.0606 H       
 160 H160          -6.2711   -11.0655    -5.2097 H       
 161 H161          -5.8593    -9.3981    -2.6880 H       
 162 H162          -7.2829   -10.4191    -3.0028 H       
 163 H163          -5.8134   -12.4063    -3.2034 H       
 164 H164          -4.3898   -11.3853    -2.8886 H       
 165 H165          -5.3191   -10.7727    -0.6728 H       
 166 H166          -6.7427   -11.7937    -0.9876 H       
 167 H167          -4.4247   -13.3737    -1.3141 H       
 168 H168          -4.3837   -14.4550     2.0076 H       
 169 H169          -6.2226   -11.6374     1.1852 H       
 170 H170          -5.7745   -12.6514     2.4476 H       
 171 H171          -8.6028    -9.8239    -4.6765 H       
 172 H172          -8.4825    -7.0181    -5.4768 H       
 173 H173          -9.8261    -7.3212    -7.5006 H       
 174 H174          -8.3443    -8.2983    -7.6341 H       
 175 H175         -10.2949    -9.5593    -8.1912 H       
 176 H176         -11.0628    -6.3407    -5.8590 H       
 177 H177         -12.8142    -7.9658    -4.1800 H       
 178 H178         -13.2406    -6.1927    -2.5467 H       
 179 H179         -11.5007    -6.5677    -2.5576 H       
 180 H180         -11.9053    -4.2171    -2.6861 H       
 181 H181         -15.0378    -6.4659    -3.9184 H       
 182 H182         -15.3850    -4.7250    -6.2371 H       
 183 H183         -16.8429    -7.3918    -5.9698 H       
 184 H184         -17.2889    -6.1073    -7.1184 H       
 185 H185         -15.0332    -6.2376    -8.1399 H       
 186 H186         -14.5872    -7.5222    -6.9914 H       
 187 H187         -16.4127    -8.9476    -7.8769 H       
 188 H188         -16.8587    -7.6631    -9.0255 H       
 189 H189         -14.1196    -8.2568    -9.3737 H       
 190 H190         -16.8084   -10.6939   -11.0555 H       
 191 H191         -13.5031    -9.6673   -11.1906 H       
 192 H192         -14.6430   -10.6861   -11.8874 H       
 193 H193         -18.0287    -4.2032    -6.2672 H       
 194 H194         -19.1373    -4.3429    -3.5692 H       
 195 H195         -18.3404    -1.6995    -4.8678 H       
 196 H196         -19.3760    -1.8459    -3.4275 H       
 197 H197         -17.5503    -3.0263    -2.2349 H       
 198 H198         -16.5148    -2.8799    -3.6752 H       
 199 H199         -15.5939     0.0139    -1.6191 H       
 200 H200         -21.3499    -2.8096    -3.6962 H       
 201 H201         -22.4350    -2.7891    -6.4072 H       
 202 H202         -23.5241    -4.6293    -4.2308 H       
 203 H203         -24.3644    -4.2608    -5.7561 H       
 204 H204         -22.4408    -5.1639    -7.0340 H       
 205 H205         -21.6006    -5.5324    -5.5088 H       
 206 H206         -23.4515    -7.0474    -4.8551 H       
 207 H207         -24.2918    -6.6789    -6.3803 H       
 208 H208         -22.3683    -7.5820    -7.6583 H       
 209 H209         -21.5280    -7.9505    -6.1330 H       
 210 H210         -24.1465    -9.0594    -6.9088 H       
 211 H211         -22.6969    -9.8703    -6.9915 H       
 212 H212         -25.0359    -2.1743    -6.0609 H       
 213 H213         -25.4036    -0.5736    -3.6463 H       
 214 H214         -25.2112     0.6831    -6.4199 H       
 215 H215         -25.8280     1.5171    -4.9734 H       
 216 H216         -23.6580     1.1441    -3.8330 H       
 217 H217         -23.0412     0.3101    -5.2795 H       
 218 H218         -23.3808     2.3726    -6.6134 H       
 219 H219         -23.9976     3.2066    -5.1669 H       
 220 H220         -21.4480     2.1505    -4.5661 H       
 221 H221         -21.6360     5.5765    -6.6214 H       
 222 H222         -19.5828     3.6297    -4.6236 H       
 223 H223         -19.6758     5.0656    -5.4910 H       
 224 H224         -27.7076     0.7520    -4.0905 H       
 225 H225         -29.4440    -0.7705    -5.8779 H       
 226 H226         -29.7685    -0.8371    -2.8449 H       
 227 H227         -30.9996    -1.3908    -4.0050 H       
 228 H228         -29.3896    -3.0351    -4.9286 H       
 229 H229         -28.1585    -2.4814    -3.7685 H       
 230 H230         -29.6340    -3.1412    -1.8879 H       
 231 H231         -30.8651    -3.6949    -3.0481 H       
 232 H232         -28.4319    -5.0000    -3.6418 H       
 233 H233         -30.6431    -6.4106    -0.6222 H       
 234 H234         -28.1469    -7.2369    -2.8766 H       
 235 H235         -29.0827    -7.8162    -1.6072 H       
 236 H236         -31.9164     0.1408    -5.3130 H       
 237 H237         -31.8038     2.8943    -4.3470 H       
 238 H238         -32.5966     3.8823    -6.4419 H       
 239 H239         -31.0615     3.0332    -6.7433 H       
 240 H240         -32.7278     2.4586    -8.3554 H       
 241 H241         -34.2573     3.8716    -4.8838 H       
 242 H242         -36.2430     1.7305    -4.8785 H       
 243 H243         -37.1934     2.4016    -2.6888 H       
 244 H244         -35.5239     1.8118    -2.5068 H       
 245 H245         -35.8601     3.5593    -2.4648 H       
 246 H246         -38.5701     2.9641    -4.4234 H       
 247 H247         -38.5213     5.3277    -6.1534 H       
 248 H248         -40.7947     3.7905    -4.8215 H       
 249 H249         -41.0229     5.1952    -5.8905 H       
 250 H250         -41.2695     2.3823    -8.1979 H       
 251 H251         -40.2022     7.1900    -5.2319 H       
 252 H252         -39.9242     7.3941    -2.3038 H       
 253 H253         -39.2155     9.8011    -2.5643 H       
 254 H254         -38.2022    10.3954    -4.8048 H       
 255 H255         -38.9382     8.9173    -5.4695 H       
 256 H256         -40.5654    11.0243    -3.9982 H       
 257 H257         -40.2859    11.0930    -5.7548 H       
 258 H258         -41.1563     9.7118    -5.0454 H       
 259 H259         -37.3928     7.6819    -3.7895 H       
 260 H260         -36.8522     9.2584    -3.1644 H       
 261 H261         -37.5555     8.0556    -2.0568 H       
 262 H262         -41.2152     9.7200    -1.7328 H       
 263 H263         -43.5522     9.9754    -3.4650 H       
 264 H264         -43.7178     8.7473    -0.6770 H       
 265 H265         -45.1205     9.3052    -1.6202 H       
 266 H266         -42.4595     6.7874    -1.3628 H       
 267 H267         -42.5045     4.6397    -2.5663 H       
 268 H268         -44.2078     4.2340    -4.2976 H       
 269 H269         -45.8666     5.9757    -4.8248 H       
 270 H270         -45.8268     8.1203    -3.6154 H       
 271 H271         -45.2666    11.4758    -2.0254 H       
 272 H272         -43.6170    13.7515    -1.2329 H       
 273 H273         -45.6808    14.0202    -2.6403 H       
 274 H274         -45.8813    15.3285     0.1087 H       
 275 H275         -44.7826    15.8617    -1.1863 H       
 276 H276         -46.7261    16.2424    -2.6784 H       
 277 H277         -47.8248    15.7093    -1.3835 H       
 278 H278         -46.8709    17.1988    -1.1842 H       
 279 H279         -47.8839    13.7955    -1.5248 H       
 280 H280         -47.0235    12.2377    -1.5593 H       
 281 H281         -47.0791    13.1907    -0.0569 H       
 282 H282         -44.8363    13.9168     2.2219 H       
 283 H283          15.9541   -21.1436    -2.5517 H       
 284 H284          16.3078   -20.8370    -4.2690 H       
 285 H285          17.4172   -20.2403    -3.0115 H       
 286 H286          15.6517   -18.7107    -2.1797 H       
 287 H287          16.0055   -18.4041    -3.8970 H       
 288 H288          14.0556   -19.7915    -4.5463 H       
 289 H289          13.7018   -20.0981    -2.8290 H       
 290 H290          13.3995   -17.6653    -2.4569 H       
 291 H291          13.7532   -17.3587    -4.1742 H       
 292 H292          11.8033   -18.7461    -4.8236 H       
 293 H293          11.4496   -19.0527    -3.1063 H       
 294 H294          11.1473   -16.6198    -2.7342 H       
 295 H295          11.5010   -16.3132    -4.4515 H       
 296 H296           9.5511   -17.7006    -5.1009 H       
 297 H297           9.1974   -18.0072    -3.3836 H       
 298 H298           8.8950   -15.5744    -3.0115 H       
 299 H299           9.2488   -15.2678    -4.7288 H       
 300 H300           7.2989   -16.6552    -5.3781 H       
 301 H301           6.9451   -16.9618    -3.6608 H       
 302 H302           6.6428   -14.5289    -3.2887 H       
 303 H303           6.9965   -14.2223    -5.0061 H       
 304 H304           5.0466   -15.6097    -5.6554 H       
 305 H305           4.6929   -15.9163    -3.9381 H       
 306 H306           4.3906   -13.4835    -3.5660 H       
 307 H307           4.7443   -13.1769    -5.2833 H       
 308 H308           2.7944   -14.5643    -5.9327 H       
 309 H309           2.4407   -14.8709    -4.2154 H       
 310 H310           2.1383   -12.4380    -3.8433 H       
 311 H311           2.4921   -12.1314    -5.5606 H       
 312 H312           0.1884   -13.8254    -4.4926 H       
 313 H313           0.5422   -13.5188    -6.2099 H       
@<TRIPOS>BOND
   1    1    2 2
   2    1    4 1
   3    1   14 am
   4    3  133 am
   5    3    4 1
   6    3  150 1
   7    4    5 1
   8    4  151 1
   9    5    6 1
  10    5  152 1
  11    5  153 1
  12    6    7 ar
  13    6   11 ar
  14    7    8 ar
  15    7  154 1
  16    8    9 ar
  17    8  155 1
  18    9   10 ar
  19    9  156 1
  20   10   11 ar
  21   10  157 1
  22   11  158 1
  23   12   13 2
  24   12   15 1
  25   12   25 am
  26   14   15 1
  27   14  159 1
  28   15   16 1
  29   15  160 1
  30   16   17 1
  31   16  161 1
  32   16  162 1
  33   17   18 1
  34   17  163 1
  35   17  164 1
  36   18   19 1
  37   18  165 1
  38   18  166 1
  39   19   20 1
  40   19  167 1
  41   20   21 2
  42   20   22 1
  43   21  168 1
  44   22  169 1
  45   22  170 1
  46   23   24 2
  47   23   26 1
  48   23   31 am
  49   25   26 1
  50   25  171 1
  51   26   27 1
  52   26  172 1
  53   27   28 1
  54   27  173 1
  55   27  174 1
  56   28  175 1
  57   29   30 2
  58   29   32 1
  59   29   37 am
  60   31   32 1
  61   31  176 1
  62   32   33 1
  63   32  177 1
  64   33   34 1
  65   33  178 1
  66   33  179 1
  67   34  180 1
  68   35   36 2
  69   35   38 1
  70   35   48 am
  71   37   38 1
  72   37  181 1
  73   38   39 1
  74   38  182 1
  75   39   40 1
  76   39  183 1
  77   39  184 1
  78   40   41 1
  79   40  185 1
  80   40  186 1
  81   41   42 1
  82   41  187 1
  83   41  188 1
  84   42   43 1
  85   42  189 1
  86   43   44 2
  87   43   45 1
  88   44  190 1
  89   45  191 1
  90   45  192 1
  91   46   47 2
  92   46   49 1
  93   46   57 am
  94   48   49 1
  95   48  193 1
  96   49   50 1
  97   49  194 1
  98   50   51 1
  99   50  195 1
 100   50  196 1
 101   51   52 1
 102   51  197 1
 103   51  198 1
 104   52   53 2
 105   52   54 1
 106   54  199 1
 107   55   56 2
 108   55   58 1
 109   55   66 am
 110   57   58 1
 111   57  200 1
 112   58   59 1
 113   58  201 1
 114   59   60 1
 115   59  202 1
 116   59  203 1
 117   60   61 1
 118   60  204 1
 119   60  205 1
 120   61   62 1
 121   61  206 1
 122   61  207 1
 123   62   63 1
 124   62  208 1
 125   62  209 1
 126   63  210 1
 127   63  211 1
 128   64   65 2
 129   64   67 1
 130   64   77 am
 131   66   67 1
 132   66  212 1
 133   67   68 1
 134   67  213 1
 135   68   69 1
 136   68  214 1
 137   68  215 1
 138   69   70 1
 139   69  216 1
 140   69  217 1
 141   70   71 1
 142   70  218 1
 143   70  219 1
 144   71   72 1
 145   71  220 1
 146   72   73 2
 147   72   74 1
 148   73  221 1
 149   74  222 1
 150   74  223 1
 151   75   76 2
 152   75   78 1
 153   75   88 am
 154   77   78 1
 155   77  224 1
 156   78   79 1
 157   78  225 1
 158   79   80 1
 159   79  226 1
 160   79  227 1
 161   80   81 1
 162   80  228 1
 163   80  229 1
 164   81   82 1
 165   81  230 1
 166   81  231 1
 167   82   83 1
 168   82  232 1
 169   83   84 2
 170   83   85 1
 171   84  233 1
 172   85  234 1
 173   85  235 1
 174   86   87 2
 175   86   89 1
 176   86   94 am
 177   88   89 1
 178   88  236 1
 179   89   90 1
 180   89  237 1
 181   90   91 1
 182   90  238 1
 183   90  239 1
 184   91  240 1
 185   92   93 2
 186   92   95 1
 187   92   99 am
 188   94   95 1
 189   94  241 1
 190   95   96 1
 191   95  242 1
 192   96  243 1
 193   96  244 1
 194   96  245 1
 195   97   98 2
 196   97  100 1
 197   97  107 am
 198   99  100 1
 199   99  246 1
 200  100  101 1
 201  100  247 1
 202  101  102 1
 203  101  248 1
 204  101  249 1
 205  102  103 2
 206  102  104 1
 207  104  250 1
 208  105  106 2
 209  105  108 1
 210  105  115 am
 211  107  108 1
 212  107  251 1
 213  108  109 1
 214  108  252 1
 215  109  110 1
 216  109  112 1
 217  109  253 1
 218  110  111 1
 219  110  254 1
 220  110  255 1
 221  111  256 1
 222  111  257 1
 223  111  258 1
 224  112  259 1
 225  112  260 1
 226  112  261 1
 227  113  114 2
 228  113  116 1
 229  113  126 am
 230  115  116 1
 231  115  262 1
 232  116  117 1
 233  116  263 1
 234  117  118 1
 235  117  264 1
 236  117  265 1
 237  118  119 ar
 238  118  123 ar
 239  119  120 ar
 240  119  266 1
 241  120  121 ar
 242  120  267 1
 243  121  122 ar
 244  121  268 1
 245  122  123 ar
 246  122  269 1
 247  123  270 1
 248  124  125 2
 249  124  127 1
 250  124  132 1
 251  126  127 1
 252  126  271 1
 253  127  128 1
 254  127  272 1
 255  128  129 1
 256  128  131 1
 257  128  273 1
 258  129  130 1
 259  129  274 1
 260  129  275 1
 261  130  276 1
 262  130  277 1
 263  130  278 1
 264  131  279 1
 265  131  280 1
 266  131  281 1
 267  132  282 1
 268  133  134 2
 269  133  149 1
 270  135  136 1
 271  135  283 1
 272  135  284 1
 273  135  285 1
 274  136  137 1
 275  136  286 1
 276  136  287 1
 277  137  138 1
 278  137  288 1
 279  137  289 1
 280  138  139 1
 281  138  290 1
 282  138  291 1
 283  139  140 1
 284  139  292 1
 285  139  293 1
 286  140  141 1
 287  140  294 1
 288  140  295 1
 289  141  142 1
 290  141  296 1
 291  141  297 1
 292  142  143 1
 293  142  298 1
 294  142  299 1
 295  143  144 1
 296  143  300 1
 297  143  301 1
 298  144  145 1
 299  144  302 1
 300  144  303 1
 301  145  146 1
 302  145  304 1
 303  145  305 1
 304  146  147 1
 305  146  306 1
 306  146  307 1
 307  147  148 1
 308  147  308 1
 309  147  309 1
 310  148  149 1
 311  148  310 1
 312  148  311 1
 313  149  312 1
 314  149  313 1

#	End of record

