#	Name: ASD05143072
#	Creating user name:	WinNT
#	Creation time:	15. 06. 2019 20:57

#	Modifying user name:	WinNT
#	Modification time:	15. 06. 2019 20:57

#	Program:	/corina/corina34_cracker 3.40 0067  02.08.2006

@<TRIPOS>MOLECULE
ASD05143072
 145  149    0    0    0
SMALL
NO_CHARGES


@<TRIPOS>ATOM
   1 C1             3.8343     2.4445     2.5326 C.2     
   2 C2             5.0995     1.7323     2.9364 C.3     
   3 N3             3.9022     3.5905     1.8265 N.am    
   4 O4             2.7550     1.9839     2.8387 O.2     
   5 C5             2.6723     4.2830     1.4340 C.3     
   6 C6             1.8241     3.3588     0.5580 C.3     
   7 C7             1.8930     4.6608     2.6672 C.2     
   8 C8             2.5906     3.0258    -0.7236 C.3     
   9 C9             1.7424     2.1016    -1.5996 C.3     
  10 N10            2.4763     1.7827    -2.8268 N.pl3   
  11 C11            1.9097     0.9619    -3.7731 C.2     
  12 N12            0.6544     0.4403    -3.5677 N.pl3   
  13 N13            2.5627     0.6782    -4.8649 N.2     
  14 O14            2.0684     4.0566     3.7041 O.2     
  15 N15            1.0011     5.6700     2.6179 N.am    
  16 C16            0.1671     5.9655     3.7809 C.3     
  17 C17            0.8872     7.0015     4.6516 C.3     
  18 C18            1.0339     6.4703     6.0769 C.3     
  19 C19            1.8261     7.4502     6.9010 C.2     
  20 N20            1.3955     7.7797     8.1534 N.am    
  21 C21            2.2215     8.7791     8.8680 C.3     
  22 C22            1.3703     9.4374     9.9570 C.3     
  23 C23            0.8810    10.8049     9.4710 C.3     
  24 C24           -0.2043    11.3279    10.4181 C.3     
  25 N25           -1.0218    12.3318     9.7035 N.am    
  26 C26            0.4488    11.9733    11.6160 C.2     
  27 N27            0.9151    11.2085    12.6230 N.am    
  28 O28            0.5540    13.1803    11.6724 O.2     
  29 C29           -2.3641    12.1302     9.6510 C.2     
  30 O30           -2.8446    11.0909    10.0552 O.2     
  31 C31           -3.2564    13.2125     9.1064 C.3     
  32 N32           -4.4295    12.6211     8.4249 N.am    
  33 C33           -3.7372    14.1031    10.2556 C.3     
  34 C34           -4.2577    12.2996     7.1068 C.2     
  35 O35           -3.1507    12.3420     6.6086 O.2     
  36 C36           -5.4575    11.9300     6.2782 C.3     
  37 N37           -5.0349    11.3420     4.9875 N.am    
  38 C38           -6.3398    10.9327     7.0279 C.3     
  39 C39           -4.1493    10.3206     5.0384 C.2     
  40 O40           -3.7797     9.8641     6.1008 O.2     
  41 C41           -3.5702     9.7176     3.7767 C.3     
  42 C42           -4.5295    15.2577     9.6987 C.2     
  43 C43           -5.9554    15.2544     9.3628 C.ar    
  44 C44           -6.2443    16.5443     8.8816 C.ar    
  45 N45           -5.0729    17.2666     8.9271 N.pl3   
  46 C46           -4.0640    16.4859     9.4218 C.2     
  47 C47           -6.9664    14.2938     9.4314 C.ar    
  48 C48           -8.2329    14.6123     9.0302 C.ar    
  49 C49           -8.5231    15.8837     8.5541 C.ar    
  50 C50           -7.5411    16.8468     8.4787 C.ar    
  51 N51           -4.0524     8.3301     3.6685 N.am    
  52 C52           -2.0495     9.7889     3.9010 C.3     
  53 C53           -1.6088    11.2293     3.8555 C.ar    
  54 C54           -1.3060    11.8963     5.0280 C.ar    
  55 C55           -0.9013    13.2170     4.9875 C.ar    
  56 C56           -0.7991    13.8723     3.7721 C.ar    
  57 C57           -1.1026    13.2033     2.5985 C.ar    
  58 C58           -1.5021    11.8810     2.6410 C.ar    
  59 C59           -1.1813     6.4956     3.3915 C.2     
  60 O60           -1.9648     6.7593     4.2986 O.2     
  61 C61           -7.6120    10.6692     6.2198 C.3     
  62 C62           -8.4954     9.6706     6.9704 C.3     
  63 N63           -9.7135     9.4183     6.1966 N.pl3   
  64 C64          -10.6642     8.5482     6.6754 C.2     
  65 N65          -10.4717     7.9148     7.8803 N.pl3   
  66 N66          -11.7479     8.3238     5.9869 N.2     
  67 N67           -1.5976     6.6705     2.1246 N.am    
  68 C68           -2.6209     7.6303     1.6884 C.3     
  69 C69           -3.8135     7.5524     2.5903 C.2     
  70 O70           -4.6609     6.7022     2.3231 O.2     
  71 O71            2.8418     7.9415     6.4540 O.2     
  72 C72           -1.1653     5.9067     0.9548 C.3     
  73 C73           -2.2974     5.9732    -0.0783 C.3     
  74 C74           -3.0208     7.2906     0.2440 C.3     
  75 O75           -1.7631     6.0032    -1.4025 O.3     
  76 F76           -0.4040    15.1636     3.7314 F       
  77 H77            5.9624     2.2891     2.5711 H       
  78 H78            5.1459     1.6621     4.0231 H       
  79 H79            5.1053     0.7304     2.5070 H       
  80 H80            4.7653     3.9569     1.5783 H       
  81 H81            2.9251     5.1833     0.8739 H       
  82 H82            1.6089     2.4391     1.1020 H       
  83 H83            0.8889     3.8573     0.3029 H       
  84 H84            2.8057     3.9455    -1.2677 H       
  85 H85            3.5257     2.5273    -0.4686 H       
  86 H86            1.5272     1.1819    -1.0556 H       
  87 H87            0.8072     2.6001    -1.8547 H       
  88 H88            3.3620     2.1507    -2.9717 H       
  89 H89            0.1684     0.6514    -2.7552 H       
  90 H90            0.2546    -0.1388    -4.2353 H       
  91 H91            2.1630     0.0991    -5.5325 H       
  92 H92            0.9128     6.2003     1.8105 H       
  93 H93            0.0351     5.0492     4.3666 H       
  94 H94            1.8752     7.1970     4.2333 H       
  95 H95            0.3103     7.9250     4.6642 H       
  96 H96            0.0474     6.3372     6.5192 H       
  97 H97            1.5550     5.5128     6.0573 H       
  98 H98            0.6044     7.3828     8.5509 H       
  99 H99            3.0790     8.2827     9.3247 H       
 100 H100           2.5705     9.5365     8.1665 H       
 101 H101           0.5128     8.8037    10.1825 H       
 102 H102           1.9727     9.5646    10.8576 H       
 103 H103           1.7167    11.5051     9.4582 H       
 104 H104           0.4725    10.7102     8.4659 H       
 105 H105          -0.8291    10.5011    10.7497 H       
 106 H106          -0.6105    13.1082     9.2865 H       
 107 H107           0.8309    10.2432    12.5779 H       
 108 H108           1.3348    11.6233    13.3928 H       
 109 H109          -2.6945    13.8190     8.3945 H       
 110 H110          -5.2725    12.4879     8.8901 H       
 111 H111          -4.3673    13.5205    10.9276 H       
 112 H112          -2.8761    14.4845    10.8044 H       
 113 H113          -6.0407    12.8349     6.0781 H       
 114 H114          -5.3850    11.6773     4.1428 H       
 115 H115          -5.7962     9.9979     7.1647 H       
 116 H116          -6.6065    11.3437     8.0016 H       
 117 H117          -3.9006    10.3024     2.9198 H       
 118 H118          -4.9780    18.1922     8.6529 H       
 119 H119          -3.0426    16.8078     9.5615 H       
 120 H120          -6.7479    13.3025     9.8000 H       
 121 H121          -9.0146    13.8689     9.0834 H       
 122 H122          -9.5290    16.1203     8.2402 H       
 123 H123          -7.7769    17.8331     8.1072 H       
 124 H124          -4.5776     7.9475     4.4208 H       
 125 H125          -1.7411     9.3443     4.8471 H       
 126 H126          -1.5916     9.2427     3.0764 H       
 127 H127          -1.3861    11.3851     5.9760 H       
 128 H128          -0.6652    13.7380     5.9036 H       
 129 H129          -1.0233    13.7134     1.6499 H       
 130 H130          -1.7389    11.3589     1.7257 H       
 131 H131          -8.1557    11.6040     6.0830 H       
 132 H132          -7.3453    10.2581     5.2461 H       
 133 H133          -7.9517     8.7358     7.1072 H       
 134 H134          -8.7620    10.0817     7.9440 H       
 135 H135          -9.8493     9.8652     5.3464 H       
 136 H136          -9.6652     8.0819     8.3927 H       
 137 H137         -11.1425     7.3009     8.2182 H       
 138 H138         -12.4187     7.7099     6.3247 H       
 139 H139          -2.1857     8.6295     1.6765 H       
 140 H140          -0.2606     6.3376     0.5348 H       
 141 H141          -0.9983     4.8679     1.2379 H       
 142 H142          -2.9699     5.1263     0.0461 H       
 143 H143          -4.0981     7.1680     0.1570 H       
 144 H144          -2.6790     8.0792    -0.4323 H       
 145 H145          -1.2463     5.2199    -1.6359 H       
@<TRIPOS>BOND
   1    1    2 1
   2    1    3 am
   3    1    4 2
   4    2   77 1
   5    2   78 1
   6    2   79 1
   7    3    5 1
   8    3   80 1
   9    5    6 1
  10    5    7 1
  11    5   81 1
  12    6    8 1
  13    6   82 1
  14    6   83 1
  15    7   14 2
  16    7   15 am
  17    8    9 1
  18    8   84 1
  19    8   85 1
  20    9   10 1
  21    9   86 1
  22    9   87 1
  23   10   11 1
  24   10   88 1
  25   11   12 1
  26   11   13 2
  27   12   89 1
  28   12   90 1
  29   13   91 1
  30   15   16 1
  31   15   92 1
  32   16   17 1
  33   16   59 1
  34   16   93 1
  35   17   18 1
  36   17   94 1
  37   17   95 1
  38   18   19 1
  39   18   96 1
  40   18   97 1
  41   19   20 am
  42   19   71 2
  43   20   21 1
  44   20   98 1
  45   21   22 1
  46   21   99 1
  47   21  100 1
  48   22   23 1
  49   22  101 1
  50   22  102 1
  51   23   24 1
  52   23  103 1
  53   23  104 1
  54   24   25 1
  55   24   26 1
  56   24  105 1
  57   25   29 am
  58   25  106 1
  59   26   27 am
  60   26   28 2
  61   27  107 1
  62   27  108 1
  63   29   30 2
  64   29   31 1
  65   31   32 1
  66   31   33 1
  67   31  109 1
  68   32   34 am
  69   32  110 1
  70   33   42 1
  71   33  111 1
  72   33  112 1
  73   34   35 2
  74   34   36 1
  75   36   37 1
  76   36   38 1
  77   36  113 1
  78   37   39 am
  79   37  114 1
  80   38   61 1
  81   38  115 1
  82   38  116 1
  83   39   40 2
  84   39   41 1
  85   41   51 1
  86   41   52 1
  87   41  117 1
  88   42   43 1
  89   42   46 2
  90   43   44 ar
  91   43   47 ar
  92   44   45 1
  93   44   50 ar
  94   45   46 1
  95   45  118 1
  96   46  119 1
  97   47   48 ar
  98   47  120 1
  99   48   49 ar
 100   48  121 1
 101   49   50 ar
 102   49  122 1
 103   50  123 1
 104   51   69 am
 105   51  124 1
 106   52   53 1
 107   52  125 1
 108   52  126 1
 109   53   54 ar
 110   53   58 ar
 111   54   55 ar
 112   54  127 1
 113   55   56 ar
 114   55  128 1
 115   56   57 ar
 116   56   76 1
 117   57   58 ar
 118   57  129 1
 119   58  130 1
 120   59   60 2
 121   59   67 am
 122   61   62 1
 123   61  131 1
 124   61  132 1
 125   62   63 1
 126   62  133 1
 127   62  134 1
 128   63   64 1
 129   63  135 1
 130   64   65 1
 131   64   66 2
 132   65  136 1
 133   65  137 1
 134   66  138 1
 135   67   68 1
 136   67   72 1
 137   68   69 1
 138   68   74 1
 139   68  139 1
 140   69   70 2
 141   72   73 1
 142   72  140 1
 143   72  141 1
 144   73   74 1
 145   73   75 1
 146   73  142 1
 147   74  143 1
 148   74  144 1
 149   75  145 1

#	End of record

