#	Name: ASD01810757
#	Creating user name:	WinNT
#	Creation time:	15. 06. 2019 19:25

#	Modifying user name:	WinNT
#	Modification time:	15. 06. 2019 19:25

#	Program:	/corina/corina34_cracker 3.40 0067  02.08.2006

@<TRIPOS>MOLECULE
ASD01810757
  62   65    0    0    0
SMALL
NO_CHARGES


@<TRIPOS>ATOM
   1 C1            -7.3570     2.2253    -3.9970 C.1     
   2 C2            -6.3760     3.0160    -3.3165 C.ar    
   3 C3            -5.2071     2.4223    -2.8358 C.ar    
   4 C4            -4.2663     3.1899    -2.1811 C.ar    
   5 C5            -4.4790     4.5450    -1.9999 C.ar    
   6 C6            -5.6352     5.1397    -2.4732 C.ar    
   7 C7            -6.5813     4.3852    -3.1356 C.ar    
   8 N8            -8.1352     1.5981    -4.5369 N.1     
   9 N9            -2.4213     7.7924    -0.2279 N.am    
  10 C10           -1.8686     7.3012    -1.4975 C.3     
  11 C11           -2.9423     6.4792    -2.2174 C.3     
  12 C12           -3.4469     5.3770    -1.2832 C.3     
  13 C13           -4.0755     6.0086    -0.0391 C.3     
  14 C14           -3.0147     6.8253     0.7055 C.3     
  15 C15           -2.3796     9.1046     0.0772 C.2     
  16 C16           -3.0220     9.5966     1.3148 C.ar    
  17 C17           -3.9802    10.6109     1.2505 C.ar    
  18 C18           -4.5807    11.0711     2.4051 C.ar    
  19 C19           -4.2391    10.5329     3.6303 C.ar    
  20 C20           -3.2833     9.5185     3.7086 C.ar    
  21 C21           -2.6772     9.0456     2.5471 C.ar    
  22 O22           -1.8138     9.8834    -0.6649 O.2     
  23 C23           -4.8992    11.0424     4.8856 C.3     
  24 C24           -4.3588    11.2043    -0.0820 C.3     
  25 N25           -2.8663     8.5826     7.1167 N.2     
  26 N26           -3.4107     9.2889     6.1909 N.2     
  27 C27           -2.9183     8.9436     5.0222 C.2     
  28 N28           -2.0040     7.9513     5.2509 N.pl3   
  29 C29           -2.0021     7.7524     6.5971 C.2     
  30 C30           -1.1582     6.7566     7.3502 C.3     
  31 C31           -0.3611     7.4818     8.4364 C.3     
  32 O32            0.4392     6.5375     9.1505 O.3     
  33 C33            1.2276     7.1147    10.1932 C.3     
  34 H34           -5.0402     1.3645    -2.9760 H       
  35 H35           -3.3618     2.7320    -1.8089 H       
  36 H36           -5.7951     6.1979    -2.3280 H       
  37 H37           -7.4811     4.8516    -3.5088 H       
  38 H38           -1.5769     8.1467    -2.1205 H       
  39 H39           -0.9997     6.6737    -1.2994 H       
  40 H40           -3.7723     7.1287    -2.4954 H       
  41 H41           -2.5158     6.0292    -3.1139 H       
  42 H42           -2.6119     4.7426    -0.9857 H       
  43 H43           -4.8949     6.6626    -0.3375 H       
  44 H44           -4.4556     5.2237     0.6149 H       
  45 H45           -2.2392     6.1590     1.0833 H       
  46 H46           -3.4792     7.3568     1.5361 H       
  47 H47           -5.3208    11.8558     2.3501 H       
  48 H48           -1.9399     8.2583     2.6020 H       
  49 H49           -5.7988    10.4601     5.0850 H       
  50 H50           -4.2097    10.9444     5.7241 H       
  51 H51           -5.1666    12.0910     4.7556 H       
  52 H52           -5.1275    10.5884    -0.5488 H       
  53 H53           -4.7421    12.2139     0.0656 H       
  54 H54           -3.4806    11.2397    -0.7266 H       
  55 H55           -1.4680     7.4858     4.5899 H       
  56 H56           -1.8033     6.0087     7.8112 H       
  57 H57           -0.4705     6.2677     6.6602 H       
  58 H58            0.2841     8.2297     7.9754 H       
  59 H59           -1.0487     7.9707     9.1264 H       
  60 H60            1.9057     7.8550     9.7687 H       
  61 H61            0.5729     7.5960    10.9197 H       
  62 H62            1.8056     6.3333    10.6867 H       
@<TRIPOS>BOND
   1    1    2 1
   2    1    8 3
   3    2    3 ar
   4    2    7 ar
   5    3    4 ar
   6    3   34 1
   7    4    5 ar
   8    4   35 1
   9    5    6 ar
  10    5   12 1
  11    6    7 ar
  12    6   36 1
  13    7   37 1
  14    9   10 1
  15    9   14 1
  16    9   15 am
  17   10   11 1
  18   10   38 1
  19   10   39 1
  20   11   12 1
  21   11   40 1
  22   11   41 1
  23   12   13 1
  24   12   42 1
  25   13   14 1
  26   13   43 1
  27   13   44 1
  28   14   45 1
  29   14   46 1
  30   15   16 1
  31   15   22 2
  32   16   17 ar
  33   16   21 ar
  34   17   18 ar
  35   17   24 1
  36   18   19 ar
  37   18   47 1
  38   19   20 ar
  39   19   23 1
  40   20   21 ar
  41   20   27 1
  42   21   48 1
  43   23   49 1
  44   23   50 1
  45   23   51 1
  46   24   52 1
  47   24   53 1
  48   24   54 1
  49   25   26 1
  50   25   29 2
  51   26   27 2
  52   27   28 1
  53   28   29 1
  54   28   55 1
  55   29   30 1
  56   30   31 1
  57   30   56 1
  58   30   57 1
  59   31   32 1
  60   31   58 1
  61   31   59 1
  62   32   33 1
  63   33   60 1
  64   33   61 1
  65   33   62 1

#	End of record

