#	Name: ASD01912702
#	Creating user name:	WinNT
#	Creation time:	15. 06. 2019 20:00

#	Modifying user name:	WinNT
#	Modification time:	15. 06. 2019 20:00

#	Program:	/corina/corina34_cracker 3.40 0067  02.08.2006

@<TRIPOS>MOLECULE
ASD01912702
  42   45    0    0    0
SMALL
NO_CHARGES


@<TRIPOS>ATOM
   1 C1            -0.0167     1.3653     0.0676 C.2     
   2 N2             0.0021    -0.0039    -0.0022 N.pl3   
   3 C3            -1.2020    -0.6902    -0.0540 C.2     
   4 C4            -2.3627    -0.0479    -0.0375 C.2     
   5 N5            -2.4358     1.3308     0.0320 N.am    
   6 C6            -1.3022     2.0649     0.0910 C.2     
   7 C7             1.3012     1.7807     0.1070 C.2     
   8 C8             2.0549     0.6091     0.0575 C.2     
   9 N9             1.2244    -0.4046    -0.0059 N.2     
  10 O10           -1.3493     3.2802     0.1530 O.2     
  11 C11           -3.6797     1.9644     0.0464 C.ar    
  12 C12            3.5593     0.5222     0.0738 C.3     
  13 O13            4.1117     1.8380     0.1487 O.3     
  14 C14            5.4668     1.9378     0.1725 C.ar    
  15 C15            6.0705     3.1847     0.2447 C.ar    
  16 C16            7.4482     3.2835     0.2687 C.ar    
  17 C17            8.2253     2.1409     0.2209 C.ar    
  18 C18            7.6261     0.8970     0.1485 C.ar    
  19 C19            6.2487     0.7925     0.1304 C.ar    
  20 C20           -4.3333     2.1777     1.2599 C.ar    
  21 C21           -5.5694     2.8096     1.2568 C.ar    
  22 C22           -5.3995     2.9652    -1.1222 C.ar    
  23 N23           -4.2264     2.3625    -1.0907 N.ar    
  24 C24           -6.1065     3.2050     0.0400 C.ar    
  25 O25           -3.7685     1.7725     2.4284 O.3     
  26 C26           -4.5029     2.0287     3.6271 C.3     
  27 H27           -1.1946    -1.7687    -0.1091 H       
  28 H28           -3.2782    -0.6194    -0.0801 H       
  29 H29            1.6681     2.7949     0.1635 H       
  30 H30            3.8804    -0.0566     0.9398 H       
  31 H31            3.9049     0.0344    -0.8377 H       
  32 H32            5.4639     4.0776     0.2817 H       
  33 H33            7.9187     4.2541     0.3245 H       
  34 H34            9.3023     2.2202     0.2397 H       
  35 H35            8.2353     0.0060     0.1105 H       
  36 H36            5.7811    -0.1793     0.0739 H       
  37 H37           -6.1008     2.9890     2.1798 H       
  38 H38           -5.8130     3.2758    -2.0703 H       
  39 H39           -7.0661     3.6991     0.0023 H       
  40 H40           -4.6602     3.1019     3.7345 H       
  41 H41           -5.4674     1.5233     3.5773 H       
  42 H42           -3.9414     1.6562     4.4839 H       
@<TRIPOS>BOND
   1    1    2 1
   2    1    7 2
   3    1    6 1
   4    2    3 1
   5    2    9 1
   6    3    4 2
   7    3   27 1
   8    4    5 1
   9    4   28 1
  10    5    6 am
  11    5   11 1
  12    6   10 2
  13    7    8 1
  14    7   29 1
  15    8    9 2
  16    8   12 1
  17   11   20 ar
  18   11   23 ar
  19   12   13 1
  20   12   30 1
  21   12   31 1
  22   13   14 1
  23   14   15 ar
  24   14   19 ar
  25   15   16 ar
  26   15   32 1
  27   16   17 ar
  28   16   33 1
  29   17   18 ar
  30   17   34 1
  31   18   19 ar
  32   18   35 1
  33   19   36 1
  34   20   21 ar
  35   20   25 1
  36   21   24 ar
  37   21   37 1
  38   22   23 ar
  39   22   24 ar
  40   22   38 1
  41   24   39 1
  42   25   26 1
  43   26   40 1
  44   26   41 1
  45   26   42 1

#	End of record

