#	Name: ASD09116049
#	Creating user name:	WinNT
#	Creation time:	15. 06. 2019 21:20

#	Modifying user name:	WinNT
#	Modification time:	15. 06. 2019 21:20

#	Program:	/corina/corina34_cracker 3.40 0067  02.08.2006

@<TRIPOS>MOLECULE
ASD09116049
  31   32    0    0    0
SMALL
NO_CHARGES


@<TRIPOS>ATOM
   1 C1            -0.0167     1.3809     0.0096 C.ar    
   2 C2             0.0021    -0.0041     0.0020 C.ar    
   3 C3            -1.3145    -0.7348     0.0218 C.3     
   4 C4            -1.5604    -1.2807     1.4261 C.3     
   5 C5            -1.5405    -0.0976     2.4324 C.3     
   6 C6            -2.6022     0.9212     1.9790 C.3     
   7 C7            -1.9413     2.1506     1.3916 C.3     
   8 C8            -1.3620     2.0551     0.0157 C.3     
   9 C9             1.1662     2.0919     0.0022 C.ar    
  10 C10            2.3547     1.3785    -0.0171 C.ar    
  11 C11            2.3066    -0.0116    -0.0279 C.ar    
  12 N12            1.1477    -0.6543    -0.0183 N.ar    
  13 N13            3.4919    -0.7375    -0.0495 N.pl3   
  14 N14            3.4564    -2.1030    -0.0602 N.3     
  15 H15           -2.1168    -0.0481    -0.2481 H       
  16 H16           -1.2843    -1.5598    -0.6900 H       
  17 H17           -2.5316    -1.7743     1.4614 H       
  18 H18           -0.7766    -1.9929     1.6838 H       
  19 H19           -1.7791    -0.4594     3.4326 H       
  20 H20           -0.5561     0.3703     2.4331 H       
  21 H21           -3.2424     0.4623     1.2256 H       
  22 H22           -3.2090     1.2137     2.8359 H       
  23 H23           -2.6801     2.9520     1.3847 H       
  24 H24           -1.1408     2.4510     2.0676 H       
  25 H25           -1.2559     3.0597    -0.3938 H       
  26 H26           -2.0447     1.4876    -0.6168 H       
  27 H27            1.1660     3.1719     0.0107 H       
  28 H28            3.3036     1.8942    -0.0240 H       
  29 H29            4.3442    -0.2744    -0.0569 H       
  30 H30            2.9108    -2.4445    -0.8373 H       
  31 H31            4.3886    -2.4888    -0.0757 H       
@<TRIPOS>BOND
   1    1    2 ar
   2    1    9 ar
   3    1    8 1
   4    2    3 1
   5    2   12 ar
   6    3    4 1
   7    3   15 1
   8    3   16 1
   9    4    5 1
  10    4   17 1
  11    4   18 1
  12    5    6 1
  13    5   19 1
  14    5   20 1
  15    6    7 1
  16    6   21 1
  17    6   22 1
  18    7    8 1
  19    7   23 1
  20    7   24 1
  21    8   25 1
  22    8   26 1
  23    9   10 ar
  24    9   27 1
  25   10   11 ar
  26   10   28 1
  27   11   12 ar
  28   11   13 1
  29   13   14 1
  30   13   29 1
  31   14   30 1
  32   14   31 1

#	End of record

