#	Name: ASD03091253
#	Creating user name:	WinNT
#	Creation time:	15. 06. 2019 20:30

#	Modifying user name:	WinNT
#	Modification time:	15. 06. 2019 20:30

#	Program:	/corina/corina34_cracker 3.40 0067  02.08.2006

@<TRIPOS>MOLECULE
ASD03091253
  66   71    0    0    0
SMALL
NO_CHARGES


@<TRIPOS>ATOM
   1 C1             0.5504     1.1796     2.8437 C.1     
   2 C2             0.5836     1.9813     1.6576 C.ar    
   3 C3             1.6263     2.8837     1.4532 C.ar    
   4 C4             1.6509     3.6593     0.2963 C.ar    
   5 C5             0.6321     3.5283    -0.6507 C.ar    
   6 C6            -0.3977     2.6328    -0.4421 C.ar    
   7 C7            -0.4258     1.8568     0.6998 C.ar    
   8 N8             0.5241     0.5436     3.7846 N.1     
   9 N9             3.9832     4.1848     0.1491 N.2     
  10 C10            2.7524     4.6192     0.0713 C.2     
  11 N11            2.4360     5.9211    -0.2091 N.am    
  12 C12            3.4135     6.8326    -0.4223 C.2     
  13 C13            4.8057     6.3663    -0.3398 C.ar    
  14 C14            5.8814     7.2276    -0.5429 C.ar    
  15 C15            7.1723     6.7347    -0.4526 C.ar    
  16 C16            7.3955     5.3888    -0.1612 C.ar    
  17 C17            6.3513     4.5328     0.0403 C.ar    
  18 C18            5.0372     5.0033    -0.0448 C.ar    
  19 O19            3.1502     7.9943    -0.6732 O.2     
  20 C20            1.0310     6.3301    -0.2795 C.3     
  21 C21            0.5149     6.6262     1.1301 C.3     
  22 C22           -0.9062     7.2134     1.1551 C.3     
  23 C23           -1.1674     6.3239     2.3820 C.3     
  24 C24           -0.0661     5.3947     1.8447 C.3     
  25 C25            1.5177     7.4122     1.9771 C.3     
  26 O26            2.7944     6.7728     1.9194 O.3     
  27 N27            9.8894    10.0415    -0.3343 N.3     
  28 C28            8.9552     9.8373    -1.4519 C.3     
  29 C29            7.8052     8.9348    -1.0328 C.3     
  30 N30            8.2582     7.5907    -0.6552 N.3     
  31 C31            9.1130     7.6486     0.5389 C.3     
  32 C32           10.5793     7.7184     0.1392 C.3     
  33 C33           10.9885     9.0686    -0.4139 C.3     
  34 C34            9.3014    10.1205     0.9856 C.3     
  35 C35            8.6685     8.8066     1.4136 C.3     
  36 H36            2.4112     2.9813     2.1886 H       
  37 H37            0.6499     4.1294    -1.5478 H       
  38 H38           -1.1829     2.5359    -1.1773 H       
  39 H39           -1.2321     1.1552     0.8548 H       
  40 H40            5.7103     8.2698    -0.7689 H       
  41 H41            8.4080     5.0190    -0.0945 H       
  42 H42            6.5400     3.4934     0.2648 H       
  43 H43            0.9438     7.2261    -0.8940 H       
  44 H44            0.4406     5.5275    -0.7214 H       
  45 H45           -0.9339     8.2805     1.3755 H       
  46 H46           -1.5052     6.9442     0.2851 H       
  47 H47           -0.9132     6.8003     3.3288 H       
  48 H48           -2.1579     5.8688     2.3885 H       
  49 H49           -0.4354     4.6283     1.1633 H       
  50 H50            0.5844     4.9936     2.6220 H       
  51 H51            1.6024     8.4279     1.5907 H       
  52 H52            1.1738     7.4443     3.0109 H       
  53 H53            3.4809     7.2179     2.4348 H       
  54 H54            8.5579    10.8017    -1.7685 H       
  55 H55            9.4870     9.3778    -2.2851 H       
  56 H56            7.2935     9.3866    -0.1831 H       
  57 H57            7.1024     8.8505    -1.8617 H       
  58 H58            8.9605     6.7313     1.1075 H       
  59 H59           11.1909     7.4994     1.0144 H       
  60 H60           10.7718     6.9579    -0.6175 H       
  61 H61           11.2850     8.9512    -1.4562 H       
  62 H62           11.8381     9.4441     0.1564 H       
  63 H63           10.0770    10.3893     1.7027 H       
  64 H64            8.5372    10.8977     0.9862 H       
  65 H65            7.5841     8.8997     1.3540 H       
  66 H66            8.9483     8.5984     2.4463 H       
@<TRIPOS>BOND
   1    1    2 1
   2    1    8 3
   3    2    3 ar
   4    2    7 ar
   5    3    4 ar
   6    3   36 1
   7    4    5 ar
   8    4   10 1
   9    5    6 ar
  10    5   37 1
  11    6    7 ar
  12    6   38 1
  13    7   39 1
  14    9   10 2
  15    9   18 1
  16   10   11 1
  17   11   12 am
  18   11   20 1
  19   12   13 1
  20   12   19 2
  21   13   14 ar
  22   13   18 ar
  23   14   15 ar
  24   14   40 1
  25   15   16 ar
  26   15   30 1
  27   16   17 ar
  28   16   41 1
  29   17   18 ar
  30   17   42 1
  31   20   21 1
  32   20   43 1
  33   20   44 1
  34   21   22 1
  35   21   24 1
  36   21   25 1
  37   22   23 1
  38   22   45 1
  39   22   46 1
  40   23   24 1
  41   23   47 1
  42   23   48 1
  43   24   49 1
  44   24   50 1
  45   25   26 1
  46   25   51 1
  47   25   52 1
  48   26   53 1
  49   27   28 1
  50   27   33 1
  51   27   34 1
  52   28   29 1
  53   28   54 1
  54   28   55 1
  55   29   30 1
  56   29   56 1
  57   29   57 1
  58   30   31 1
  59   31   32 1
  60   31   35 1
  61   31   58 1
  62   32   33 1
  63   32   59 1
  64   32   60 1
  65   33   61 1
  66   33   62 1
  67   34   35 1
  68   34   63 1
  69   34   64 1
  70   35   65 1
  71   35   66 1

#	End of record

