#	Name: ASD02039023
#	Creating user name:	WinNT
#	Creation time:	15. 06. 2019 20:17

#	Modifying user name:	WinNT
#	Modification time:	15. 06. 2019 20:17

#	Program:	/corina/corina34_cracker 3.40 0067  02.08.2006

@<TRIPOS>MOLECULE
ASD02039023
  42   45    0    0    0
SMALL
NO_CHARGES


@<TRIPOS>ATOM
   1 N1             0.0234     1.2846    -0.3605 N.2     
   2 N2             0.0398    -0.0019    -0.3617 N.2     
   3 C3             1.2243     1.7332    -0.0875 C.2     
   4 O4             2.0203     0.6621     0.0884 O.3     
   5 C5             1.2410    -0.4221    -0.0918 C.2     
   6 N6             1.6033     3.0608     0.0028 N.pl3   
   7 C7             0.6407     4.0701    -0.0881 C.ar    
   8 C8             1.6809    -1.8603     0.0027 C.3     
   9 O9             2.1173    -2.3103    -1.2815 O.3     
  10 C10            2.5501    -3.5961    -1.3708 C.ar    
  11 C11            2.9850    -4.0919    -2.5837 C.ar    
  12 C12            2.5578    -4.4048    -0.2371 C.ar    
  13 C13            2.9928    -5.7100    -0.3087 C.ar    
  14 C14            3.4298    -6.2310    -1.5218 C.ar    
  15 C15            3.4289    -5.4153    -2.6691 C.ar    
  16 C16           -0.6616     3.8292     0.3295 C.ar    
  17 C17            0.9863     5.3184    -0.5911 C.ar    
  18 C18            0.0333     6.3138    -0.6798 C.ar    
  19 C19           -1.2642     6.0700    -0.2683 C.ar    
  20 C20           -1.6111     4.8297     0.2382 C.ar    
  21 N21            3.8690    -7.5362    -1.6143 N.am    
  22 C22            4.2915    -8.0423    -2.7860 C.2     
  23 C23            4.3054    -7.2677    -3.9655 C.2     
  24 O24            4.6725    -9.1993    -2.8305 O.2     
  25 C25            3.8911    -5.9769    -3.9399 C.2     
  26 Cl26          -3.2412     4.5283     0.7536 Cl      
  27 C27           -2.3013     7.1591    -0.3662 C.3     
  28 F28           -1.7167     8.3131    -0.8988 F       
  29 F29           -3.3433     6.7372    -1.1989 F       
  30 F30           -2.8065     7.4378     0.9083 F       
  31 H31            2.5371     3.2910     0.1291 H       
  32 H32            2.5018    -1.9432     0.7150 H       
  33 H33            0.8453    -2.4746     0.3382 H       
  34 H34            2.9820    -3.4619    -3.4609 H       
  35 H35            2.2198    -4.0049     0.7075 H       
  36 H36            2.9949    -6.3281     0.5769 H       
  37 H37           -0.9324     2.8613     0.7248 H       
  38 H38            1.9995     5.5101    -0.9121 H       
  39 H39            0.3018     7.2841    -1.0708 H       
  40 H40            3.8732    -8.0964    -0.8224 H       
  41 H41            4.6515    -7.7034    -4.8912 H       
  42 H42            3.8982    -5.3772    -4.8380 H       
@<TRIPOS>BOND
   1    1    2 1
   2    1    3 2
   3    2    5 2
   4    3    4 1
   5    3    6 1
   6    4    5 1
   7    5    8 1
   8    6    7 1
   9    6   31 1
  10    7   16 ar
  11    7   17 ar
  12    8    9 1
  13    8   32 1
  14    8   33 1
  15    9   10 1
  16   10   11 ar
  17   10   12 ar
  18   11   15 ar
  19   11   34 1
  20   12   13 ar
  21   12   35 1
  22   13   14 ar
  23   13   36 1
  24   14   15 ar
  25   14   21 1
  26   15   25 1
  27   16   20 ar
  28   16   37 1
  29   17   18 ar
  30   17   38 1
  31   18   19 ar
  32   18   39 1
  33   19   20 ar
  34   19   27 1
  35   20   26 1
  36   21   22 am
  37   21   40 1
  38   22   23 1
  39   22   24 2
  40   23   25 2
  41   23   41 1
  42   25   42 1
  43   27   28 1
  44   27   29 1
  45   27   30 1

#	End of record

