#	Name: ASD02560147
#	Creating user name:	WinNT
#	Creation time:	15. 06. 2019 20:24

#	Modifying user name:	WinNT
#	Modification time:	15. 06. 2019 20:24

#	Program:	/corina/corina34_cracker 3.40 0067  02.08.2006

@<TRIPOS>MOLECULE
ASD02560147
  58   61    0    0    0
SMALL
NO_CHARGES


@<TRIPOS>ATOM
   1 N1            -0.0980     1.9443    -0.2421 N.2     
   2 N2            -0.4849     0.7737    -0.3128 N.2     
   3 C3             1.3684     2.0215    -0.2641 C.3     
   4 N4             1.8246     0.6408     0.0359 N.3     
   5 C5             0.6486    -0.1564    -0.3957 C.3     
   6 S6             0.3946    -1.5630     0.7212 S.3     
   7 C7             0.1303    -0.7651     2.3287 C.3     
   8 C8            -0.0993    -1.8191     3.3810 C.2     
   9 O9            -0.0860    -2.9931     3.0765 O.2     
  10 N10           -0.3196    -1.4573     4.6604 N.am    
  11 C11            2.9521     0.3135    -0.7141 C.ar    
  12 C12           -0.6382    -2.4279     5.6174 C.ar    
  13 C13           -1.5086    -2.1219     6.6569 C.ar    
  14 C14           -1.8212    -3.0828     7.5994 C.ar    
  15 C15           -1.2687    -4.3475     7.5087 C.ar    
  16 C16           -0.4026    -4.6545     6.4758 C.ar    
  17 C17           -0.0900    -3.7000     5.5271 C.ar    
  18 Cl18          -2.2018    -0.5344     6.7713 Cl      
  19 S19           -1.6692    -5.5700     8.7128 S.o2    
  20 O20           -0.5998    -6.5058     8.7055 O.2     
  21 O21           -2.0787    -4.8669     9.8777 O.2     
  22 C22            4.1074     1.1220    -0.6529 C.ar    
  23 C23            2.9516    -0.8064    -1.5185 C.ar    
  24 C24            4.0727    -1.1423    -2.2710 C.ar    
  25 C25            5.1989    -0.3776    -2.2346 C.ar    
  26 C26            5.2424     0.7694    -1.4240 C.ar    
  27 C27            6.3912     1.5776    -1.3671 C.ar    
  28 C28            6.3991     2.6819    -0.5716 C.ar    
  29 C29            5.2836     3.0253     0.1897 C.ar    
  30 C30            4.1527     2.2678     0.1564 C.ar    
  31 N31           -3.0040    -6.3811     8.1626 N.am    
  32 C32            1.8584     2.4559    -1.6469 C.3     
  33 F33            0.9887     3.4199    -2.1682 F       
  34 F34            3.1435     2.9979    -1.5372 F       
  35 C35            1.7231    -1.6768    -1.5829 C.3     
  36 C36            6.3997    -0.7640    -3.0591 C.3     
  37 H37            1.7236     2.7130     0.5000 H       
  38 H38            0.7807    -0.5034    -1.4205 H       
  39 H39            1.0089    -0.1756     2.5905 H       
  40 H40           -0.7411    -0.1128     2.2716 H       
  41 H41           -0.2573    -0.5242     4.9182 H       
  42 H42           -2.4971    -2.8460     8.4078 H       
  43 H43            0.0272    -5.6430     6.4082 H       
  44 H44            0.5867    -3.9409     4.7206 H       
  45 H45            4.0495    -2.0242    -2.8940 H       
  46 H46            7.2632     1.3234    -1.9515 H       
  47 H47            7.2831     3.3009    -0.5294 H       
  48 H48            5.3156     3.9068     0.8129 H       
  49 H49            3.2955     2.5459     0.7517 H       
  50 H50           -3.4049    -6.1360     7.3141 H       
  51 H51           -3.3850    -7.1014     8.6890 H       
  52 H52            1.8838     1.5922    -2.3112 H       
  53 H53            1.0609    -1.3130    -2.3686 H       
  54 H54            2.0163    -2.7036    -1.8014 H       
  55 H55            1.2034    -1.6432    -0.6254 H       
  56 H56            6.3326    -0.2948    -4.0407 H       
  57 H57            7.3077    -0.4293    -2.5577 H       
  58 H58            6.4271    -1.8474    -3.1754 H       
@<TRIPOS>BOND
   1    1    2 2
   2    1    3 1
   3    2    5 1
   4    3    4 1
   5    3   32 1
   6    3   37 1
   7    4    5 1
   8    4   11 1
   9    5    6 1
  10    5   38 1
  11    6    7 1
  12    7    8 1
  13    7   39 1
  14    7   40 1
  15    8    9 2
  16    8   10 am
  17   10   12 1
  18   10   41 1
  19   11   22 ar
  20   11   23 ar
  21   12   13 ar
  22   12   17 ar
  23   13   14 ar
  24   13   18 1
  25   14   15 ar
  26   14   42 1
  27   15   16 ar
  28   15   19 1
  29   16   17 ar
  30   16   43 1
  31   17   44 1
  32   19   20 2
  33   19   21 2
  34   19   31 am
  35   22   26 ar
  36   22   30 ar
  37   23   24 ar
  38   23   35 1
  39   24   25 ar
  40   24   45 1
  41   25   26 ar
  42   25   36 1
  43   26   27 ar
  44   27   28 ar
  45   27   46 1
  46   28   29 ar
  47   28   47 1
  48   29   30 ar
  49   29   48 1
  50   30   49 1
  51   31   50 1
  52   31   51 1
  53   32   33 1
  54   32   34 1
  55   32   52 1
  56   35   53 1
  57   35   54 1
  58   35   55 1
  59   36   56 1
  60   36   57 1
  61   36   58 1

#	End of record

