#	Name: ASD01720110
#	Creating user name:	WinNT
#	Creation time:	15. 06. 2019 19:23

#	Modifying user name:	WinNT
#	Modification time:	15. 06. 2019 19:23

#	Program:	/corina/corina34_cracker 3.40 0067  02.08.2006

@<TRIPOS>MOLECULE
ASD01720110
  63   66    0    0    0
SMALL
NO_CHARGES


@<TRIPOS>ATOM
   1 C1             0.0572     1.3700    -0.4380 C.ar    
   2 C2             0.0656     0.0014    -0.4244 C.ar    
   3 C3             1.1988    -0.6743     0.0246 C.ar    
   4 N4             2.2697    -0.0121     0.4396 N.ar    
   5 C5             2.3074     1.3092     0.4444 C.ar    
   6 C6             1.2003     2.0519     0.0047 C.ar    
   7 N7             1.2062    -2.0586     0.0379 N.3     
   8 O8             3.4196     1.9497     0.8763 O.3     
   9 C9             4.5101     1.1348     1.3106 C.3     
  10 C10            5.6681     2.0288     1.7585 C.3     
  11 C11            6.8358     1.1563     2.2235 C.3     
  12 C12            7.3778     0.3555     1.0378 C.3     
  13 C13            7.9449     2.0467     2.7873 C.3     
  14 C14            1.2383     3.5236     0.0086 C.2     
  15 O15            1.7126     4.1172     0.9583 O.2     
  16 C16            2.5003    -2.5793     0.5487 C.3     
  17 C17            2.5755    -4.0260     0.0151 C.3     
  18 C18            1.6619    -4.0427    -1.2278 C.3     
  19 C19            1.1116    -2.6048    -1.3405 C.3     
  20 C20            3.1703    -4.2515    -1.3764 C.3     
  21 C21            3.6496    -5.6407    -1.7101 C.2     
  22 O22            3.5563    -6.5248    -0.8918 O.2     
  23 O23            4.1803    -5.8960    -2.9163 O.3     
  24 N24            0.7476     4.2131    -1.0404 N.am    
  25 C25            0.6755     5.6753    -0.9866 C.3     
  26 C26            1.9560     6.2615    -1.5231 C.ar    
  27 C27            0.2863     3.5004    -2.2343 C.3     
  28 C28            4.1891     7.0454    -1.1611 C.ar    
  29 C29            3.0146     6.5077    -0.6690 C.ar    
  30 C30            2.0739     6.5477    -2.8704 C.ar    
  31 C31            3.2485     7.0854    -3.3625 C.ar    
  32 C32            4.3049     7.3373    -2.5073 C.ar    
  33 H33           -0.8090     1.9131    -0.7861 H       
  34 H34           -0.8001    -0.5510    -0.7590 H       
  35 H35            4.1883     0.5117     2.1451 H       
  36 H36            4.8388     0.4992     0.4883 H       
  37 H37            5.9899     2.6519     0.9240 H       
  38 H38            5.3394     2.6643     2.5808 H       
  39 H39            6.4913     0.4708     2.9978 H       
  40 H40            7.7223     1.0410     0.2635 H       
  41 H41            8.2097    -0.2661     1.3691 H       
  42 H42            6.5877    -0.2788     0.6361 H       
  43 H43            7.5587     2.6172     3.6320 H       
  44 H44            8.7767     1.4251     3.1186 H       
  45 H45            8.2894     2.7322     2.0130 H       
  46 H46            3.3286    -1.9871     0.1597 H       
  47 H47            2.5081    -2.5753     1.6387 H       
  48 H48            2.5661    -4.8349     0.7456 H       
  49 H49            0.9723    -4.8641    -1.4224 H       
  50 H50            0.0736    -2.6199    -1.6730 H       
  51 H51            1.7225    -2.0165    -2.0252 H       
  52 H52            3.7494    -3.4379    -1.8131 H       
  53 H53            4.4736    -6.8020    -3.0841 H       
  54 H54           -0.1633     6.0202    -1.5912 H       
  55 H55            0.5345     5.9945     0.0460 H       
  56 H56           -0.7477     3.1856    -2.0927 H       
  57 H57            0.3499     4.1609    -3.0990 H       
  58 H58            0.9134     2.6242    -2.3994 H       
  59 H59            5.0161     7.2381    -0.4937 H       
  60 H60            2.9238     6.2804     0.3829 H       
  61 H61            1.2486     6.3508    -3.5385 H       
  62 H62            3.3409     7.3083    -4.4152 H       
  63 H63            5.2226     7.7574    -2.8918 H       
@<TRIPOS>BOND
   1    1    2 ar
   2    1    6 ar
   3    1   33 1
   4    2    3 ar
   5    2   34 1
   6    3    4 ar
   7    3    7 1
   8    4    5 ar
   9    5    6 ar
  10    5    8 1
  11    6   14 1
  12    7   16 1
  13    7   19 1
  14    8    9 1
  15    9   10 1
  16    9   35 1
  17    9   36 1
  18   10   11 1
  19   10   37 1
  20   10   38 1
  21   11   12 1
  22   11   13 1
  23   11   39 1
  24   12   40 1
  25   12   41 1
  26   12   42 1
  27   13   43 1
  28   13   44 1
  29   13   45 1
  30   14   15 2
  31   14   24 am
  32   16   17 1
  33   16   46 1
  34   16   47 1
  35   17   18 1
  36   17   20 1
  37   17   48 1
  38   18   19 1
  39   18   20 1
  40   18   49 1
  41   19   50 1
  42   19   51 1
  43   20   21 1
  44   20   52 1
  45   21   22 2
  46   21   23 1
  47   23   53 1
  48   24   25 1
  49   24   27 1
  50   25   26 1
  51   25   54 1
  52   25   55 1
  53   26   30 ar
  54   26   29 ar
  55   27   56 1
  56   27   57 1
  57   27   58 1
  58   28   29 ar
  59   28   32 ar
  60   28   59 1
  61   29   60 1
  62   30   31 ar
  63   30   61 1
  64   31   32 ar
  65   31   62 1
  66   32   63 1

#	End of record

