#	Name: ASD03080001
#	Creating user name:	WinNT
#	Creation time:	15. 06. 2019 20:26

#	Modifying user name:	WinNT
#	Modification time:	15. 06. 2019 20:26

#	Program:	/corina/corina34_cracker 3.40 0067  02.08.2006

@<TRIPOS>MOLECULE
ASD03080001
  40   41    0    0    0
SMALL
NO_CHARGES


@<TRIPOS>ATOM
   1 C1             0.4306    -0.4674     0.2936 C.ar    
   2 C2             0.9611    -1.6811     0.7107 C.ar    
   3 C3             2.3180    -1.8239     0.9091 C.ar    
   4 C4             3.1655    -0.7433     0.6893 C.ar    
   5 C5             2.6227     0.4839     0.2663 C.ar    
   6 C6             1.2458     0.6068     0.0721 C.ar    
   7 N7             4.5274    -0.5702     0.7950 N.pl3   
   8 C8             4.8608     0.7132     0.4562 C.2     
   9 C9             3.7564     1.4013     0.1270 C.2     
  10 C10            3.6944     2.8439    -0.3045 C.3     
  11 C11            3.6903     2.9194    -1.8326 C.3     
  12 N12            3.7551     4.3253    -2.2536 N.3     
  13 C13            3.7531     4.4369    -3.7183 C.3     
  14 Br14          -0.1889    -3.1521     1.0102 Br      
  15 C15            6.2607     1.2712     0.4531 C.3     
  16 C16            6.5566     1.8781    -0.8942 C.2     
  17 C17            6.3836     2.3462     1.5348 C.3     
  18 C18            7.2587     0.1465     0.7360 C.3     
  19 C19            6.9776     3.1159    -0.9768 C.2     
  20 H20           -0.6340    -0.3729     0.1388 H       
  21 H21            2.7213    -2.7715     1.2342 H       
  22 H22            0.8262     1.5474    -0.2529 H       
  23 H23            5.1567    -1.2557     1.0688 H       
  24 H24            2.7842     3.3006     0.0843 H       
  25 H25            4.5625     3.3768     0.0833 H       
  26 H26            4.5538     2.3825    -2.2252 H       
  27 H27            2.7759     2.4670    -2.2163 H       
  28 H28            3.0002     4.8590    -1.8493 H       
  29 H29            4.6170     3.9104    -4.1240 H       
  30 H30            2.8391     3.9950    -4.1151 H       
  31 H31            3.8016     5.4880    -4.0027 H       
  32 H32            6.4216     1.2926    -1.7916 H       
  33 H33            6.0771     1.9319     2.4953 H       
  34 H34            7.4188     2.6818     1.5976 H       
  35 H35            5.7426     3.1908     1.2822 H       
  36 H36            7.1556    -0.6300    -0.0220 H       
  37 H37            8.2726     0.5458     0.7116 H       
  38 H38            7.0588    -0.2776     1.7201 H       
  39 H39            7.1126     3.7014    -0.0794 H       
  40 H40            7.1896     3.5509    -1.9423 H       
@<TRIPOS>BOND
   1    1    2 ar
   2    1    6 ar
   3    1   20 1
   4    2    3 ar
   5    2   14 1
   6    3    4 ar
   7    3   21 1
   8    4    5 ar
   9    4    7 1
  10    5    6 ar
  11    5    9 1
  12    6   22 1
  13    7    8 1
  14    7   23 1
  15    8    9 2
  16    8   15 1
  17    9   10 1
  18   10   11 1
  19   10   24 1
  20   10   25 1
  21   11   12 1
  22   11   26 1
  23   11   27 1
  24   12   13 1
  25   12   28 1
  26   13   29 1
  27   13   30 1
  28   13   31 1
  29   15   16 1
  30   15   17 1
  31   15   18 1
  32   16   19 2
  33   16   32 1
  34   17   33 1
  35   17   34 1
  36   17   35 1
  37   18   36 1
  38   18   37 1
  39   18   38 1
  40   19   39 1
  41   19   40 1

#	End of record

