#	Name: ASD03740090
#	Creating user name:	WinNT
#	Creation time:	15. 06. 2019 20:46

#	Modifying user name:	WinNT
#	Modification time:	15. 06. 2019 20:46

#	Program:	/corina/corina34_cracker 3.40 0067  02.08.2006

@<TRIPOS>MOLECULE
ASD03740090
  43   45    0    0    0
SMALL
NO_CHARGES


@<TRIPOS>ATOM
   1 C1            -0.0168     1.3849     0.0097 C.ar    
   2 C2             0.0021    -0.0041     0.0020 C.ar    
   3 C3             1.1850    -0.6877    -0.0125 C.ar    
   4 C4             2.3894     0.0113    -0.0203 C.ar    
   5 C5             2.3718     1.4195    -0.0131 C.ar    
   6 C6             1.1486     2.0963     0.0023 C.ar    
   7 N7             3.7063    -0.3680    -0.0346 N.pl3   
   8 N8             4.5133     0.7743    -0.0364 N.2     
   9 C9             3.7704     1.8474    -0.0241 C.2     
  10 O10            4.2163     3.1315    -0.0222 O.3     
  11 C11            4.1915    -1.7503    -0.0454 C.3     
  12 C12            5.6318     3.3268    -0.0344 C.3     
  13 C13            5.9400     4.8254    -0.0302 C.3     
  14 C14            7.4556     5.0345    -0.0433 C.3     
  15 N15            7.7515     6.4734    -0.0393 N.3     
  16 C16            9.1879     6.7168     0.1875 C.3     
  17 C17            7.3652     7.0973    -1.3228 C.3     
  18 C18            8.4125     8.2158    -1.5500 C.3     
  19 C19            9.7037     7.5517    -1.0034 C.3     
  20 C20           10.6838     8.5969    -0.5365 C.2     
  21 O21           11.0283     8.6279     0.6212 O.2     
  22 O22           11.1742     9.4935    -1.4068 O.3     
  23 H23           -0.9621     1.9071     0.0170 H       
  24 H24           -0.9296    -0.5502     0.0080 H       
  25 H25            1.1859    -1.7677    -0.0176 H       
  26 H26            1.1256     3.1760     0.0077 H       
  27 H27            4.3021    -2.0885    -1.0757 H       
  28 H28            5.1565    -1.8005     0.4590 H       
  29 H29            3.4771    -2.3902     0.4724 H       
  30 H30            6.0702     2.8632     0.8494 H       
  31 H31            6.0537     2.8716    -0.9305 H       
  32 H32            5.5016     5.2889    -0.9140 H       
  33 H33            5.5182     5.2806     0.8659 H       
  34 H34            7.8940     4.5709     0.8405 H       
  35 H35            7.8774     4.5793    -0.9394 H       
  36 H36            9.3281     7.2697     1.1164 H       
  37 H37            9.7220     5.7678     0.2341 H       
  38 H38            7.4105     6.3654    -2.1293 H       
  39 H39            6.3644     7.5233    -1.2516 H       
  40 H40            8.5118     8.4482    -2.6103 H       
  41 H41            8.1605     9.1087    -0.9780 H       
  42 H42           10.1554     6.9082    -1.7583 H       
  43 H43           11.7999    10.1445    -1.0607 H       
@<TRIPOS>BOND
   1    1    2 ar
   2    1    6 ar
   3    1   23 1
   4    2    3 ar
   5    2   24 1
   6    3    4 ar
   7    3   25 1
   8    4    5 ar
   9    4    7 1
  10    5    6 ar
  11    5    9 1
  12    6   26 1
  13    7    8 1
  14    7   11 1
  15    8    9 2
  16    9   10 1
  17   10   12 1
  18   11   27 1
  19   11   28 1
  20   11   29 1
  21   12   13 1
  22   12   30 1
  23   12   31 1
  24   13   14 1
  25   13   32 1
  26   13   33 1
  27   14   15 1
  28   14   34 1
  29   14   35 1
  30   15   16 1
  31   15   17 1
  32   16   19 1
  33   16   36 1
  34   16   37 1
  35   17   18 1
  36   17   38 1
  37   17   39 1
  38   18   19 1
  39   18   40 1
  40   18   41 1
  41   19   20 1
  42   19   42 1
  43   20   21 2
  44   20   22 1
  45   22   43 1

#	End of record

