#	Name: ASD01840319
#	Creating user name:	WinNT
#	Creation time:	15. 06. 2019 19:37

#	Modifying user name:	WinNT
#	Modification time:	15. 06. 2019 19:37

#	Program:	/corina/corina34_cracker 3.40 0067  02.08.2006

@<TRIPOS>MOLECULE
ASD01840319
  54   57    0    0    0
SMALL
NO_CHARGES


@<TRIPOS>ATOM
   1 C1            -0.0173     1.4248     0.0099 C.3     
   2 O2             0.0021    -0.0041     0.0020 O.3     
   3 C3             0.6058    -0.6071    -1.0557 C.ar    
   4 C4             1.1730     0.1607    -2.0624 C.ar    
   5 C5             1.7865    -0.4547    -3.1363 C.ar    
   6 C6             1.8352    -1.8346    -3.2086 C.ar    
   7 C7             2.5046    -2.5033    -4.3815 C.3     
   8 N8             3.9227    -2.7134    -4.0797 N.am    
   9 C9             4.7256    -3.3002    -4.9894 C.2     
  10 O10            4.2740    -3.6543    -6.0579 O.2     
  11 C11            6.1843    -3.5163    -4.6790 C.3     
  12 C12            6.3175    -4.4131    -3.4451 C.3     
  13 C13            7.7996    -4.6787    -3.1711 C.3     
  14 N14            8.4057    -5.3299    -4.3394 N.3     
  15 C15            8.3319    -4.4676    -5.5257 C.3     
  16 C16            6.8658    -4.1957    -5.8701 C.3     
  17 C17            9.7083    -5.7009    -4.0782 C.ar    
  18 C18           10.6753    -4.7497    -3.7228 C.ar    
  19 C19           11.9903    -5.1698    -3.4646 C.ar    
  20 N20           12.3373    -6.4286    -3.5472 N.ar    
  21 C21           11.4611    -7.3866    -3.8817 C.ar    
  22 C22           11.8629    -8.7297    -3.9618 C.ar    
  23 C23           10.9578    -9.6889    -4.3030 C.ar    
  24 C24            9.6315    -9.3597    -4.5765 C.ar    
  25 F25            8.7571   -10.3331    -4.9128 F       
  26 C26            9.2062    -8.0641    -4.5078 C.ar    
  27 C27           10.1124    -7.0552    -4.1540 C.ar    
  28 C28           10.3258    -3.3644    -3.6247 C.1     
  29 N29           10.0486    -2.2655    -3.5468 N.1     
  30 C30            1.2710    -2.6021    -2.2063 C.ar    
  31 C31            0.6609    -1.9915    -1.1277 C.ar    
  32 H32            1.0053     1.8021     0.0021 H       
  33 H33           -0.5445     1.7859    -0.8732 H       
  34 H34           -0.5275     1.7763     0.9067 H       
  35 H35            1.1347     1.2385    -2.0068 H       
  36 H36            2.2283     0.1425    -3.9203 H       
  37 H37            2.0276    -3.4646    -4.5726 H       
  38 H38            2.4108    -1.8695    -5.2632 H       
  39 H39            4.2839    -2.4302    -3.2252 H       
  40 H40            6.6618    -2.5557    -4.4855 H       
  41 H41            5.8716    -3.9157    -2.5838 H       
  42 H42            5.8057    -5.3585    -3.6254 H       
  43 H43            8.3080    -3.7342    -2.9773 H       
  44 H44            7.8974    -5.3287    -2.3016 H       
  45 H45            8.8378    -3.5241    -5.3209 H       
  46 H46            8.8164    -4.9642    -6.3664 H       
  47 H47            6.3626    -5.1376    -6.0885 H       
  48 H48            6.8116    -3.5429    -6.7413 H       
  49 H49           12.7336    -4.4355    -3.1914 H       
  50 H50           12.8872    -9.0016    -3.7536 H       
  51 H51           11.2730   -10.7202    -4.3629 H       
  52 H52            8.1764    -7.8186    -4.7215 H       
  53 H53            1.3106    -3.6797    -2.2649 H       
  54 H54            0.2237    -2.5913    -0.3432 H       
@<TRIPOS>BOND
   1    1    2 1
   2    1   32 1
   3    1   33 1
   4    1   34 1
   5    2    3 1
   6    3   31 ar
   7    3    4 ar
   8    4    5 ar
   9    4   35 1
  10    5    6 ar
  11    5   36 1
  12    6    7 1
  13    6   30 ar
  14    7    8 1
  15    7   37 1
  16    7   38 1
  17    8    9 am
  18    8   39 1
  19    9   10 2
  20    9   11 1
  21   11   16 1
  22   11   12 1
  23   11   40 1
  24   12   13 1
  25   12   41 1
  26   12   42 1
  27   13   14 1
  28   13   43 1
  29   13   44 1
  30   14   15 1
  31   14   17 1
  32   15   16 1
  33   15   45 1
  34   15   46 1
  35   16   47 1
  36   16   48 1
  37   17   27 ar
  38   17   18 ar
  39   18   19 ar
  40   18   28 1
  41   19   20 ar
  42   19   49 1
  43   20   21 ar
  44   21   27 ar
  45   21   22 ar
  46   22   23 ar
  47   22   50 1
  48   23   24 ar
  49   23   51 1
  50   24   25 1
  51   24   26 ar
  52   26   27 ar
  53   26   52 1
  54   28   29 3
  55   30   31 ar
  56   30   53 1
  57   31   54 1

#	End of record

