#	Name: ASD08830007
#	Creating user name:	WinNT
#	Creation time:	15. 06. 2019 21:19

#	Modifying user name:	WinNT
#	Modification time:	15. 06. 2019 21:19

#	Program:	/corina/corina34_cracker 3.40 0067  02.08.2006

@<TRIPOS>MOLECULE
ASD08830007
  43   45    0    0    0
SMALL
NO_CHARGES


@<TRIPOS>ATOM
   1 C1            -0.0172     1.4144     0.0098 C.ar    
   2 C2             0.0021    -0.0041     0.0020 C.ar    
   3 C3             1.1961     2.1293     0.0021 C.ar    
   4 C4             2.3779     1.4629    -0.0133 C.ar    
   5 C5             2.4116     0.0549    -0.0212 C.ar    
   6 C6             1.2328    -0.6772    -0.0139 C.ar    
   7 C7             3.7063    -0.6449    -0.0384 C.2     
   8 C8             4.9897     0.1450    -0.0475 C.3     
   9 C9             6.1800    -0.8162    -0.0650 C.3     
  10 N10            7.4310    -0.0463    -0.0738 N.3     
  11 C11            8.5905    -0.9226     0.1478 C.3     
  12 C12            7.3937     1.0310     0.9258 C.3     
  13 C13            8.6889     1.8430     0.8417 C.3     
  14 O14            9.8060     0.9697     1.0284 O.3     
  15 C15            9.8737    -0.0910     0.0715 C.3     
  16 O16            3.7403    -1.8569    -0.0453 O.2     
  17 C17           -1.2115    -0.7178     0.0108 C.ar    
  18 C18           -2.3930    -0.0490     0.0262 C.ar    
  19 C19           -2.4249     1.3564     0.0340 C.ar    
  20 C20           -1.2485     2.0869     0.0310 C.ar    
  21 C21           -3.7253     2.0605     0.0502 C.2     
  22 N22           -4.8736     1.3548     0.0574 N.am    
  23 O23           -3.7586     3.2755     0.0570 O.2     
  24 H24            1.1859     3.2092     0.0080 H       
  25 H25            3.3038     2.0188    -0.0199 H       
  26 H26            1.2625    -1.7568    -0.0200 H       
  27 H27            5.0206     0.7778    -0.9344 H       
  28 H28            5.0391     0.7682     0.8454 H       
  29 H29            6.1490    -1.4491     0.8219 H       
  30 H30            6.1306    -1.4394    -0.9579 H       
  31 H31            8.5144    -1.3850     1.1318 H       
  32 H32            8.6128    -1.6974    -0.6185 H       
  33 H33            6.5424     1.6822     0.7274 H       
  34 H34            7.2984     0.5998     1.9223 H       
  35 H35            8.7578     2.3180    -0.1368 H       
  36 H36            8.6905     2.6072     1.6190 H       
  37 H37           10.7322    -0.7256     0.2917 H       
  38 H38            9.9771     0.3278    -0.9295 H       
  39 H39           -1.2027    -1.7978     0.0050 H       
  40 H40           -3.3197    -0.6036     0.0321 H       
  41 H41           -1.2785     3.1664     0.0374 H       
  42 H42           -4.8470     0.3852     0.0520 H       
  43 H43           -5.7265     1.8166     0.0680 H       
@<TRIPOS>BOND
   1    1    2 ar
   2    1    3 ar
   3    1   20 ar
   4    2   17 ar
   5    2    6 ar
   6    3    4 ar
   7    3   24 1
   8    4    5 ar
   9    4   25 1
  10    5    6 ar
  11    5    7 1
  12    6   26 1
  13    7    8 1
  14    7   16 2
  15    8    9 1
  16    8   27 1
  17    8   28 1
  18    9   10 1
  19    9   29 1
  20    9   30 1
  21   10   11 1
  22   10   12 1
  23   11   15 1
  24   11   31 1
  25   11   32 1
  26   12   13 1
  27   12   33 1
  28   12   34 1
  29   13   14 1
  30   13   35 1
  31   13   36 1
  32   14   15 1
  33   15   37 1
  34   15   38 1
  35   17   18 ar
  36   17   39 1
  37   18   19 ar
  38   18   40 1
  39   19   20 ar
  40   19   21 1
  41   20   41 1
  42   21   22 am
  43   21   23 2
  44   22   42 1
  45   22   43 1

#	End of record

