#	Name: ASD08070116
#	Creating user name:	WinNT
#	Creation time:	15. 06. 2019 21:14

#	Modifying user name:	WinNT
#	Modification time:	15. 06. 2019 21:14

#	Program:	/corina/corina34_cracker 3.40 0067  02.08.2006

@<TRIPOS>MOLECULE
ASD08070116
  37   38    0    0    0
SMALL
NO_CHARGES


@<TRIPOS>ATOM
   1 C1             0.1263     1.3748    -0.6179 C.ar    
   2 C2             0.1471    -0.0067    -0.6107 C.ar    
   3 C3             1.1649     2.0867    -0.0472 C.ar    
   4 C4             2.2285     1.4192     0.5324 C.ar    
   5 C5             2.2557     0.0376     0.5430 C.ar    
   6 C6             1.2125    -0.6804    -0.0296 C.ar    
   7 N7             1.2363    -2.0803    -0.0204 N.am    
   8 C8            -1.1564    -4.8695     0.1000 C.3     
   9 N9             0.0946    -4.1165    -0.0190 N.am    
  10 C10            0.0854    -2.7731     0.0890 C.2     
  11 C11           -1.0229    -6.2006    -0.6425 C.3     
  12 Cl12           3.5912    -0.7999     1.2701 Cl      
  13 O13           -0.9612    -2.1861     0.2852 O.2     
  14 C14           -1.4522    -5.1369     1.5771 C.3     
  15 C15           -2.7587    -5.9234     1.7013 C.3     
  16 C16           -2.6253    -7.2545     0.9588 C.3     
  17 C17           -2.3294    -6.9871    -0.5183 C.3     
  18 C18           -0.7271    -5.9332    -2.1196 C.3     
  19 H19           -0.7004     1.8992    -1.0739 H       
  20 H20           -0.6649    -0.5618    -1.0565 H       
  21 H21            1.1459     3.1665    -0.0543 H       
  22 H22            3.0388     1.9782     0.9768 H       
  23 H23            2.0810    -2.5515    -0.0928 H       
  24 H24           -1.9714    -4.2910    -0.3349 H       
  25 H25            0.9296    -4.5847    -0.1754 H       
  26 H26           -0.2079    -6.7791    -0.2076 H       
  27 H27           -0.6371    -5.7154     2.0120 H       
  28 H28           -1.5473    -4.1886     2.1060 H       
  29 H29           -2.9695    -6.1138     2.7536 H       
  30 H30           -3.5738    -5.3449     1.2664 H       
  31 H31           -1.8102    -7.8329     1.3937 H       
  32 H32           -3.5560    -7.8147     1.0473 H       
  33 H33           -3.1445    -6.4086    -0.9532 H       
  34 H34           -2.2344    -7.9354    -1.0472 H       
  35 H35            0.2037    -5.3729    -2.2081 H       
  36 H36           -0.6320    -6.8815    -2.6486 H       
  37 H37           -1.5421    -5.3548    -2.5545 H       
@<TRIPOS>BOND
   1    1    2 ar
   2    1    3 ar
   3    1   19 1
   4    2    6 ar
   5    2   20 1
   6    3    4 ar
   7    3   21 1
   8    4    5 ar
   9    4   22 1
  10    5    6 ar
  11    5   12 1
  12    6    7 1
  13    7   10 am
  14    7   23 1
  15    8    9 1
  16    8   11 1
  17    8   14 1
  18    8   24 1
  19    9   10 am
  20    9   25 1
  21   10   13 2
  22   11   18 1
  23   11   17 1
  24   11   26 1
  25   14   15 1
  26   14   27 1
  27   14   28 1
  28   15   16 1
  29   15   29 1
  30   15   30 1
  31   16   17 1
  32   16   31 1
  33   16   32 1
  34   17   33 1
  35   17   34 1
  36   18   35 1
  37   18   36 1
  38   18   37 1

#	End of record

