#	Name: ASD01410794
#	Creating user name:	WinNT
#	Creation time:	15. 06. 2019 19:18

#	Modifying user name:	WinNT
#	Modification time:	15. 06. 2019 19:18

#	Program:	/corina/corina34_cracker 3.40 0067  02.08.2006

@<TRIPOS>MOLECULE
ASD01410794
  30   30    0    0    0
SMALL
NO_CHARGES


@<TRIPOS>ATOM
   1 C1             0.0170     1.6684     0.7895 C.2     
   2 C2             0.0347     0.2123     1.1772 C.3     
   3 C3             1.2564     2.3327     0.3832 C.ar    
   4 C4             1.2258     3.6570    -0.0961 C.ar    
   5 C5             2.4085     4.2738    -0.4776 C.ar    
   6 C6             3.6089     3.5847    -0.3848 C.ar    
   7 C7             3.6343     2.2753     0.0893 C.ar    
   8 C8             2.4810     1.6566     0.4744 C.ar    
   9 O9             4.7648     4.1896    -0.7584 O.3     
  10 C10            5.9657     3.4245    -0.6379 C.3     
  11 C11            7.1556     4.2666    -1.1026 C.3     
  12 O12            7.3256     5.3784    -0.2211 O.3     
  13 C13            8.4167     6.2336    -0.5678 C.3     
  14 Cl14           2.3861     5.9051    -1.0708 Cl      
  15 N15            0.0208     4.3398    -0.1866 N.pl3   
  16 O16           -1.0257     2.2890     0.8094 O.2     
  17 H17            0.7005     0.0710     2.0286 H       
  18 H18           -0.9728    -0.1041     1.4474 H       
  19 H19            0.3892    -0.3834     0.3360 H       
  20 H20            4.5742     1.7477     0.1573 H       
  21 H21            2.5109     0.6427     0.8454 H       
  22 H22            6.1096     3.1357     0.4032 H       
  23 H23            5.8902     2.5300    -1.2561 H       
  24 H24            8.0582     3.6556    -1.0950 H       
  25 H25            6.9711     4.6295    -2.1137 H       
  26 H26            9.3455     5.6633    -0.5491 H       
  27 H27            8.2583     6.6373    -1.5679 H       
  28 H28            8.4786     7.0524     0.1490 H       
  29 H29           -0.8119     3.8470    -0.2553 H       
  30 H30            0.0113     5.3097    -0.1811 H       
@<TRIPOS>BOND
   1    1    2 1
   2    1    3 1
   3    1   16 2
   4    2   17 1
   5    2   18 1
   6    2   19 1
   7    3    4 ar
   8    3    8 ar
   9    4    5 ar
  10    4   15 1
  11    5    6 ar
  12    5   14 1
  13    6    7 ar
  14    6    9 1
  15    7    8 ar
  16    7   20 1
  17    8   21 1
  18    9   10 1
  19   10   11 1
  20   10   22 1
  21   10   23 1
  22   11   12 1
  23   11   24 1
  24   11   25 1
  25   12   13 1
  26   13   26 1
  27   13   27 1
  28   13   28 1
  29   15   29 1
  30   15   30 1

#	End of record

