#	Name: ASD01200351
#	Creating user name:	WinNT
#	Creation time:	15. 06. 2019 19:09

#	Modifying user name:	WinNT
#	Modification time:	15. 06. 2019 19:09

#	Program:	/corina/corina34_cracker 3.40 0067  02.08.2006

@<TRIPOS>MOLECULE
ASD01200351
  53   55    0    0    0
SMALL
NO_CHARGES


@<TRIPOS>ATOM
   1 C1            -2.2167    -1.0496    -4.1938 C.2     
   2 C2            -1.6449    -1.8075    -3.0663 C.ar    
   3 C3            -0.6979    -2.8186    -3.2950 C.ar    
   4 C4            -0.1934    -3.4960    -2.2185 C.ar    
   5 C5            -0.6304    -3.1658    -0.9364 C.ar    
   6 N6            -1.5262    -2.2064    -0.7476 N.ar    
   7 C7            -2.0329    -1.5265    -1.7548 C.ar    
   8 O8            -1.8690    -1.2980    -5.3314 O.2     
   9 O9            -3.1291    -0.0850    -3.9636 O.3     
  10 N10           -0.1225    -3.8495     0.1548 N.pl3   
  11 C11            0.9518    -4.8284    -0.0294 C.3     
  12 C12            1.7187    -4.9971     1.2838 C.3     
  13 C13            2.3806    -3.6705     1.6618 C.3     
  14 C14            3.0303    -3.7996     3.0410 C.3     
  15 C15           -0.8091    -6.6045     0.1418 C.ar    
  16 C16            0.3601    -6.1524    -0.4392 C.ar    
  17 C17            0.9835    -6.9303    -1.4044 C.ar    
  18 C18            0.4060    -8.1398    -1.7518 C.ar    
  19 C19           -0.7708    -8.5312    -1.1262 C.ar    
  20 N20           -1.3355    -7.7613    -0.2099 N.ar    
  21 N21           -1.3646    -9.7500    -1.4681 N.pl3   
  22 N22           -0.8851   -10.6652    -2.4143 N.2     
  23 C23           -1.7078   -11.6815    -2.4548 C.2     
  24 C24           -2.7392   -11.4509    -1.5374 C.2     
  25 C25           -2.5062   -10.2608    -0.9379 C.2     
  26 C26           -3.9016   -12.3695    -1.2617 C.3     
  27 F27           -3.7988   -13.5072    -2.0694 F       
  28 F28           -3.8859   -12.7503     0.0844 F       
  29 F29           -5.0993   -11.7038    -1.5440 F       
  30 C30            3.4500    -3.3205     0.6251 C.3     
  31 C31           -3.6492     0.6203    -5.1214 C.3     
  32 H32           -0.3752    -3.0564    -4.2979 H       
  33 H33            0.5362    -4.2795    -2.3607 H       
  34 H34           -2.7572    -0.7481    -1.5655 H       
  35 H35           -0.4779    -3.6804     1.0414 H       
  36 H36            1.6327    -4.4789    -0.8055 H       
  37 H37            1.0279    -5.2961     2.0721 H       
  38 H38            2.4842    -5.7634     1.1616 H       
  39 H39            1.6276    -2.8829     1.6872 H       
  40 H40            3.7834    -4.5872     3.0156 H       
  41 H41            3.5019    -2.8545     3.3103 H       
  42 H42            2.2685    -4.0490     3.7796 H       
  43 H43           -1.2958    -6.0048     0.8968 H       
  44 H44            1.8980    -6.5998    -1.8742 H       
  45 H45            0.8641    -8.7703    -2.4995 H       
  46 H46           -1.6081   -12.5504    -3.0885 H       
  47 H47           -3.1184    -9.7992    -0.1773 H       
  48 H48            4.1790    -4.1288     0.5680 H       
  49 H49            2.9807    -3.1849    -0.3494 H       
  50 H50            3.9520    -2.3984     0.9180 H       
  51 H51           -2.8296     1.1115    -5.6459 H       
  52 H52           -4.1356    -0.0892    -5.7908 H       
  53 H53           -4.3727     1.3680    -4.7965 H       
@<TRIPOS>BOND
   1    1    2 1
   2    1    8 2
   3    1    9 1
   4    2    3 ar
   5    2    7 ar
   6    3    4 ar
   7    3   32 1
   8    4    5 ar
   9    4   33 1
  10    5    6 ar
  11    5   10 1
  12    6    7 ar
  13    7   34 1
  14    9   31 1
  15   10   11 1
  16   10   35 1
  17   11   12 1
  18   11   16 1
  19   11   36 1
  20   12   13 1
  21   12   37 1
  22   12   38 1
  23   13   14 1
  24   13   30 1
  25   13   39 1
  26   14   40 1
  27   14   41 1
  28   14   42 1
  29   15   16 ar
  30   15   20 ar
  31   15   43 1
  32   16   17 ar
  33   17   18 ar
  34   17   44 1
  35   18   19 ar
  36   18   45 1
  37   19   20 ar
  38   19   21 1
  39   21   22 1
  40   21   25 1
  41   22   23 2
  42   23   24 1
  43   23   46 1
  44   24   25 2
  45   24   26 1
  46   25   47 1
  47   26   27 1
  48   26   28 1
  49   26   29 1
  50   30   48 1
  51   30   49 1
  52   30   50 1
  53   31   51 1
  54   31   52 1
  55   31   53 1

#	End of record

