#	Name: ASD00370004
#	Creating user name:	WinNT
#	Creation time:	15. 06. 2019 18:35

#	Modifying user name:	WinNT
#	Modification time:	15. 06. 2019 18:35

#	Program:	/corina/corina34_cracker 3.40 0067  02.08.2006

@<TRIPOS>MOLECULE
ASD00370004
  11   10    0    0    0
SMALL
NO_CHARGES


@<TRIPOS>ATOM
   1 O1             0.0021    -0.0041     0.0020 O.3     
   2 P2            -0.0189     1.5408     0.0105 P.3     
   3 O3             1.4916     2.0980    -0.0009 O.3     
   4 P4             2.5995     2.3026    -1.1510 P.3     
   5 O5             3.1946     0.9316    -1.5425 O.3     
   6 O6            -0.7661     2.0526    -1.2412 O.2     
   7 O7            -0.7725     2.0600     1.3351 O.3     
   8 O8             1.9423     2.9514    -2.3896 O.2     
   9 O9             3.7721     3.2597    -0.6024 O.3     
  10 H10           -1.6894     1.7618     1.4084 H       
  11 H11            4.4759     3.4269    -1.2441 H       
@<TRIPOS>BOND
   1    1    2 1
   2    2    3 1
   3    2    6 2
   4    2    7 1
   5    3    4 1
   6    4    5 1
   7    4    8 2
   8    4    9 1
   9    7   10 1
  10    9   11 1

#	End of record

