#	Name: ASD05313251
#	Creating user name:	WinNT
#	Creation time:	15. 06. 2019 20:59

#	Modifying user name:	WinNT
#	Modification time:	15. 06. 2019 20:59

#	Program:	/corina/corina34_cracker 3.40 0067  02.08.2006

@<TRIPOS>MOLECULE
ASD05313251
  33   35    0    0    0
SMALL
NO_CHARGES


@<TRIPOS>ATOM
   1 C1            -0.0737     0.8179     1.0259 C.2     
   2 C2             0.1131    -0.6201     0.5971 C.3     
   3 N3             0.9284     1.7304     1.0524 N.pl3   
   4 N4             1.4556    -0.7206    -0.0045 N.am    
   5 C5             2.5697    -0.0400     0.6729 C.3     
   6 C6             2.3162     1.4716     0.6637 C.3     
   7 N7            -1.1705     1.3887     1.4262 N.2     
   8 C8            -0.9160     2.6740     1.7230 C.2     
   9 C9             0.3945     2.9044     1.4967 C.2     
  10 C10            1.6559    -1.4160    -1.1414 C.2     
  11 O11            2.7478    -1.4060    -1.6757 O.2     
  12 C12            0.5483    -2.1908    -1.7386 C.ar    
  13 C13            0.3176    -2.1384    -3.1157 C.ar    
  14 C14           -0.7196    -2.8653    -3.6664 C.ar    
  15 C15           -1.5286    -3.6428    -2.8576 C.ar    
  16 C16           -1.3054    -3.6982    -1.4931 C.ar    
  17 C17           -0.2690    -2.9828    -0.9303 C.ar    
  18 C18           -0.9708    -2.8108    -5.1513 C.3     
  19 F19           -2.0650    -3.6224    -5.4693 F       
  20 F20           -1.2428    -1.4918    -5.5302 F       
  21 F21            0.1623    -3.2675    -5.8330 F       
  22 Cl22           1.3317    -1.1620    -4.1316 Cl      
  23 Cl23           1.2383     4.4034     1.7305 Cl      
  24 H24            0.0437    -1.2783     1.4632 H       
  25 H25           -0.6449    -0.8903    -0.1381 H       
  26 H26            2.6393    -0.3912     1.7024 H       
  27 H27            3.5010    -0.2564     0.1494 H       
  28 H28            2.4930     1.8640    -0.3378 H       
  29 H29            2.9889     1.9581     1.3700 H       
  30 H30           -1.6341     3.3961     2.0826 H       
  31 H31           -2.3386    -4.2090    -3.2931 H       
  32 H32           -1.9416    -4.3069    -0.8677 H       
  33 H33           -0.0932    -3.0315     0.1342 H       
@<TRIPOS>BOND
   1    1    2 1
   2    1    3 1
   3    1    7 2
   4    2    4 1
   5    2   24 1
   6    2   25 1
   7    3    6 1
   8    3    9 1
   9    4    5 1
  10    4   10 am
  11    5    6 1
  12    5   26 1
  13    5   27 1
  14    6   28 1
  15    6   29 1
  16    7    8 1
  17    8    9 2
  18    8   30 1
  19    9   23 1
  20   10   11 2
  21   10   12 1
  22   12   13 ar
  23   12   17 ar
  24   13   14 ar
  25   13   22 1
  26   14   15 ar
  27   14   18 1
  28   15   16 ar
  29   15   31 1
  30   16   17 ar
  31   16   32 1
  32   17   33 1
  33   18   19 1
  34   18   20 1
  35   18   21 1

#	End of record

