#	Name: ASD09610028
#	Creating user name:	WinNT
#	Creation time:	15. 06. 2019 21:22

#	Modifying user name:	WinNT
#	Modification time:	15. 06. 2019 21:22

#	Program:	/corina/corina34_cracker 3.40 0067  02.08.2006

@<TRIPOS>MOLECULE
ASD09610028
  52   54    0    0    0
SMALL
NO_CHARGES


@<TRIPOS>ATOM
   1 C1            -0.0172     1.4138     0.0098 C.2     
   2 C2             0.0504    -0.0025    -0.0085 C.2     
   3 C3             1.2541    -0.6247    -0.1331 C.2     
   4 O4             0.9841     2.0737    -0.2001 O.2     
   5 N5            -1.1910     2.0294     0.2542 N.am    
   6 C6            -2.4349     1.2572     0.4020 C.3     
   7 C7            -3.1286     1.7008     1.6950 C.3     
   8 O8            -3.2613     3.1243     1.6935 O.3     
   9 C9            -2.0171     3.8281     1.6756 C.3     
  10 C10           -1.2655     3.4930     0.3871 C.3     
  11 C11            0.8375    -4.2157    -1.1716 C.ar    
  12 C12            0.7474    -2.8366    -1.1938 C.ar    
  13 C13            1.3246    -2.1029    -0.1522 C.ar    
  14 C14            1.9713    -2.8056     0.8715 C.ar    
  15 C15            2.0141    -4.1834     0.8142 C.ar    
  16 N16            1.4568    -4.8379    -0.1864 N.ar    
  17 Cl17           0.1203    -5.1417    -2.4529 Cl      
  18 C18            2.4913     0.1758    -0.2493 C.ar    
  19 C19            2.9117     0.9757     0.8154 C.ar    
  20 C20            4.0675     1.7197     0.7004 C.ar    
  21 C21            4.8098     1.6748    -0.4667 C.ar    
  22 C22            4.3987     0.8846    -1.5257 C.ar    
  23 C23            3.2481     0.1311    -1.4221 C.ar    
  24 C24            6.0714     2.4905    -0.5849 C.3     
  25 C25            7.0599     2.0613     0.5011 C.3     
  26 C26            6.6975     2.2645    -1.9626 C.3     
  27 C27            5.7376     3.9738    -0.4135 C.3     
  28 H28           -0.8536    -0.5874     0.0764 H       
  29 H29           -3.0885     1.4477    -0.4493 H       
  30 H30           -2.2025     0.1937     0.4563 H       
  31 H31           -4.1161     1.2432     1.7539 H       
  32 H32           -2.5315     1.3918     2.5530 H       
  33 H33           -2.2049     4.9009     1.7205 H       
  34 H34           -1.4160     3.5268     2.5335 H       
  35 H35           -0.2591     3.9093     0.4317 H       
  36 H36           -1.7994     3.9124    -0.4656 H       
  37 H37            0.2395    -2.3332    -2.0032 H       
  38 H38            2.4302    -2.2769     1.6939 H       
  39 H39            2.5111    -4.7338     1.5993 H       
  40 H40            2.3331     1.0119     1.7266 H       
  41 H41            4.3936     2.3391     1.5228 H       
  42 H42            4.9825     0.8545    -2.4338 H       
  43 H43            2.9309    -0.4889    -2.2476 H       
  44 H44            7.2977     1.0046     0.3790 H       
  45 H45            7.9724     2.6513     0.4156 H       
  46 H46            6.6138     2.2223     1.4826 H       
  47 H47            5.9933     2.5703    -2.7363 H       
  48 H48            7.6100     2.8545    -2.0481 H       
  49 H49            6.9353     1.2078    -2.0847 H       
  50 H50            5.2916     4.1348     0.5679 H       
  51 H51            6.6502     4.5638    -0.4991 H       
  52 H52            5.0334     4.2795    -1.1873 H       
@<TRIPOS>BOND
   1    1    2 1
   2    1    4 2
   3    1    5 am
   4    2    3 2
   5    2   28 1
   6    3   13 1
   7    3   18 1
   8    5    6 1
   9    5   10 1
  10    6    7 1
  11    6   29 1
  12    6   30 1
  13    7    8 1
  14    7   31 1
  15    7   32 1
  16    8    9 1
  17    9   10 1
  18    9   33 1
  19    9   34 1
  20   10   35 1
  21   10   36 1
  22   11   12 ar
  23   11   16 ar
  24   11   17 1
  25   12   13 ar
  26   12   37 1
  27   13   14 ar
  28   14   15 ar
  29   14   38 1
  30   15   16 ar
  31   15   39 1
  32   18   19 ar
  33   18   23 ar
  34   19   20 ar
  35   19   40 1
  36   20   21 ar
  37   20   41 1
  38   21   22 ar
  39   21   24 1
  40   22   23 ar
  41   22   42 1
  42   23   43 1
  43   24   25 1
  44   24   27 1
  45   24   26 1
  46   25   44 1
  47   25   45 1
  48   25   46 1
  49   26   47 1
  50   26   48 1
  51   26   49 1
  52   27   50 1
  53   27   51 1
  54   27   52 1

#	End of record

