#	Name: ASD01440037
#	Creating user name:	WinNT
#	Creation time:	15. 06. 2019 19:20

#	Modifying user name:	WinNT
#	Modification time:	15. 06. 2019 19:20

#	Program:	/corina/corina34_cracker 3.40 0067  02.08.2006

@<TRIPOS>MOLECULE
ASD01440037
  41   43    0    0    0
SMALL
NO_CHARGES


@<TRIPOS>ATOM
   1 C1             1.2754    -1.2550    -1.2170 C.ar    
   2 C2             0.1182    -0.5638    -0.9085 C.ar    
   3 N3             0.1551     0.7199    -0.6097 N.ar    
   4 C4             1.2862     1.3966    -0.5917 C.ar    
   5 C5             2.4898     0.7722    -0.8903 C.ar    
   6 C6             2.4867    -0.5834    -1.2102 C.ar    
   7 N7             3.6885     1.4943    -0.8705 N.am    
   8 C8             4.8385     0.8819    -0.5256 C.2     
   9 C9             6.1453     1.6270    -0.6156 C.3     
  10 O10            4.8216    -0.2688    -0.1427 O.2     
  11 O11            7.2113     0.7711    -0.1994 O.3     
  12 C12            8.4640     1.2921    -0.2211 C.ar    
  13 C13            8.6611     2.6063    -0.6305 C.ar    
  14 C14            9.5460     0.5122     0.1715 C.ar    
  15 C15           10.8185     1.0369     0.1515 C.ar    
  16 C16           11.0220     2.3565    -0.2646 C.ar    
  17 C17            9.9301     3.1389    -0.6540 C.ar    
  18 C18           12.3834     2.9232    -0.2872 C.2     
  19 C19           12.7028     4.0425    -1.1978 C.ar    
  20 O20           13.2430     2.4694     0.4432 O.2     
  21 C21           14.1046     5.8983    -1.8018 C.ar    
  22 C22           13.8111     4.8548    -0.9485 C.ar    
  23 C23           11.9009     4.2889    -2.3143 C.ar    
  24 C24           12.2056     5.3371    -3.1610 C.ar    
  25 C25           13.3042     6.1422    -2.9033 C.ar    
  26 F26           11.4319     5.5776    -4.2420 F       
  27 H27            1.2357    -2.3074    -1.4561 H       
  28 H28           -0.8290    -1.0826    -0.9126 H       
  29 H29            1.2766     2.4475    -0.3425 H       
  30 H30            3.4061    -1.0982    -1.4469 H       
  31 H31            3.6916     2.4355    -1.1050 H       
  32 H32            6.3135     1.9424    -1.6453 H       
  33 H33            6.1092     2.5033     0.0316 H       
  34 H34            7.8173     3.2099    -0.9308 H       
  35 H35            9.3879    -0.5066     0.4930 H       
  36 H36           11.6584     0.4305     0.4570 H       
  37 H37           10.0825     4.1595    -0.9728 H       
  38 H38           14.9617     6.5266    -1.6092 H       
  39 H39           14.4372     4.6665    -0.0889 H       
  40 H40           11.0452     3.6615    -2.5154 H       
  41 H41           13.5384     6.9610    -3.5674 H       
@<TRIPOS>BOND
   1    1    2 ar
   2    1    6 ar
   3    1   27 1
   4    2    3 ar
   5    2   28 1
   6    3    4 ar
   7    4    5 ar
   8    4   29 1
   9    5    6 ar
  10    5    7 1
  11    6   30 1
  12    7    8 am
  13    7   31 1
  14    8    9 1
  15    8   10 2
  16    9   11 1
  17    9   32 1
  18    9   33 1
  19   11   12 1
  20   12   14 ar
  21   12   13 ar
  22   13   17 ar
  23   13   34 1
  24   14   15 ar
  25   14   35 1
  26   15   16 ar
  27   15   36 1
  28   16   17 ar
  29   16   18 1
  30   17   37 1
  31   18   19 1
  32   18   20 2
  33   19   23 ar
  34   19   22 ar
  35   21   22 ar
  36   21   25 ar
  37   21   38 1
  38   22   39 1
  39   23   24 ar
  40   23   40 1
  41   24   25 ar
  42   24   26 1
  43   25   41 1

#	End of record

