#	Name: ASD02560344
#	Creating user name:	WinNT
#	Creation time:	15. 06. 2019 20:25

#	Modifying user name:	WinNT
#	Modification time:	15. 06. 2019 20:25

#	Program:	/corina/corina34_cracker 3.40 0067  02.08.2006

@<TRIPOS>MOLECULE
ASD02560344
  51   54    0    0    0
SMALL
NO_CHARGES


@<TRIPOS>ATOM
   1 C1             0.0145     1.4256     0.2935 C.2     
   2 C2             0.0197     0.0245     0.1725 C.2     
   3 C3             1.1853    -0.6482     0.0952 C.2     
   4 N4             2.3795     0.0202     0.1336 N.pl3   
   5 C5             2.4059     1.3911     0.2515 C.2     
   6 C6             1.1914     2.1049     0.3327 C.2     
   7 C7             3.6768    -0.4082     0.0757 C.2     
   8 C8             4.4722     0.7150     0.1597 C.2     
   9 N9             3.6678     1.7884     0.2654 N.2     
  10 C10            5.9539     0.7363     0.1376 C.ar    
  11 N11            4.1123    -1.7289    -0.0449 N.3     
  12 C12            2.9890    -2.6671     0.0803 C.3     
  13 C13            2.3088    -2.8329    -1.2801 C.3     
  14 C14            6.6761    -0.2978     0.7315 C.ar    
  15 C15            6.6284     1.7880    -0.4823 C.ar    
  16 C16            3.5088    -4.0241     0.5594 C.3     
  17 C17            2.3387    -5.0013     0.6898 C.3     
  18 C18            1.6586    -5.1671    -0.6706 C.3     
  19 C19            1.1388    -3.8101    -1.1497 C.3     
  20 C20            8.0563    -0.2770     0.7103 C.ar    
  21 C21            8.7272     0.7710     0.0998 C.ar    
  22 C22            8.0112     1.8039    -0.5006 C.ar    
  23 O23            8.6718     2.8311    -1.0989 O.3     
  24 C24            7.8739     3.8561    -1.6946 C.3     
  25 C25            8.7859     4.9175    -2.3131 C.3     
  26 O26           10.0871     0.7880     0.0821 O.3     
  27 H27           -0.9218     1.9608     0.3507 H       
  28 H28           -0.9152    -0.5154     0.1417 H       
  29 H29            1.1770    -1.7242     0.0025 H       
  30 H30            1.1969     3.1809     0.4258 H       
  31 H31            4.6054    -1.8691    -0.9140 H       
  32 H32            2.2696    -2.2785     0.8012 H       
  33 H33            1.9385    -1.8662    -1.6214 H       
  34 H34            3.0281    -3.2215    -2.0010 H       
  35 H35            6.1557    -1.1152     1.2084 H       
  36 H36            6.0719     2.5883    -0.9475 H       
  37 H37            4.2281    -4.4127    -0.1615 H       
  38 H38            3.9933    -3.9059     1.5286 H       
  39 H39            2.7091    -5.9680     1.0311 H       
  40 H40            1.6194    -4.6127     1.4107 H       
  41 H41            2.3779    -5.5557    -1.3915 H       
  42 H42            0.8251    -5.8632    -0.5777 H       
  43 H43            0.4195    -3.4215    -0.4288 H       
  44 H44            0.6543    -3.9283    -2.1189 H       
  45 H45            8.6145    -1.0788     1.1707 H       
  46 H46            7.2441     3.4213    -2.4707 H       
  47 H47            7.2455     4.3165    -0.9322 H       
  48 H48            9.4157     5.3523    -1.5370 H       
  49 H49            9.4143     4.4571    -3.0754 H       
  50 H50            8.1773     5.6993    -2.7675 H       
  51 H51           10.4759     0.3504    -0.6876 H       
@<TRIPOS>BOND
   1    1    2 1
   2    1    6 2
   3    1   27 1
   4    2    3 2
   5    2   28 1
   6    3    4 1
   7    3   29 1
   8    4    5 1
   9    4    7 1
  10    5    6 1
  11    5    9 2
  12    6   30 1
  13    7    8 2
  14    7   11 1
  15    8    9 1
  16    8   10 1
  17   10   14 ar
  18   10   15 ar
  19   11   12 1
  20   11   31 1
  21   12   16 1
  22   12   13 1
  23   12   32 1
  24   13   19 1
  25   13   33 1
  26   13   34 1
  27   14   20 ar
  28   14   35 1
  29   15   22 ar
  30   15   36 1
  31   16   17 1
  32   16   37 1
  33   16   38 1
  34   17   18 1
  35   17   39 1
  36   17   40 1
  37   18   19 1
  38   18   41 1
  39   18   42 1
  40   19   43 1
  41   19   44 1
  42   20   21 ar
  43   20   45 1
  44   21   22 ar
  45   21   26 1
  46   22   23 1
  47   23   24 1
  48   24   25 1
  49   24   46 1
  50   24   47 1
  51   25   48 1
  52   25   49 1
  53   25   50 1
  54   26   51 1

#	End of record

