#	Name: ASD02038663
#	Creating user name:	WinNT
#	Creation time:	15. 06. 2019 20:17

#	Modifying user name:	WinNT
#	Modification time:	15. 06. 2019 20:17

#	Program:	/corina/corina34_cracker 3.40 0067  02.08.2006

@<TRIPOS>MOLECULE
ASD02038663
  48   49    0    0    0
SMALL
NO_CHARGES


@<TRIPOS>ATOM
   1 C1            -0.0090     1.3744    -0.2304 C.ar    
   2 C2            -0.0026     0.0037    -0.0173 C.ar    
   3 O3            -1.1724    -0.6894    -0.0162 O.3     
   4 C4            -1.0917    -2.0981     0.2095 C.3     
   5 C5            -2.4973    -2.7015     0.1753 C.3     
   6 C6            -2.4242    -4.1856     0.5397 C.3     
   7 N7            -3.7738    -4.7649     0.5069 N.3     
   8 C8            -3.7425    -6.1923     0.8524 C.3     
   9 C9            -5.1630    -6.7592     0.8076 C.3     
  10 C10            1.1787     2.0788    -0.2316 C.ar    
  11 C11            2.3795     1.4148    -0.0196 C.ar    
  12 C12            2.3852     0.0428     0.1937 C.ar    
  13 C13            1.1968    -0.6604     0.1942 C.ar    
  14 O14           -3.0447    -2.5596    -1.1370 O.3     
  15 N15            3.5850     2.1289    -0.0212 N.am    
  16 C16            3.6278     3.3800     0.4780 C.2     
  17 O17            2.6074     3.9195     0.8508 O.2     
  18 C18           -5.2630    -8.6181     2.4800 C.ar    
  19 C19           -5.2340    -9.9623     2.8058 C.ar    
  20 C20           -5.1309    -8.2235     1.1621 C.ar    
  21 C21           -4.9697    -9.1716     0.1686 C.ar    
  22 C22           -4.9406   -10.5148     0.4923 C.ar    
  23 C23           -5.0727   -10.9116     1.8111 C.ar    
  24 Cl24          -5.0368   -12.5988     2.2182 Cl      
  25 Cl25          -5.3994   -10.4585     4.4612 Cl      
  26 C26            4.9435     4.1088     0.5730 C.3     
  27 Cl27           4.6737     5.7470     1.2760 Cl      
  28 Cl28           6.0704     3.1794     1.6299 Cl      
  29 Cl29           5.6604     4.2719    -1.0733 Cl      
  30 H30           -0.9427     1.8901    -0.3997 H       
  31 H31           -0.4806    -2.5563    -0.5682 H       
  32 H32           -0.6399    -2.2847     1.1837 H       
  33 H33           -3.1332    -2.1821     0.8923 H       
  34 H34           -1.7884    -4.7049    -0.1773 H       
  35 H35           -2.0067    -4.2938     1.5408 H       
  36 H36           -4.3994    -4.2591     1.1159 H       
  37 H37           -3.1158    -6.7256     0.1376 H       
  38 H38           -3.3341    -6.3145     1.8556 H       
  39 H39           -5.7897    -6.2259     1.5224 H       
  40 H40           -5.5714    -6.6371    -0.1956 H       
  41 H41            1.1736     3.1459    -0.3979 H       
  42 H42            3.3190    -0.4743     0.3583 H       
  43 H43            1.2011    -1.7276     0.3600 H       
  44 H44           -2.5292    -2.9980    -1.8278 H       
  45 H45            4.3888     1.7227    -0.3816 H       
  46 H46           -5.3933    -7.8773     3.2550 H       
  47 H47           -4.8669    -8.8622    -0.8610 H       
  48 H48           -4.8151   -11.2548    -0.2842 H       
@<TRIPOS>BOND
   1    1    2 ar
   2    1   10 ar
   3    1   30 1
   4    2    3 1
   5    2   13 ar
   6    3    4 1
   7    4    5 1
   8    4   31 1
   9    4   32 1
  10    5    6 1
  11    5   14 1
  12    5   33 1
  13    6    7 1
  14    6   34 1
  15    6   35 1
  16    7    8 1
  17    7   36 1
  18    8    9 1
  19    8   37 1
  20    8   38 1
  21    9   20 1
  22    9   39 1
  23    9   40 1
  24   10   11 ar
  25   10   41 1
  26   11   12 ar
  27   11   15 1
  28   12   13 ar
  29   12   42 1
  30   13   43 1
  31   14   44 1
  32   15   16 am
  33   15   45 1
  34   16   17 2
  35   16   26 1
  36   18   20 ar
  37   18   19 ar
  38   18   46 1
  39   19   25 1
  40   19   23 ar
  41   20   21 ar
  42   21   22 ar
  43   21   47 1
  44   22   23 ar
  45   22   48 1
  46   23   24 1
  47   26   27 1
  48   26   28 1
  49   26   29 1

#	End of record

