#	Name: ASD01150240
#	Creating user name:	WinNT
#	Creation time:	15. 06. 2019 19:03

#	Modifying user name:	WinNT
#	Modification time:	15. 06. 2019 19:03

#	Program:	/corina/corina34_cracker 3.40 0067  02.08.2006

@<TRIPOS>MOLECULE
ASD01150240
  61   65    0    0    0
SMALL
NO_CHARGES


@<TRIPOS>ATOM
   1 C1             0.3208     0.8355     0.0410 C.ar    
   2 C2             0.2119    -0.5514     0.1920 C.ar    
   3 C3            -1.0045    -1.1511     0.2883 C.ar    
   4 C4            -2.1767    -0.3759     0.2365 C.ar    
   5 C5            -2.0715     1.0281     0.0838 C.ar    
   6 C6            -0.8090     1.6254    -0.0077 C.ar    
   7 N7            -3.3818    -0.9486     0.3291 N.ar    
   8 C8            -4.4872    -0.2446     0.2828 C.ar    
   9 C9            -4.4725     1.1372     0.1344 C.ar    
  10 C10           -3.2584     1.8034     0.0325 C.ar    
  11 N11            1.5830     1.4249    -0.0554 N.3     
  12 C12           -3.2045     3.2745    -0.1266 C.ar    
  13 C13           -5.7664     1.9081     0.0854 C.3     
  14 C14           -6.4219     1.7179    -1.2839 C.3     
  15 O15           -6.6454     1.4287     1.1050 O.3     
  16 C16           -5.8120    -0.9545     0.3931 C.3     
  17 C17           -2.6422     4.0666     0.8748 C.ar    
  18 C18           -2.5939     5.4363     0.7217 C.ar    
  19 C19           -3.1032     6.0262    -0.4244 C.ar    
  20 C20           -3.6628     5.2437    -1.4220 C.ar    
  21 C21           -3.7106     3.8726    -1.2809 C.ar    
  22 F22           -3.0544     7.3685    -0.5693 F       
  23 C23            2.6440     0.4128     0.0246 C.3     
  24 C24            4.0010     1.0732    -0.2296 C.3     
  25 C25            4.2342     2.1677     0.8155 C.3     
  26 C26            3.0901     3.1829     0.7439 C.3     
  27 C27            1.7595     2.4614     0.9698 C.3     
  28 C28           -7.5933     2.2909     1.5580 C.ar    
  29 C29           -8.4086     1.9429     2.6249 C.ar    
  30 N30           -9.3294     2.7761     3.0677 N.ar    
  31 C31           -9.5129     3.9622     2.5220 C.ar    
  32 C32           -8.7394     4.3797     1.4548 C.ar    
  33 C33           -7.7559     3.5376     0.9620 C.ar    
  34 H34            1.1071    -1.1542     0.2323 H       
  35 H35           -1.0705    -2.2228     0.4042 H       
  36 H36           -0.7203     2.6954    -0.1243 H       
  37 H37           -5.5649     2.9669     0.2478 H       
  38 H38           -6.5350     0.6531    -1.4878 H       
  39 H39           -7.4022     2.1945    -1.2869 H       
  40 H40           -5.7955     2.1705    -2.0526 H       
  41 H41           -6.0702    -1.0806     1.4446 H       
  42 H42           -6.5829    -0.3641    -0.1021 H       
  43 H43           -5.7410    -1.9323    -0.0834 H       
  44 H44           -2.2456     3.6079     1.7685 H       
  45 H45           -2.1587     6.0504     1.4963 H       
  46 H46           -4.0587     5.7081    -2.3131 H       
  47 H47           -4.1466     3.2636    -2.0590 H       
  48 H48            2.6403    -0.0396     1.0162 H       
  49 H49            2.4686    -0.3574    -0.7265 H       
  50 H50            4.7897     0.3246    -0.1547 H       
  51 H51            4.0102     1.5139    -1.2264 H       
  52 H52            4.2638     1.7218     1.8096 H       
  53 H53            5.1800     2.6699     0.6122 H       
  54 H54            3.2280     3.9416     1.5142 H       
  55 H55            3.0850     3.6568    -0.2377 H       
  56 H56            0.9417     3.1791     0.9052 H       
  57 H57            1.7600     1.9994     1.9570 H       
  58 H58           -8.2881     0.9793     3.0975 H       
  59 H59          -10.2779     4.6162     2.9136 H       
  60 H60           -8.8971     5.3527     1.0134 H       
  61 H61           -7.1369     3.8377     0.1294 H       
@<TRIPOS>BOND
   1    1    2 ar
   2    1   11 1
   3    1    6 ar
   4    2    3 ar
   5    2   34 1
   6    3    4 ar
   7    3   35 1
   8    4    5 ar
   9    4    7 ar
  10    5    6 ar
  11    5   10 ar
  12    6   36 1
  13    7    8 ar
  14    8    9 ar
  15    8   16 1
  16    9   10 ar
  17    9   13 1
  18   10   12 1
  19   11   23 1
  20   11   27 1
  21   12   17 ar
  22   12   21 ar
  23   13   14 1
  24   13   15 1
  25   13   37 1
  26   14   38 1
  27   14   39 1
  28   14   40 1
  29   15   28 1
  30   16   41 1
  31   16   42 1
  32   16   43 1
  33   17   18 ar
  34   17   44 1
  35   18   19 ar
  36   18   45 1
  37   19   20 ar
  38   19   22 1
  39   20   21 ar
  40   20   46 1
  41   21   47 1
  42   23   24 1
  43   23   48 1
  44   23   49 1
  45   24   25 1
  46   24   50 1
  47   24   51 1
  48   25   26 1
  49   25   52 1
  50   25   53 1
  51   26   27 1
  52   26   54 1
  53   26   55 1
  54   27   56 1
  55   27   57 1
  56   28   29 ar
  57   28   33 ar
  58   29   30 ar
  59   29   58 1
  60   30   31 ar
  61   31   32 ar
  62   31   59 1
  63   32   33 ar
  64   32   60 1
  65   33   61 1

#	End of record

