#	Name: ASD08150712
#	Creating user name:	WinNT
#	Creation time:	15. 06. 2019 21:16

#	Modifying user name:	WinNT
#	Modification time:	15. 06. 2019 21:16

#	Program:	/corina/corina34_cracker 3.40 0067  02.08.2006

@<TRIPOS>MOLECULE
ASD08150712
  46   50    0    0    0
SMALL
NO_CHARGES


@<TRIPOS>ATOM
   1 C1            -0.0158     1.3168     0.0093 C.2     
   2 N2             0.0021    -0.0041     0.0020 N.2     
   3 C3             1.1387    -0.6846    -0.0125 C.2     
   4 C4             2.3424     0.0131    -0.0203 C.2     
   5 C5             2.3160     1.4197    -0.0125 C.2     
   6 N6             1.1169     2.0725     0.0025 N.am    
   7 S7            -1.3640     2.4676     0.0209 S.3     
   8 C8             0.9183     3.4311     0.0113 C.2     
   9 C9            -0.3178     3.8980     0.0239 C.2     
  10 O10            3.3590     2.0528    -0.0187 O.2     
  11 C11            1.1279    -2.1915    -0.0200 C.3     
  12 C12            0.5275    -2.7038     1.2907 C.3     
  13 N13            0.3212    -2.6685    -1.1460 N.pl3   
  14 N14           -1.2280    -3.8951    -3.5011 N.2     
  15 C15           -1.5789    -4.7658    -4.4024 C.2     
  16 N16           -0.8039    -5.8824    -4.2979 N.pl3   
  17 C17            0.0759    -5.6772    -3.2653 C.ar    
  18 N18            1.0490    -6.3888    -2.7061 N.ar    
  19 C19            1.7393    -5.9038    -1.6955 C.ar    
  20 N20            1.5083    -4.7064    -1.1891 N.ar    
  21 C21            0.5554    -3.9223    -1.6830 C.ar    
  22 C22           -0.2085    -4.3960    -2.7629 C.ar    
  23 C23            2.0925     4.3757     0.0056 C.3     
  24 C24            3.6328    -0.7145    -0.0361 C.ar    
  25 C25            4.4824    -0.6086    -1.1368 C.ar    
  26 C26            5.6847    -1.2898    -1.1454 C.ar    
  27 C27            6.0451    -2.0766    -0.0629 C.ar    
  28 C28            5.2050    -2.1845     1.0301 C.ar    
  29 C29            4.0049    -1.5032     1.0521 C.ar    
  30 F30            6.5097    -1.1889    -2.2105 F       
  31 H31           -0.6257     4.9332     0.0306 H       
  32 H32            2.1481    -2.5617    -0.1214 H       
  33 H33           -0.4928    -2.3337     1.3921 H       
  34 H34            0.5197    -3.7937     1.2853 H       
  35 H35            1.1277    -2.3489     2.1285 H       
  36 H36           -0.3771    -2.1056    -1.5152 H       
  37 H37           -2.3681    -4.6248    -5.1261 H       
  38 H38           -0.8637    -6.6765    -4.8517 H       
  39 H39            2.5235    -6.5081    -1.2641 H       
  40 H40            2.3664     4.6087    -1.0234 H       
  41 H41            1.8225     5.2942     0.5267 H       
  42 H42            2.9380     3.9073     0.5095 H       
  43 H43            4.2013     0.0041    -1.9806 H       
  44 H44            6.9854    -2.6079    -0.0733 H       
  45 H45            5.4908    -2.7994     1.8707 H       
  46 H46            3.3523    -1.5849     1.9088 H       
@<TRIPOS>BOND
   1    1    2 2
   2    1    6 1
   3    1    7 1
   4    2    3 1
   5    3    4 2
   6    3   11 1
   7    4    5 1
   8    4   24 1
   9    5    6 am
  10    5   10 2
  11    6    8 1
  12    7    9 1
  13    8    9 2
  14    8   23 1
  15    9   31 1
  16   11   12 1
  17   11   13 1
  18   11   32 1
  19   12   33 1
  20   12   34 1
  21   12   35 1
  22   13   21 1
  23   13   36 1
  24   14   15 2
  25   14   22 1
  26   15   16 1
  27   15   37 1
  28   16   17 1
  29   16   38 1
  30   17   18 ar
  31   17   22 ar
  32   18   19 ar
  33   19   20 ar
  34   19   39 1
  35   20   21 ar
  36   21   22 ar
  37   23   40 1
  38   23   41 1
  39   23   42 1
  40   24   25 ar
  41   24   29 ar
  42   25   26 ar
  43   25   43 1
  44   26   27 ar
  45   26   30 1
  46   27   28 ar
  47   27   44 1
  48   28   29 ar
  49   28   45 1
  50   29   46 1

#	End of record

