#	Name: ASD01940584
#	Creating user name:	WinNT
#	Creation time:	15. 06. 2019 20:12

#	Modifying user name:	WinNT
#	Modification time:	15. 06. 2019 20:12

#	Program:	/corina/corina34_cracker 3.40 0067  02.08.2006

@<TRIPOS>MOLECULE
ASD01940584
  58   61    0    0    0
SMALL
NO_CHARGES


@<TRIPOS>ATOM
   1 C1             0.3584     2.1906    -1.1852 C.ar    
   2 C2            -0.6481     2.0962    -2.1368 C.ar    
   3 C3            -0.6715     2.9780    -3.2102 C.ar    
   4 C4             0.3057     3.9472    -3.3307 C.ar    
   5 C5             1.3082     4.0427    -2.3847 C.ar    
   6 C6             1.3366     3.1646    -1.3095 C.ar    
   7 N7            -1.6355     1.1159    -2.0154 N.am    
   8 S8            -1.5802    -0.2375    -2.9682 S.o2    
   9 C9            -0.0548    -1.0817    -2.4672 C.3     
  10 O10           -2.7192    -0.9902    -2.5742 O.2     
  11 O11           -1.4584     0.2694    -4.2901 O.2     
  12 O12            2.3229     3.2601    -0.3798 O.3     
  13 C13            3.3182     4.1613    -0.5951 C.ar    
  14 C14            4.4890     3.7655    -1.2253 C.ar    
  15 C15            5.5031     4.6814    -1.4453 C.ar    
  16 C16            5.3539     5.9961    -1.0383 C.ar    
  17 C17            4.1855     6.4003    -0.4075 C.ar    
  18 C18            3.1611     5.4819    -0.1890 C.ar    
  19 N19            4.0347     7.7301     0.0041 N.pl3   
  20 C20            4.9420     8.7029    -0.4275 C.ar    
  21 C21            5.5029     8.6179    -1.6950 C.ar    
  22 C22            6.3988     9.5801    -2.1187 C.ar    
  23 C23            6.7388    10.6281    -1.2822 C.ar    
  24 C24            6.1831    10.7169    -0.0184 C.ar    
  25 C25            5.2805     9.7609     0.4097 C.ar    
  26 F26            4.7331     9.8507     1.6416 F       
  27 I27            8.0988    12.0838    -1.9305 I       
  28 N28            1.9752     5.8873     0.4443 N.am    
  29 S29            1.5320     5.2054     1.8869 S.o2    
  30 C30            0.1713    -2.3010    -3.3634 C.3     
  31 F31            6.6419     4.2912    -2.0586 F       
  32 O32            0.3279     5.8745     2.2355 O.2     
  33 O33            1.5461     3.8074     1.6326 O.2     
  34 C34            2.8657     5.6579     3.0302 C.3     
  35 C35            2.7519     5.1715     4.4763 C.3     
  36 C36            3.7757     4.5357     3.5337 C.3     
  37 H37            0.3765     1.5093    -0.3474 H       
  38 H38           -1.4540     2.9055    -3.9511 H       
  39 H39            0.2862     4.6312    -4.1662 H       
  40 H40            2.0709     4.8011    -2.4819 H       
  41 H41           -2.3536     1.2277    -1.3730 H       
  42 H42            0.7881    -0.3976    -2.5651 H       
  43 H43           -0.1421    -1.4045    -1.4298 H       
  44 H44            4.6095     2.7408    -1.5444 H       
  45 H45            6.1475     6.7078    -1.2114 H       
  46 H46            3.3008     7.9766     0.5886 H       
  47 H47            5.2390     7.7999    -2.3489 H       
  48 H48            6.8349     9.5139    -3.1045 H       
  49 H49            6.4511    11.5359     0.6326 H       
  50 H50            1.4156     6.5668     0.0369 H       
  51 H51           -0.6716    -2.9851    -3.2655 H       
  52 H52            0.2586    -1.9781    -4.4009 H       
  53 H53            1.0879    -2.8083    -3.0624 H       
  54 H54            3.3176     6.6355     2.8620 H       
  55 H55            3.1292     5.8290     5.2596 H       
  56 H56            1.8756     4.5796     4.7408 H       
  57 H57            3.5730     3.5255     3.1780 H       
  58 H58            4.8265     4.7749     3.6968 H       
@<TRIPOS>BOND
   1    1    2 ar
   2    1    6 ar
   3    1   37 1
   4    2    3 ar
   5    2    7 1
   6    3    4 ar
   7    3   38 1
   8    4    5 ar
   9    4   39 1
  10    5    6 ar
  11    5   40 1
  12    6   12 1
  13    7    8 am
  14    7   41 1
  15    8    9 1
  16    8   10 2
  17    8   11 2
  18    9   30 1
  19    9   42 1
  20    9   43 1
  21   12   13 1
  22   13   14 ar
  23   13   18 ar
  24   14   15 ar
  25   14   44 1
  26   15   16 ar
  27   15   31 1
  28   16   17 ar
  29   16   45 1
  30   17   18 ar
  31   17   19 1
  32   18   28 1
  33   19   20 1
  34   19   46 1
  35   20   21 ar
  36   20   25 ar
  37   21   22 ar
  38   21   47 1
  39   22   23 ar
  40   22   48 1
  41   23   24 ar
  42   23   27 1
  43   24   25 ar
  44   24   49 1
  45   25   26 1
  46   28   29 am
  47   28   50 1
  48   29   32 2
  49   29   33 2
  50   29   34 1
  51   30   51 1
  52   30   52 1
  53   30   53 1
  54   34   35 1
  55   34   36 1
  56   34   54 1
  57   35   36 1
  58   35   55 1
  59   35   56 1
  60   36   57 1
  61   36   58 1

#	End of record

