#	Name: ASD03091816
#	Creating user name:	WinNT
#	Creation time:	15. 06. 2019 20:31

#	Modifying user name:	WinNT
#	Modification time:	15. 06. 2019 20:31

#	Program:	/corina/corina34_cracker 3.40 0067  02.08.2006

@<TRIPOS>MOLECULE
ASD03091816
  49   53    0    0    0
SMALL
NO_CHARGES


@<TRIPOS>ATOM
   1 N1            -0.0178     1.4608     0.0101 N.pl3   
   2 C2            -1.3269    -2.0640     0.4733 C.3     
   3 C3            -1.2939    -0.5345     0.6219 C.3     
   4 C4             0.0021    -0.0041     0.0020 C.3     
   5 C5             0.1277    -0.5039    -1.4400 C.3     
   6 C6            -0.0017    -2.0355    -1.4488 C.3     
   7 C7             0.9201    -2.5943    -0.3405 C.3     
   8 C8             0.0444    -2.6132     0.9296 C.3     
   9 N9            -1.3749    -2.3645    -0.9824 N.3     
  10 C10           -1.6856    -3.7809    -1.2176 C.3     
  11 C11            1.1816     2.1752     0.0025 C.ar    
  12 C12            1.1616     3.5651     0.0101 C.ar    
  13 C13            2.3450     4.2725     0.0031 C.ar    
  14 C14            3.5620     3.5930    -0.0117 C.ar    
  15 C15            3.5798     2.1993    -0.0194 C.ar    
  16 C16            2.3942     1.4956    -0.0070 C.ar    
  17 N17            8.5067     6.2339    -0.0460 N.pl3   
  18 N18            9.3533     5.1209    -0.0593 N.2     
  19 C19            8.6510     4.0242    -0.0577 C.2     
  20 C20            7.2400     4.3986    -0.0425 C.ar    
  21 C21            6.0448     3.6735    -0.0345 C.ar    
  22 C22            4.8367     4.3523    -0.0198 C.ar    
  23 C23            4.8150     5.7525    -0.0130 C.ar    
  24 C24            5.9764     6.4665    -0.0207 C.ar    
  25 C25            7.2041     5.8067    -0.0356 C.ar    
  26 H26           -0.8643     1.9343     0.0167 H       
  27 H27           -2.1542    -2.5122     1.0237 H       
  28 H28           -2.1500    -0.0990     0.1066 H       
  29 H29           -1.3282    -0.2695     1.6787 H       
  30 H30            0.8535    -0.3583     0.5832 H       
  31 H31           -0.6645    -0.0671    -2.0481 H       
  32 H32            1.0993    -0.2172    -1.8424 H       
  33 H33            0.2246    -2.4610    -2.4265 H       
  34 H34            1.2462    -3.6037    -0.5915 H       
  35 H35            1.7810    -1.9411    -0.1980 H       
  36 H36            0.4747    -1.9693     1.6966 H       
  37 H37           -0.0602    -3.6319     1.3031 H       
  38 H38           -2.6552    -4.0177    -0.7797 H       
  39 H39           -1.7145    -3.9732    -2.2901 H       
  40 H40           -0.9175    -4.4026    -0.7575 H       
  41 H41            0.2185     4.0912     0.0212 H       
  42 H42            2.3290     5.3524     0.0087 H       
  43 H43            4.5216     1.6709    -0.0312 H       
  44 H44            2.4076     0.4157    -0.0087 H       
  45 H45            8.7951     7.1600    -0.0408 H       
  46 H46            9.0424     3.0176    -0.0662 H       
  47 H47            6.0628     2.5937    -0.0406 H       
  48 H48            3.8683     6.2722    -0.0019 H       
  49 H49            5.9450     7.5461    -0.0157 H       
@<TRIPOS>BOND
   1    1    4 1
   2    1   11 1
   3    1   26 1
   4    2    3 1
   5    2    8 1
   6    2    9 1
   7    2   27 1
   8    3    4 1
   9    3   28 1
  10    3   29 1
  11    4    5 1
  12    4   30 1
  13    5    6 1
  14    5   31 1
  15    5   32 1
  16    6    7 1
  17    6    9 1
  18    6   33 1
  19    7    8 1
  20    7   34 1
  21    7   35 1
  22    8   36 1
  23    8   37 1
  24    9   10 1
  25   10   38 1
  26   10   39 1
  27   10   40 1
  28   11   12 ar
  29   11   16 ar
  30   12   13 ar
  31   12   41 1
  32   13   14 ar
  33   13   42 1
  34   14   15 ar
  35   14   22 1
  36   15   16 ar
  37   15   43 1
  38   16   44 1
  39   17   18 1
  40   17   25 1
  41   17   45 1
  42   18   19 2
  43   19   20 1
  44   19   46 1
  45   20   21 ar
  46   20   25 ar
  47   21   22 ar
  48   21   47 1
  49   22   23 ar
  50   23   24 ar
  51   23   48 1
  52   24   25 ar
  53   24   49 1

#	End of record

