#	Name: ASD01811608
#	Creating user name:	WinNT
#	Creation time:	15. 06. 2019 19:27

#	Modifying user name:	WinNT
#	Modification time:	15. 06. 2019 19:27

#	Program:	/corina/corina34_cracker 3.40 0067  02.08.2006

@<TRIPOS>MOLECULE
ASD01811608
  73   78    0    0    0
SMALL
NO_CHARGES


@<TRIPOS>ATOM
   1 C1             0.1448     1.1215     0.0285 C.ar    
   2 C2             0.2583    -0.2520     0.1388 C.ar    
   3 C3             1.5015    -0.8426     0.2350 C.ar    
   4 C4             2.6525    -0.0589     0.2211 C.ar    
   5 C5             2.5261     1.3229     0.1088 C.ar    
   6 C6             1.2836     1.9079     0.0138 C.ar    
   7 N7             4.0003    -0.4154     0.3037 N.am    
   8 C8             4.8135     0.6571     0.2530 C.2     
   9 C9             3.9270     1.8657     0.1224 C.3     
  10 C10            4.2397     2.6573    -1.1500 C.3     
  11 N11            4.5805     4.0342    -0.7220 N.3     
  12 C12            5.0712     3.9152     0.6758 C.3     
  13 C13            4.1387     2.8394     1.2924 C.3     
  14 C14            5.6096     4.6169    -1.5934 C.3     
  15 C15            5.0762     4.7066    -3.0259 C.3     
  16 C16            6.1292     5.3699    -3.9165 C.3     
  17 N17            6.4316     6.7119    -3.4027 N.3     
  18 C18            6.9896     6.6478    -2.0459 C.3     
  19 C19            5.9622     6.0227    -1.0994 C.3     
  20 C20            7.3352     7.4317    -4.3101 C.3     
  21 C21            7.5275     8.8641    -3.8080 C.3     
  22 C22            8.6890     6.7200    -4.3521 C.3     
  23 C23            4.4745    -1.7957     0.4313 C.3     
  24 C24            4.6950    -2.3798    -0.9403 C.ar    
  25 O25            6.0253     0.6500     0.3036 O.2     
  26 C26            5.8535    -2.0820    -1.6396 C.ar    
  27 C27            6.0597    -2.6163    -2.8978 C.ar    
  28 C28            5.1003    -3.4545    -3.4608 C.ar    
  29 C29            3.9379    -3.7499    -2.7525 C.ar    
  30 C30            3.7434    -3.2158    -1.4944 C.ar    
  31 F31            6.7824    -1.2683    -1.0915 F       
  32 C32            5.3158    -4.0310    -4.8120 C.2     
  33 C33            6.4371    -3.8199    -5.6378 C.2     
  34 N34            6.2598    -4.4938    -6.7432 N.2     
  35 N35            5.0287    -5.1564    -6.6677 N.pl3   
  36 C36            4.4664    -4.8663    -5.4770 C.2     
  37 C37            4.4533    -6.0202    -7.7016 C.3     
  38 H38           -0.8302     1.5794    -0.0505 H       
  39 H39           -0.6304    -0.8655     0.1501 H       
  40 H40            1.5822    -1.9161     0.3218 H       
  41 H41            1.1975     2.9809    -0.0731 H       
  42 H42            5.0858     2.2082    -1.6702 H       
  43 H43            3.3667     2.6748    -1.8025 H       
  44 H44            6.1082     3.5798     0.6919 H       
  45 H45            4.9647     4.8636     1.2025 H       
  46 H46            3.1921     3.2809     1.6039 H       
  47 H47            4.6265     2.3385     2.1286 H       
  48 H48            6.5005     3.9892    -1.5750 H       
  49 H49            4.8634     3.7046    -3.3984 H       
  50 H50            4.1628     5.3013    -3.0375 H       
  51 H51            7.0376     4.7674    -3.9153 H       
  52 H52            5.7469     5.4483    -4.9342 H       
  53 H53            7.8939     6.0393    -2.0535 H       
  54 H54            7.2321     7.6543    -1.7050 H       
  55 H55            5.0628     6.6381    -1.0808 H       
  56 H56            6.3825     5.9609    -0.0956 H       
  57 H57            6.9043     7.4523    -5.3111 H       
  58 H58            7.9584     8.8435    -2.8070 H       
  59 H59            8.1980     9.3982    -4.4812 H       
  60 H60            6.5630     9.3712    -3.7780 H       
  61 H61            9.3595     7.2541    -5.0254 H       
  62 H62            9.1199     6.6994    -3.3511 H       
  63 H63            8.5520     5.6996    -4.7098 H       
  64 H64            5.4124    -1.8078     0.9865 H       
  65 H65            3.7299    -2.3880     0.9631 H       
  66 H66            6.9624    -2.3839    -3.4431 H       
  67 H67            3.1913    -4.3991    -3.1855 H       
  68 H68            2.8422    -3.4451    -0.9451 H       
  69 H69            7.2939    -3.2072    -5.3992 H       
  70 H70            3.5133    -5.2249    -5.1176 H       
  71 H71            4.7743    -7.0486    -7.5358 H       
  72 H72            3.3656    -5.9671    -7.6554 H       
  73 H73            4.7920    -5.6876    -8.6828 H       
@<TRIPOS>BOND
   1    1    2 ar
   2    1    6 ar
   3    1   38 1
   4    2    3 ar
   5    2   39 1
   6    3    4 ar
   7    3   40 1
   8    4    5 ar
   9    4    7 1
  10    5    6 ar
  11    5    9 1
  12    6   41 1
  13    7    8 am
  14    7   23 1
  15    8    9 1
  16    8   25 2
  17    9   10 1
  18    9   13 1
  19   10   11 1
  20   10   42 1
  21   10   43 1
  22   11   12 1
  23   11   14 1
  24   12   13 1
  25   12   44 1
  26   12   45 1
  27   13   46 1
  28   13   47 1
  29   14   15 1
  30   14   19 1
  31   14   48 1
  32   15   16 1
  33   15   49 1
  34   15   50 1
  35   16   17 1
  36   16   51 1
  37   16   52 1
  38   17   18 1
  39   17   20 1
  40   18   19 1
  41   18   53 1
  42   18   54 1
  43   19   55 1
  44   19   56 1
  45   20   21 1
  46   20   22 1
  47   20   57 1
  48   21   58 1
  49   21   59 1
  50   21   60 1
  51   22   61 1
  52   22   62 1
  53   22   63 1
  54   23   24 1
  55   23   64 1
  56   23   65 1
  57   24   26 ar
  58   24   30 ar
  59   26   27 ar
  60   26   31 1
  61   27   28 ar
  62   27   66 1
  63   28   29 ar
  64   28   32 1
  65   29   30 ar
  66   29   67 1
  67   30   68 1
  68   32   33 1
  69   32   36 2
  70   33   34 2
  71   33   69 1
  72   34   35 1
  73   35   36 1
  74   35   37 1
  75   36   70 1
  76   37   71 1
  77   37   72 1
  78   37   73 1

#	End of record

