#	Name: ASD01411294
#	Creating user name:	WinNT
#	Creation time:	15. 06. 2019 19:19

#	Modifying user name:	WinNT
#	Modification time:	15. 06. 2019 19:19

#	Program:	/corina/corina34_cracker 3.40 0067  02.08.2006

@<TRIPOS>MOLECULE
ASD01411294
  81   86    0    0    0
SMALL
NO_CHARGES


@<TRIPOS>ATOM
   1 C1            -0.0170     1.4045     0.0098 C.ar    
   2 C2             0.0021    -0.0041     0.0020 C.ar    
   3 C3            -1.2083    -0.7128     0.0246 C.ar    
   4 C4            -2.3897    -0.0442     0.0582 C.ar    
   5 C5            -2.4251     1.3690     0.0677 C.ar    
   6 C6            -1.2312     2.0765     0.0300 C.ar    
   7 N7             1.2954     1.8354    -0.0005 N.pl3   
   8 C8             2.1177     0.7354    -0.0354 C.2     
   9 C9             1.3604    -0.3937    -0.0319 C.2     
  10 C10            1.7251     3.2352     0.0207 C.3     
  11 C11            1.0512     3.9657     1.1544 C.2     
  12 N12            1.0828     5.3235     1.1696 N.am    
  13 O13            0.4952     3.3513     2.0394 O.2     
  14 C14            0.3650     6.0165     2.2536 C.3     
  15 C15           -0.9697     6.5366     1.7119 C.3     
  16 C16           -2.0512     6.2999     2.7318 C.2     
  17 C17           -3.7432     2.0100     0.1166 C.2     
  18 O18           -4.7168     1.2637     0.0296 O.2     
  19 N19           -4.0090     3.3178     0.2670 N.am    
  20 C20           -3.2396     5.8880     2.3733 C.2     
  21 C21           -3.5704     5.6336     0.9264 C.3     
  22 C22           -2.9462     4.3071     0.4833 C.3     
  23 C23            3.5958     0.7522    -0.0751 C.ar    
  24 C24            4.2629     1.6245    -0.9373 C.ar    
  25 C25            1.8828    -1.8073    -0.0595 C.3     
  26 C26            1.4103    -2.5501     1.1918 C.3     
  27 C27            1.9406    -3.9850     1.1638 C.3     
  28 C28            1.4139    -4.6991    -0.0826 C.3     
  29 C29            1.8864    -3.9563    -1.3339 C.3     
  30 C30            1.3561    -2.5214    -1.3059 C.3     
  31 C31            5.6408     1.6374    -0.9710 C.ar    
  32 C32            6.3654     0.7839    -0.1492 C.ar    
  33 C33            5.7055    -0.0853     0.7098 C.ar    
  34 C34            4.3279    -0.1002     0.7535 C.ar    
  35 O35            7.7233     0.7990    -0.1860 O.3     
  36 C36            8.4060    -0.1046     0.6854 C.3     
  37 C37            9.8941     0.0533     0.5071 C.ar    
  38 C38           10.5905     0.9621     1.2817 C.ar    
  39 C39           11.9554     1.1069     1.1181 C.ar    
  40 C40           12.6241     0.3426     0.1802 C.ar    
  41 C41           11.9278    -0.5668    -0.5938 C.ar    
  42 C42           10.5636    -0.7148    -0.4272 C.ar    
  43 H43           -1.2004    -1.7932     0.0126 H       
  44 H44           -3.3176    -0.5969     0.0768 H       
  45 H45           -1.2204     3.1542    -0.0062 H       
  46 H46            2.8036     3.3009     0.1466 H       
  47 H47            1.4455     3.7090    -0.9228 H       
  48 H48            1.5649     5.8202     0.4891 H       
  49 H49            0.1823     5.3259     3.0756 H       
  50 H50            0.9644     6.8550     2.6085 H       
  51 H51           -0.8851     7.6061     1.5127 H       
  52 H52           -1.2095     6.0148     0.7865 H       
  53 H53           -1.8439     6.4756     3.7809 H       
  54 H54           -4.9424     3.6187     0.2320 H       
  55 H55           -3.9984     5.7279     3.1297 H       
  56 H56           -4.6529     5.5816     0.8044 H       
  57 H57           -3.1768     6.4421     0.3115 H       
  58 H58           -2.2679     3.9568     1.2618 H       
  59 H59           -2.3976     4.4666    -0.4461 H       
  60 H60            3.7001     2.2880    -1.5771 H       
  61 H61            2.9724    -1.7916    -0.0830 H       
  62 H62            1.7856    -2.0414     2.0798 H       
  63 H63            0.3207    -2.5658     1.2153 H       
  64 H64            3.0302    -3.9693     1.1403 H       
  65 H65            1.6040    -4.5142     2.0553 H       
  66 H66            1.7916    -5.7214    -0.1025 H       
  67 H67            0.3242    -4.7149    -0.0591 H       
  68 H68            2.9760    -3.9406    -1.3574 H       
  69 H69            1.5111    -4.4651    -2.2219 H       
  70 H70            0.2665    -2.5371    -1.2824 H       
  71 H71            1.6927    -1.9922    -2.1974 H       
  72 H72            6.1576     2.3119    -1.6376 H       
  73 H73            6.2725    -0.7474     1.3473 H       
  74 H74            3.8155    -0.7761     1.4220 H       
  75 H75            8.1386     0.1155     1.7189 H       
  76 H76            8.1179    -1.1281     0.4456 H       
  77 H77           10.0681     1.5592     2.0145 H       
  78 H78           12.4994     1.8174     1.7228 H       
  79 H79           13.6904     0.4563     0.0519 H       
  80 H80           12.4502    -1.1637    -1.3268 H       
  81 H81           10.0196    -1.4253    -1.0318 H       
@<TRIPOS>BOND
   1    1    2 ar
   2    1    7 1
   3    1    6 ar
   4    2    3 ar
   5    2    9 1
   6    3    4 ar
   7    3   43 1
   8    4    5 ar
   9    4   44 1
  10    5    6 ar
  11    5   17 1
  12    6   45 1
  13    7    8 1
  14    7   10 1
  15    8    9 2
  16    8   23 1
  17    9   25 1
  18   10   11 1
  19   10   46 1
  20   10   47 1
  21   11   12 am
  22   11   13 2
  23   12   14 1
  24   12   48 1
  25   14   15 1
  26   14   49 1
  27   14   50 1
  28   15   16 1
  29   15   51 1
  30   15   52 1
  31   16   20 2
  32   16   53 1
  33   17   18 2
  34   17   19 am
  35   19   22 1
  36   19   54 1
  37   20   21 1
  38   20   55 1
  39   21   22 1
  40   21   56 1
  41   21   57 1
  42   22   58 1
  43   22   59 1
  44   23   24 ar
  45   23   34 ar
  46   24   31 ar
  47   24   60 1
  48   25   26 1
  49   25   30 1
  50   25   61 1
  51   26   27 1
  52   26   62 1
  53   26   63 1
  54   27   28 1
  55   27   64 1
  56   27   65 1
  57   28   29 1
  58   28   66 1
  59   28   67 1
  60   29   30 1
  61   29   68 1
  62   29   69 1
  63   30   70 1
  64   30   71 1
  65   31   32 ar
  66   31   72 1
  67   32   33 ar
  68   32   35 1
  69   33   34 ar
  70   33   73 1
  71   34   74 1
  72   35   36 1
  73   36   37 1
  74   36   75 1
  75   36   76 1
  76   37   38 ar
  77   37   42 ar
  78   38   39 ar
  79   38   77 1
  80   39   40 ar
  81   39   78 1
  82   40   41 ar
  83   40   79 1
  84   41   42 ar
  85   41   80 1
  86   42   81 1

#	End of record

