#	Name: ASD03730248
#	Creating user name:	WinNT
#	Creation time:	15. 06. 2019 20:44

#	Modifying user name:	WinNT
#	Modification time:	15. 06. 2019 20:44

#	Program:	/corina/corina34_cracker 3.40 0067  02.08.2006

@<TRIPOS>MOLECULE
ASD03730248
  63   69    0    0    0
SMALL
NO_CHARGES


@<TRIPOS>ATOM
   1 O1            -0.4556     1.1466     1.2732 O.3     
   2 C2            -0.3881    -0.2900     1.3443 C.3     
   3 O3             0.6970    -0.6256     0.4596 O.3     
   4 C4             1.5184     0.4653     0.4588 C.ar    
   5 C5             0.8086     1.5551     0.9577 C.ar    
   6 C6             2.8364     0.6187     0.0678 C.ar    
   7 C7             3.4619     1.8578     0.1678 C.ar    
   8 C8             2.7398     2.9413     0.6589 C.ar    
   9 C9             1.4271     2.7903     1.0543 C.ar    
  10 O10            4.7413     2.2157    -0.1404 O.3     
  11 C11            3.6654     4.1276     0.6181 C.3     
  12 C12            4.8137     3.6477    -0.2803 C.3     
  13 N13            3.0973     6.3064     1.0090 N.am    
  14 C14            2.9959     5.3519     0.0627 C.2     
  15 C15            4.1490     4.5235     1.9813 C.ar    
  16 C16            4.8345     3.8566     2.9874 C.ar    
  17 C17            5.1456     4.5216     4.1731 C.ar    
  18 C18            4.7689     5.8399     4.3373 C.ar    
  19 C19            4.0878     6.5026     3.3366 C.ar    
  20 C20            3.7696     5.8509     2.1462 C.ar    
  21 O21            2.4683     5.4605    -1.0240 O.2     
  22 C22            2.5651     7.6634     0.8622 C.3     
  23 C23            1.1261     7.7056     1.3801 C.3     
  24 C24            0.5702     9.1228     1.2268 C.3     
  25 C25           -0.8688     9.1651     1.7446 C.3     
  26 C26           -1.4246    10.5823     1.5913 C.3     
  27 O27            6.3578    -1.5038     2.2608 O.3     
  28 C28            6.1124    -2.4101     3.3415 C.3     
  29 C29            4.6815    -2.1797     3.8462 C.3     
  30 O30            4.5752    -0.8216     4.2867 O.3     
  31 C31            5.0896     0.1314     3.4618 C.ar    
  32 C32            5.9823    -0.2092     2.4502 C.ar    
  33 C33            4.7154     1.4526     3.6370 C.ar    
  34 C34            5.2347     2.4399     2.8020 C.ar    
  35 C35            6.1303     2.0939     1.7925 C.ar    
  36 C36            6.4999     0.7757     1.6205 C.ar    
  37 H37           -0.1669    -0.6131     2.3616 H       
  38 H38           -1.3195    -0.7349     0.9941 H       
  39 H39            3.3838    -0.2290    -0.3172 H       
  40 H40            0.8803     3.6376     1.4409 H       
  41 H41            5.7708     4.0240     0.0807 H       
  42 H42            4.6452     3.9445    -1.3155 H       
  43 H43            5.6790     4.0080     4.9592 H       
  44 H44            5.0092     6.3560     5.2551 H       
  45 H45            3.7986     7.5337     3.4770 H       
  46 H46            3.1783     8.3582     1.4361 H       
  47 H47            2.5812     7.9481    -0.1898 H       
  48 H48            0.5129     7.0108     0.8062 H       
  49 H49            1.1100     7.4209     2.4321 H       
  50 H50            1.1834     9.8176     1.8006 H       
  51 H51            0.5863     9.4076     0.1747 H       
  52 H52           -1.4820     8.4702     1.1708 H       
  53 H53           -0.8849     8.8803     2.7966 H       
  54 H54           -2.4499    10.6124     1.9602 H       
  55 H55           -0.8114    11.2771     2.1652 H       
  56 H56           -1.4086    10.8670     0.5393 H       
  57 H57            6.2179    -3.4369     2.9913 H       
  58 H58            6.8214    -2.2214     4.1476 H       
  59 H59            3.9730    -2.3606     3.0379 H       
  60 H60            4.4719    -2.8532     4.6772 H       
  61 H61            4.0209     1.7181     4.4203 H       
  62 H62            6.5351     2.8573     1.1446 H       
  63 H63            7.1943     0.5093     0.8374 H       
@<TRIPOS>BOND
   1    1    2 1
   2    1    5 1
   3    2    3 1
   4    2   37 1
   5    2   38 1
   6    3    4 1
   7    4    5 ar
   8    4    6 ar
   9    5    9 ar
  10    6    7 ar
  11    6   39 1
  12    7    8 ar
  13    7   10 1
  14    8    9 ar
  15    8   11 1
  16    9   40 1
  17   10   12 1
  18   11   12 1
  19   11   14 1
  20   11   15 1
  21   12   41 1
  22   12   42 1
  23   13   14 am
  24   13   20 1
  25   13   22 1
  26   14   21 2
  27   15   16 ar
  28   15   20 ar
  29   16   17 ar
  30   16   34 1
  31   17   18 ar
  32   17   43 1
  33   18   19 ar
  34   18   44 1
  35   19   20 ar
  36   19   45 1
  37   22   23 1
  38   22   46 1
  39   22   47 1
  40   23   24 1
  41   23   48 1
  42   23   49 1
  43   24   25 1
  44   24   50 1
  45   24   51 1
  46   25   26 1
  47   25   52 1
  48   25   53 1
  49   26   54 1
  50   26   55 1
  51   26   56 1
  52   27   28 1
  53   27   32 1
  54   28   29 1
  55   28   57 1
  56   28   58 1
  57   29   30 1
  58   29   59 1
  59   29   60 1
  60   30   31 1
  61   31   32 ar
  62   31   33 ar
  63   32   36 ar
  64   33   34 ar
  65   33   61 1
  66   34   35 ar
  67   35   36 ar
  68   35   62 1
  69   36   63 1

#	End of record

