#	Name: ASD04910466
#	Creating user name:	WinNT
#	Creation time:	15. 06. 2019 20:55

#	Modifying user name:	WinNT
#	Modification time:	15. 06. 2019 20:55

#	Program:	/corina/corina34_cracker 3.40 0067  02.08.2006

@<TRIPOS>MOLECULE
ASD04910466
  63   65    0    0    0
SMALL
NO_CHARGES


@<TRIPOS>ATOM
   1 C1             1.1405     1.7738    -0.6537 C.2     
   2 C2             0.9778     0.2756    -0.6429 C.3     
   3 C3             2.3292    -0.3821    -0.3565 C.3     
   4 O4             2.2259     2.2650    -0.4528 O.2     
   5 O5             0.0806     2.5622    -0.8918 O.3     
   6 C6             3.2364    -2.6304    -0.1125 C.2     
   7 C7             3.0768    -4.1001    -0.1019 C.ar    
   8 C8             4.1780    -4.9230     0.1397 C.ar    
   9 C9             4.0221    -6.2937     0.1486 C.ar    
  10 C10            2.7778    -6.8531    -0.0817 C.ar    
  11 C11            1.6821    -6.0430    -0.3219 C.ar    
  12 C12            1.8232    -4.6707    -0.3279 C.ar    
  13 O13            4.3284    -2.1361     0.0896 O.2     
  14 N14            2.1711    -1.8385    -0.3461 N.am    
  15 C15            2.6152    -8.3512    -0.0715 C.3     
  16 C16            2.0404    -8.7927     1.2760 C.3     
  17 C17            1.9917   -10.3208     1.3337 C.3     
  18 C18            1.4169   -10.7622     2.6811 C.3     
  19 O19            1.7255    -8.7410    -1.1196 O.3     
  20 C20            1.9716    -9.9320    -1.7270 C.ar    
  21 C21            3.0902   -10.6727    -1.3735 C.ar    
  22 C22            3.3403   -11.8826    -1.9898 C.ar    
  23 C23            2.4722   -12.3579    -2.9633 C.ar    
  24 C24            1.3531   -11.6164    -3.3167 C.ar    
  25 C25            1.1009   -10.4092    -2.6962 C.ar    
  26 N26            2.7263   -13.5875    -3.5904 N.pl3   
  27 N27            3.8120   -13.9149    -4.1996 N.2     
  28 N28            3.7191   -15.1113    -4.6621 N.2     
  29 C29            2.5175   -15.6086    -4.3490 C.2     
  30 C30            1.8699   -14.6432    -3.6550 C.2     
  31 C31            1.9904   -16.9773    -4.6952 C.3     
  32 F32            3.0001   -17.7234    -5.3125 F       
  33 F33            1.5779   -17.6274    -3.5271 F       
  34 F34            0.9039   -16.8517    -5.5675 F       
  35 C35            0.4104   -12.1320    -4.3735 C.3     
  36 C36            4.5556   -12.6869    -1.6061 C.3     
  37 H37            0.2648    -0.0069     0.1316 H       
  38 H38            0.6104    -0.0569    -1.6138 H       
  39 H39            3.0422    -0.0996    -1.1310 H       
  40 H40            2.6966    -0.0496     0.6143 H       
  41 H41            0.2341     3.5170    -0.8885 H       
  42 H42            5.1500    -4.4877     0.3189 H       
  43 H43            4.8734    -6.9316     0.3354 H       
  44 H44            0.7135    -6.4859    -0.5010 H       
  45 H45            0.9663    -4.0393    -0.5110 H       
  46 H46            1.2997    -2.2329    -0.5073 H       
  47 H47            3.5858    -8.8231    -0.2245 H       
  48 H48            2.6730    -8.4186     2.0809 H       
  49 H49            1.0329    -8.3925     1.3898 H       
  50 H50            1.3591   -10.6948     0.5287 H       
  51 H51            2.9992   -10.7210     1.2199 H       
  52 H52            2.0495   -10.3881     3.4861 H       
  53 H53            0.4094   -10.3620     2.7950 H       
  54 H54            1.3822   -11.8509     2.7223 H       
  55 H55            3.7657   -10.3027    -0.6163 H       
  56 H56            0.2281    -9.8342    -2.9681 H       
  57 H57            0.8746   -14.6986    -3.2394 H       
  58 H58           -0.3890   -12.7022    -3.9003 H       
  59 H59           -0.0172   -11.2915    -4.9201 H       
  60 H60            0.9557   -12.7750    -5.0643 H       
  61 H61            4.3131   -13.3307    -0.7606 H       
  62 H62            4.8675   -13.2998    -2.4517 H       
  63 H63            5.3651   -12.0119    -1.3284 H       
@<TRIPOS>BOND
   1    1    2 1
   2    1    4 2
   3    1    5 1
   4    2    3 1
   5    2   37 1
   6    2   38 1
   7    3   14 1
   8    3   39 1
   9    3   40 1
  10    5   41 1
  11    6    7 1
  12    6   13 2
  13    6   14 am
  14    7    8 ar
  15    7   12 ar
  16    8    9 ar
  17    8   42 1
  18    9   10 ar
  19    9   43 1
  20   10   11 ar
  21   10   15 1
  22   11   12 ar
  23   11   44 1
  24   12   45 1
  25   14   46 1
  26   15   16 1
  27   15   19 1
  28   15   47 1
  29   16   17 1
  30   16   48 1
  31   16   49 1
  32   17   18 1
  33   17   50 1
  34   17   51 1
  35   18   52 1
  36   18   53 1
  37   18   54 1
  38   19   20 1
  39   20   21 ar
  40   20   25 ar
  41   21   22 ar
  42   21   55 1
  43   22   23 ar
  44   22   36 1
  45   23   24 ar
  46   23   26 1
  47   24   25 ar
  48   24   35 1
  49   25   56 1
  50   26   27 1
  51   26   30 1
  52   27   28 2
  53   28   29 1
  54   29   30 2
  55   29   31 1
  56   30   57 1
  57   31   32 1
  58   31   33 1
  59   31   34 1
  60   35   58 1
  61   35   59 1
  62   35   60 1
  63   36   61 1
  64   36   62 1
  65   36   63 1

#	End of record

