#	Name: ASD02560100
#	Creating user name:	WinNT
#	Creation time:	15. 06. 2019 20:24

#	Modifying user name:	WinNT
#	Modification time:	15. 06. 2019 20:24

#	Program:	/corina/corina34_cracker 3.40 0067  02.08.2006

@<TRIPOS>MOLECULE
ASD02560100
  60   63    0    0    0
SMALL
NO_CHARGES


@<TRIPOS>ATOM
   1 N1            -0.2278     1.2503     0.0397 N.2     
   2 N2            -0.1513     0.0180     0.0651 N.2     
   3 C3             1.0986     1.8620    -0.1129 C.3     
   4 N4             2.0562     0.7771     0.2198 N.3     
   5 C5             1.2410    -0.4307    -0.0656 C.3     
   6 S6             1.6004    -1.7353     1.1425 S.3     
   7 C7             1.1535    -0.9631     2.7219 C.3     
   8 C8             1.3994    -1.9376     3.8448 C.2     
   9 O9             1.8334    -3.0441     3.6034 O.2     
  10 N10            1.1371    -1.5796     5.1174 N.am    
  11 C11            3.1797     0.8298    -0.6083 C.ar    
  12 C12            1.2550    -2.5160     6.1434 C.ar    
  13 C13            1.4919    -2.0910     7.4473 C.ar    
  14 C14            1.6088    -3.0126     8.4627 C.ar    
  15 C15            1.4894    -4.3774     8.1830 C.ar    
  16 C16            1.2515    -4.8007     6.8721 C.ar    
  17 C17            1.1300    -3.8729     5.8624 C.ar    
  18 C18            1.6147    -5.3680     9.2682 C.2     
  19 O19            1.4993    -6.6828     8.9969 O.3     
  20 O20            1.8218    -4.9985    10.4070 O.2     
  21 C21            4.1419     1.8205    -0.4096 C.ar    
  22 C22            3.3353    -0.1062    -1.6194 C.ar    
  23 C23            4.4473    -0.0522    -2.4363 C.ar    
  24 C24            5.3969     0.9300    -2.2401 C.ar    
  25 C25            5.2501     1.8656    -1.2236 C.ar    
  26 C26            6.3334     2.8998    -1.0610 C.3     
  27 C27            5.8312     4.0774    -0.2283 C.3     
  28 C28            5.2111     3.5281     1.0619 C.3     
  29 C29            3.9098     2.8118     0.7004 C.3     
  30 C30            6.6089     0.9844    -3.1340 C.3     
  31 C31            1.3059     2.3322    -1.5540 C.3     
  32 F32            0.2430     3.1596    -1.9321 F       
  33 F33            2.5064     3.0448    -1.6439 F       
  34 C34            1.6209    -0.6199     7.7477 C.3     
  35 H35            1.2140     2.6957     0.5796 H       
  36 H36            1.4316    -0.7868    -1.0780 H       
  37 H37            1.7612    -0.0713     2.8752 H       
  38 H38            0.0994    -0.6861     2.7056 H       
  39 H39            0.8662    -0.6703     5.3194 H       
  40 H40            1.7930    -2.6821     9.4743 H       
  41 H41            1.1587    -5.8541     6.6525 H       
  42 H42            0.9462    -4.1991     4.8494 H       
  43 H43            1.5888    -7.2941     9.7408 H       
  44 H44            2.5904    -0.8742    -1.7671 H       
  45 H45            4.5739    -0.7771    -3.2268 H       
  46 H46            7.1907     2.4470    -0.5629 H       
  47 H47            6.6380     3.2587    -2.0441 H       
  48 H48            6.6646     4.7359     0.0164 H       
  49 H49            5.0788     4.6303    -0.7907 H       
  50 H50            5.9015     2.8276     1.5317 H       
  51 H51            4.9989     4.3498     1.7460 H       
  52 H52            3.1718     3.5472     0.3799 H       
  53 H53            3.5339     2.2850     1.5775 H       
  54 H54            6.3959     1.6153    -3.9970 H       
  55 H55            7.4509     1.3991    -2.5798 H       
  56 H56            6.8566    -0.0219    -3.4720 H       
  57 H57            1.3463     1.4673    -2.2162 H       
  58 H58            0.6393    -0.2103     7.9861 H       
  59 H59            2.2892    -0.4798     8.5973 H       
  60 H60            2.0274    -0.1056     6.8769 H       
@<TRIPOS>BOND
   1    1    2 2
   2    1    3 1
   3    2    5 1
   4    3    4 1
   5    3   31 1
   6    3   35 1
   7    4    5 1
   8    4   11 1
   9    5    6 1
  10    5   36 1
  11    6    7 1
  12    7    8 1
  13    7   37 1
  14    7   38 1
  15    8    9 2
  16    8   10 am
  17   10   12 1
  18   10   39 1
  19   11   21 ar
  20   11   22 ar
  21   12   13 ar
  22   12   17 ar
  23   13   14 ar
  24   13   34 1
  25   14   15 ar
  26   14   40 1
  27   15   16 ar
  28   15   18 1
  29   16   17 ar
  30   16   41 1
  31   17   42 1
  32   18   19 1
  33   18   20 2
  34   19   43 1
  35   21   25 ar
  36   21   29 1
  37   22   23 ar
  38   22   44 1
  39   23   24 ar
  40   23   45 1
  41   24   25 ar
  42   24   30 1
  43   25   26 1
  44   26   27 1
  45   26   46 1
  46   26   47 1
  47   27   28 1
  48   27   48 1
  49   27   49 1
  50   28   29 1
  51   28   50 1
  52   28   51 1
  53   29   52 1
  54   29   53 1
  55   30   54 1
  56   30   55 1
  57   30   56 1
  58   31   32 1
  59   31   33 1
  60   31   57 1
  61   34   58 1
  62   34   59 1
  63   34   60 1

#	End of record

