#	Name: ASD00310147
#	Creating user name:	WinNT
#	Creation time:	15. 06. 2019 18:33

#	Modifying user name:	WinNT
#	Modification time:	15. 06. 2019 18:33

#	Program:	/corina/corina34_cracker 3.40 0067  02.08.2006

@<TRIPOS>MOLECULE
ASD00310147
  37   40    0    0    0
SMALL
NO_CHARGES


@<TRIPOS>ATOM
   1 N1            -0.0871     1.8143     0.1965 N.pl3   
   2 C2            -0.4185     2.7543     1.1135 C.2     
   3 C3             0.7050     3.4012     1.5385 C.2     
   4 C4             1.8358     2.7965     0.8086 C.ar    
   5 C5             3.2082     3.0180     0.8035 C.ar    
   6 C6             4.0235     2.2549    -0.0242 C.ar    
   7 C7             3.4614     1.2708    -0.8463 C.ar    
   8 C8             2.1032     1.0508    -0.8426 C.ar    
   9 C9             1.2753     1.8078    -0.0173 C.ar    
  10 C10            0.7749     4.4842     2.5261 C.2     
  11 O11            1.8491     4.9756     2.8145 O.2     
  12 O12           -0.3521     4.9346     3.1138 O.3     
  13 C13            5.4876     2.4833    -0.0370 C.ar    
  14 C14            5.9909     3.7816    -0.1402 C.ar    
  15 N15            6.3227     1.4518     0.0554 N.ar    
  16 N16            7.2932     3.9846    -0.1511 N.ar    
  17 C17            8.1282     2.9523    -0.0637 C.ar    
  18 C18            7.6256     1.6554     0.0445 C.ar    
  19 C19            9.5930     3.1808    -0.0764 C.ar    
  20 C20           10.0983     4.4760    -0.1799 C.ar    
  21 C21           11.4627     4.6826    -0.1907 C.ar    
  22 C22           12.3285     3.6075    -0.0997 C.ar    
  23 C23           11.8329     2.3201     0.0027 C.ar    
  24 C24           10.4704     2.1018     0.0208 C.ar    
  25 Cl25           4.4853     0.3218    -1.8780 Cl      
  26 H26           -0.7189     1.2254    -0.2449 H       
  27 H27           -1.4216     2.9609     1.4565 H       
  28 H28            3.6383     3.7785     1.4384 H       
  29 H29            1.6785     0.2897    -1.4804 H       
  30 H30           -0.2558     5.6493     3.7579 H       
  31 H31            5.3132     4.6195    -0.2115 H       
  32 H32            8.3035     0.8180     0.1196 H       
  33 H33            9.4233     5.3160    -0.2517 H       
  34 H34           11.8553     5.6855    -0.2708 H       
  35 H35           13.3956     3.7740    -0.1090 H       
  36 H36           12.5136     1.4845     0.0727 H       
  37 H37           10.0846     1.0966     0.1056 H       
@<TRIPOS>BOND
   1    1    2 1
   2    1    9 1
   3    1   26 1
   4    2    3 2
   5    2   27 1
   6    3    4 1
   7    3   10 1
   8    4    5 ar
   9    4    9 ar
  10    5    6 ar
  11    5   28 1
  12    6    7 ar
  13    6   13 1
  14    7    8 ar
  15    7   25 1
  16    8    9 ar
  17    8   29 1
  18   10   11 2
  19   10   12 1
  20   12   30 1
  21   13   14 ar
  22   13   15 ar
  23   14   16 ar
  24   14   31 1
  25   15   18 ar
  26   16   17 ar
  27   17   18 ar
  28   17   19 1
  29   18   32 1
  30   19   20 ar
  31   19   24 ar
  32   20   21 ar
  33   20   33 1
  34   21   22 ar
  35   21   34 1
  36   22   23 ar
  37   22   35 1
  38   23   24 ar
  39   23   36 1
  40   24   37 1

#	End of record

