#	Name: ASD01440122
#	Creating user name:	WinNT
#	Creation time:	15. 06. 2019 19:21

#	Modifying user name:	WinNT
#	Modification time:	15. 06. 2019 19:21

#	Program:	/corina/corina34_cracker 3.40 0067  02.08.2006

@<TRIPOS>MOLECULE
ASD01440122
  44   46    0    0    0
SMALL
NO_CHARGES


@<TRIPOS>ATOM
   1 C1             0.2350     1.5022     0.1010 C.ar    
   2 C2             0.2045     0.1285     0.1841 C.ar    
   3 C3             1.3913    -0.5921     0.2584 C.ar    
   4 C4             2.6136     0.0707     0.2492 C.ar    
   5 C5             2.6534     1.4441     0.1659 C.ar    
   6 C6             1.4621     2.1729     0.0909 C.ar    
   7 C7             1.4999     3.6446     0.0015 C.2     
   8 O8             0.4698     4.2706    -0.1590 O.2     
   9 C9             2.7890     4.3582     0.1070 C.ar    
  10 O10            1.3566    -1.9461     0.3407 O.3     
  11 C11            2.6124    -2.6240     0.4141 C.3     
  12 C12            2.3769    -4.1100     0.4994 C.2     
  13 N13            3.4240    -4.9549     0.5778 N.am    
  14 O14            1.2450    -4.5457     0.4975 O.2     
  15 C15            3.3970     4.8819    -1.0366 C.ar    
  16 C16            4.6003     5.5467    -0.9309 C.ar    
  17 C17            5.2068     5.6960     0.3046 C.ar    
  18 C18            4.6115     5.1806     1.4416 C.ar    
  19 C19            3.4034     4.5177     1.3520 C.ar    
  20 Br20           2.5868     3.8205     2.9086 Br      
  21 C21            3.2054    -6.3256     0.7564 C.ar    
  22 C22            2.1046    -6.9476     0.1722 C.ar    
  23 C23            1.9310    -8.3063     0.3772 C.ar    
  24 C24            2.8484    -8.9955     1.1488 C.ar    
  25 N25            3.8805    -8.3770     1.6881 N.ar    
  26 C26            4.0858    -7.0866     1.5137 C.ar    
  27 C27            2.6660   -10.4739     1.3767 C.3     
  28 H28           -0.6872     2.0609     0.0392 H       
  29 H29           -0.7427    -0.3903     0.1920 H       
  30 H30            3.5330    -0.4928     0.3078 H       
  31 H31            3.6032     1.9582     0.1591 H       
  32 H32            3.1991    -2.3996    -0.4767 H       
  33 H33            3.1541    -2.2906     1.2993 H       
  34 H34            4.3293    -4.6129     0.5105 H       
  35 H35            2.9258     4.7658    -2.0014 H       
  36 H36            5.0711     5.9519    -1.8144 H       
  37 H37            6.1496     6.2172     0.3809 H       
  38 H38            5.0904     5.3004     2.4022 H       
  39 H39            1.4034    -6.3842    -0.4257 H       
  40 H40            1.0886    -8.8215    -0.0602 H       
  41 H41            4.9452    -6.6158     1.9677 H       
  42 H42            3.1795   -11.0287     0.5915 H       
  43 H43            3.0830   -10.7462     2.3463 H       
  44 H44            1.6034   -10.7161     1.3573 H       
@<TRIPOS>BOND
   1    1    2 ar
   2    1    6 ar
   3    1   28 1
   4    2    3 ar
   5    2   29 1
   6    3    4 ar
   7    3   10 1
   8    4    5 ar
   9    4   30 1
  10    5    6 ar
  11    5   31 1
  12    6    7 1
  13    7    8 2
  14    7    9 1
  15    9   15 ar
  16    9   19 ar
  17   10   11 1
  18   11   12 1
  19   11   32 1
  20   11   33 1
  21   12   13 am
  22   12   14 2
  23   13   21 1
  24   13   34 1
  25   15   16 ar
  26   15   35 1
  27   16   17 ar
  28   16   36 1
  29   17   18 ar
  30   17   37 1
  31   18   19 ar
  32   18   38 1
  33   19   20 1
  34   21   22 ar
  35   21   26 ar
  36   22   23 ar
  37   22   39 1
  38   23   24 ar
  39   23   40 1
  40   24   25 ar
  41   24   27 1
  42   25   26 ar
  43   26   41 1
  44   27   42 1
  45   27   43 1
  46   27   44 1

#	End of record

