#	Name: ASD01903258
#	Creating user name:	WinNT
#	Creation time:	15. 06. 2019 19:54

#	Modifying user name:	WinNT
#	Modification time:	15. 06. 2019 19:54

#	Program:	/corina/corina34_cracker 3.40 0067  02.08.2006

@<TRIPOS>MOLECULE
ASD01903258
  39   42    0    0    0
SMALL
NO_CHARGES


@<TRIPOS>ATOM
   1 C1             0.0313     1.3112     0.0785 C.ar    
   2 C2            -1.0993     1.6199    -0.6604 C.ar    
   3 C3            -1.0989     2.7502    -1.4632 C.ar    
   4 C4             0.0419     3.5362    -1.4974 C.ar    
   5 C5             1.1426     3.1653    -0.7280 C.ar    
   6 N6             1.1010     2.0748     0.0275 N.ar    
   7 C7             2.3696     3.9948    -0.7534 C.2     
   8 O8             2.4132     4.9943    -1.4435 O.2     
   9 N9             3.4376     3.6411    -0.0113 N.am    
  10 C10            4.6295     4.3682    -0.1092 C.ar    
  11 C11            4.5905     5.7429    -0.3045 C.ar    
  12 C12            5.7662     6.4598    -0.4005 C.ar    
  13 C13            6.9876     5.8070    -0.3019 C.ar    
  14 C14            7.0269     4.4329    -0.1066 C.ar    
  15 C15            5.8515     3.7162    -0.0053 C.ar    
  16 N16            8.1823     6.5351    -0.4053 N.am    
  17 C17            8.2490     7.8653    -0.5943 C.2     
  18 C18            9.6717     8.2623    -0.6508 C.ar    
  19 C19           10.4107     7.0737    -0.4819 C.ar    
  20 C20            9.4119     5.9957    -0.3229 C.2     
  21 O21            7.2992     8.6147    -0.7008 O.2     
  22 O22            9.6599     4.8190    -0.1534 O.2     
  23 C23           10.3342     9.4671    -0.8216 C.ar    
  24 C24           11.7202     9.4948    -0.8252 C.ar    
  25 C25           12.4447     8.3294    -0.6596 C.ar    
  26 C26           11.7956     7.1167    -0.4877 C.ar    
  27 H27            0.0327     0.4339     0.7085 H       
  28 H28           -1.9724     0.9861    -0.6117 H       
  29 H29           -1.9677     3.0119    -2.0489 H       
  30 H30            0.0773     4.4236    -2.1120 H       
  31 H31            3.3803     2.8826     0.5906 H       
  32 H32            3.6405     6.2507    -0.3816 H       
  33 H33            5.7359     7.5286    -0.5527 H       
  34 H34            7.9771     3.9253    -0.0303 H       
  35 H35            5.8821     2.6474     0.1465 H       
  36 H36            9.7732    10.3808    -0.9518 H       
  37 H37           12.2374    10.4334    -0.9586 H       
  38 H38           13.5242     8.3638    -0.6642 H       
  39 H39           12.3668     6.2092    -0.3589 H       
@<TRIPOS>BOND
   1    1    2 ar
   2    1    6 ar
   3    1   27 1
   4    2    3 ar
   5    2   28 1
   6    3    4 ar
   7    3   29 1
   8    4    5 ar
   9    4   30 1
  10    5    6 ar
  11    5    7 1
  12    7    8 2
  13    7    9 am
  14    9   10 1
  15    9   31 1
  16   10   11 ar
  17   10   15 ar
  18   11   12 ar
  19   11   32 1
  20   12   13 ar
  21   12   33 1
  22   13   14 ar
  23   13   16 1
  24   14   15 ar
  25   14   34 1
  26   15   35 1
  27   16   17 am
  28   16   20 am
  29   17   18 1
  30   17   21 2
  31   18   19 ar
  32   18   23 ar
  33   19   20 1
  34   19   26 ar
  35   20   22 2
  36   23   24 ar
  37   23   36 1
  38   24   25 ar
  39   24   37 1
  40   25   26 ar
  41   25   38 1
  42   26   39 1

#	End of record

