#	Name: ASD01910852
#	Creating user name:	WinNT
#	Creation time:	15. 06. 2019 19:56

#	Modifying user name:	WinNT
#	Modification time:	15. 06. 2019 19:56

#	Program:	/corina/corina34_cracker 3.40 0067  02.08.2006

@<TRIPOS>MOLECULE
ASD01910852
  53   56    0    0    0
SMALL
NO_CHARGES


@<TRIPOS>ATOM
   1 C1            -0.0168     1.3842     0.0097 C.ar    
   2 C2             0.0021    -0.0041     0.0020 C.ar    
   3 C3             1.2266    -0.6477    -0.0131 C.ar    
   4 C4             2.3908     0.1134    -0.0202 C.ar    
   5 N5             2.3311     1.4363    -0.0120 N.ar    
   6 C6             1.1776     2.0767     0.0020 C.ar    
   7 N7             3.6279    -0.5202    -0.0354 N.3     
   8 C8             4.7216     0.4605    -0.0406 C.3     
   9 C9             6.0587    -0.2697     0.1253 C.3     
  10 N10            6.1531    -1.3121    -0.9080 N.am    
  11 C11            5.0298    -2.2501    -1.0549 C.3     
  12 C12            3.7333    -1.4420    -1.1743 C.3     
  13 S13            7.4886    -1.4262    -1.8805 S.o2    
  14 C14            8.6304    -2.4993    -1.0747 C.ar    
  15 C15            8.5893    -3.8601    -1.3194 C.ar    
  16 C16            9.4821    -4.7095    -0.6903 C.ar    
  17 C17           10.4202    -4.2033     0.1854 C.ar    
  18 C18           10.4673    -2.8313     0.4363 C.ar    
  19 C19            9.5676    -1.9796    -0.2052 C.ar    
  20 C20           11.4386    -2.2993     1.3442 C.1     
  21 C21           12.2348    -1.8631     2.0885 C.1     
  22 C22           13.2332    -1.3162     3.0217 C.3     
  23 O23            7.0696    -2.0989    -3.0600 O.2     
  24 O24            8.0880    -0.1379    -1.8919 O.2     
  25 C25           13.0699     0.1791     3.1125 C.ar    
  26 C26           12.2246     0.7259     4.0598 C.ar    
  27 C27           12.0747     2.0976     4.1430 C.ar    
  28 C28           12.7706     2.9225     3.2792 C.ar    
  29 C29           13.6166     2.3758     2.3325 C.ar    
  30 C30           13.7697     1.0043     2.2521 C.ar    
  31 H31           -0.9562     1.9169     0.0170 H       
  32 H32           -0.9185    -0.5688     0.0081 H       
  33 H33            1.2778    -1.7264    -0.0191 H       
  34 H34            1.1676     3.1567     0.0082 H       
  35 H35            4.7186     1.0037    -0.9855 H       
  36 H36            4.5854     1.1615     0.7829 H       
  37 H37            6.8793     0.4380     0.0077 H       
  38 H38            6.1055    -0.7280     1.1132 H       
  39 H39            5.1703    -2.8518    -1.9528 H       
  40 H40            4.9777    -2.8988    -0.1805 H       
  41 H41            2.8803    -2.1206    -1.1731 H       
  42 H42            3.7441    -0.8723    -2.1035 H       
  43 H43            7.8568    -4.2613    -2.0041 H       
  44 H44            9.4443    -5.7711    -0.8850 H       
  45 H45           11.1163    -4.8674     0.6761 H       
  46 H46            9.5990    -0.9169    -0.0154 H       
  47 H47           13.0892    -1.7580     4.0078 H       
  48 H48           14.2347    -1.5511     2.6611 H       
  49 H49           11.6809     0.0814     4.7347 H       
  50 H50           11.4138     2.5247     4.8827 H       
  51 H51           12.6530     3.9942     3.3438 H       
  52 H52           14.1600     3.0203     1.6574 H       
  53 H53           14.4307     0.5772     1.5125 H       
@<TRIPOS>BOND
   1    1    2 ar
   2    1    6 ar
   3    1   31 1
   4    2    3 ar
   5    2   32 1
   6    3    4 ar
   7    3   33 1
   8    4    5 ar
   9    4    7 1
  10    5    6 ar
  11    6   34 1
  12    7    8 1
  13    7   12 1
  14    8    9 1
  15    8   35 1
  16    8   36 1
  17    9   10 1
  18    9   37 1
  19    9   38 1
  20   10   11 1
  21   10   13 am
  22   11   12 1
  23   11   39 1
  24   11   40 1
  25   12   41 1
  26   12   42 1
  27   13   14 1
  28   13   23 2
  29   13   24 2
  30   14   15 ar
  31   14   19 ar
  32   15   16 ar
  33   15   43 1
  34   16   17 ar
  35   16   44 1
  36   17   18 ar
  37   17   45 1
  38   18   19 ar
  39   18   20 1
  40   19   46 1
  41   20   21 3
  42   21   22 1
  43   22   25 1
  44   22   47 1
  45   22   48 1
  46   25   26 ar
  47   25   30 ar
  48   26   27 ar
  49   26   49 1
  50   27   28 ar
  51   27   50 1
  52   28   29 ar
  53   28   51 1
  54   29   30 ar
  55   29   52 1
  56   30   53 1

#	End of record

