#	Name: ASD03330824
#	Creating user name:	WinNT
#	Creation time:	15. 06. 2019 20:38

#	Modifying user name:	WinNT
#	Modification time:	15. 06. 2019 20:38

#	Program:	/corina/corina34_cracker 3.40 0067  02.08.2006

@<TRIPOS>MOLECULE
ASD03330824
  63   65    0    0    0
SMALL
NO_CHARGES


@<TRIPOS>ATOM
   1 C1            -0.2642     1.1421     0.9534 C.2     
   2 N2            -0.2889    -0.1942     1.1689 N.pl3   
   3 C3             1.0416     1.5295     0.9790 C.2     
   4 N4             1.7937     0.4277     1.1913 N.2     
   5 C5             1.0026    -0.6136     1.3008 C.2     
   6 C6             1.4384    -2.0090     1.5295 C.ar    
   7 C7             1.5437     2.9041     0.8058 C.2     
   8 O8             0.7629     3.8177     0.6194 O.2     
   9 N9             2.8682     3.1488     0.8539 N.am    
  10 C10           -1.4971    -1.0192     1.2558 C.3     
  11 C11           -2.4269    -0.6741     0.0884 C.3     
  12 C12           -3.3323     0.4902     0.4778 C.3     
  13 N13           -2.6376     1.4200     1.3708 N.3     
  14 C14           -1.4665     2.0178     0.7127 C.3     
  15 C15            0.6070    -2.8999     2.2083 C.ar    
  16 C16            1.0186    -4.2002     2.4189 C.ar    
  17 C17            2.2529    -4.6213     1.9586 C.ar    
  18 C18            3.0836    -3.7420     1.2844 C.ar    
  19 C19            2.6802    -2.4404     1.0622 C.ar    
  20 C20            3.3674     4.5153     0.6817 C.3     
  21 C21            4.7085     4.6489     1.3559 C.2     
  22 C22            3.5139     4.8205    -0.8104 C.3     
  23 C23            2.1336     4.8129    -1.4704 C.3     
  24 C24            4.1569     6.1973    -0.9886 C.3     
  25 C25            4.3977     3.7564    -1.4641 C.3     
  26 O26            5.3024     3.6585     1.7263 O.2     
  27 N27            5.2480     5.8691     1.5471 N.am    
  28 C28            6.5832     5.9954     2.1368 C.3     
  29 C29           -3.5519     2.4588     1.8637 C.3     
  30 Cl30           4.6315    -4.2795     0.7108 Cl      
  31 C31            2.6959    -6.0427     2.1922 C.3     
  32 F32            1.6982    -6.7338     2.8880 F       
  33 F33            2.9248    -6.6679     0.9618 F       
  34 F34            3.8760    -6.0459     2.9435 F       
  35 H35            3.4910     2.4201     1.0026 H       
  36 H36           -1.2231    -2.0730     1.2039 H       
  37 H37           -2.0068    -0.8205     2.1985 H       
  38 H38           -1.8302    -0.3947    -0.7799 H       
  39 H39           -3.0383    -1.5425    -0.1571 H       
  40 H40           -3.6397     1.0213    -0.4230 H       
  41 H41           -4.2168     0.1022     0.9830 H       
  42 H42           -1.2833     3.0098     1.1258 H       
  43 H43           -1.6513     2.0966    -0.3586 H       
  44 H44           -0.3571    -2.5726     2.5687 H       
  45 H45            0.3755    -4.8904     2.9446 H       
  46 H46            3.3285    -1.7551     0.5364 H       
  47 H47            2.6643     5.2180     1.1290 H       
  48 H48            1.5040     5.5710    -1.0047 H       
  49 H49            2.2381     5.0304    -2.5334 H       
  50 H50            1.6756     3.8321    -1.3435 H       
  51 H51            5.1269     6.2124    -0.4916 H       
  52 H52            4.2898     6.4015    -2.0510 H       
  53 H53            3.5122     6.9590    -0.5500 H       
  54 H54            3.9396     2.7755    -1.3372 H       
  55 H55            4.5021     3.9738    -2.5271 H       
  56 H56            5.3811     3.7618    -0.9939 H       
  57 H57            4.7523     6.6636     1.2943 H       
  58 H58            6.5852     5.5479     3.1307 H       
  59 H59            7.3090     5.4825     1.5059 H       
  60 H60            6.8486     7.0499     2.2126 H       
  61 H61           -4.3699     1.9922     2.4126 H       
  62 H62           -3.0104     3.1357     2.5244 H       
  63 H63           -3.9539     3.0193     1.0196 H       
@<TRIPOS>BOND
   1    1    2 1
   2    1    3 2
   3    1   14 1
   4    2   10 1
   5    2    5 1
   6    3    4 1
   7    3    7 1
   8    4    5 2
   9    5    6 1
  10    6   15 ar
  11    6   19 ar
  12    7    8 2
  13    7    9 am
  14    9   20 1
  15    9   35 1
  16   10   11 1
  17   10   36 1
  18   10   37 1
  19   11   12 1
  20   11   38 1
  21   11   39 1
  22   12   13 1
  23   12   40 1
  24   12   41 1
  25   13   14 1
  26   13   29 1
  27   14   42 1
  28   14   43 1
  29   15   16 ar
  30   15   44 1
  31   16   17 ar
  32   16   45 1
  33   17   18 ar
  34   17   31 1
  35   18   19 ar
  36   18   30 1
  37   19   46 1
  38   20   21 1
  39   20   22 1
  40   20   47 1
  41   21   26 2
  42   21   27 am
  43   22   23 1
  44   22   24 1
  45   22   25 1
  46   23   48 1
  47   23   49 1
  48   23   50 1
  49   24   51 1
  50   24   52 1
  51   24   53 1
  52   25   54 1
  53   25   55 1
  54   25   56 1
  55   27   28 1
  56   27   57 1
  57   28   58 1
  58   28   59 1
  59   28   60 1
  60   29   61 1
  61   29   62 1
  62   29   63 1
  63   31   32 1
  64   31   33 1
  65   31   34 1

#	End of record

