#	Name: ASD09800067
#	Creating user name:	WinNT
#	Creation time:	15. 06. 2019 21:24

#	Modifying user name:	WinNT
#	Modification time:	15. 06. 2019 21:24

#	Program:	/corina/corina34_cracker 3.40 0067  02.08.2006

@<TRIPOS>MOLECULE
ASD09800067
  35   37    0    0    0
SMALL
NO_CHARGES


@<TRIPOS>ATOM
   1 C1             0.4090     1.5902     0.4812 C.ar    
   2 C2             0.7092     0.2749     0.7693 C.ar    
   3 C3             2.0262    -0.1191     0.9257 C.ar    
   4 C4             3.0509     0.8020     0.7947 C.ar    
   5 C5             2.7649     2.1200     0.5064 C.ar    
   6 C6             1.4377     2.5244     0.3472 C.ar    
   7 C7             1.1235     3.9358     0.0381 C.2     
   8 C8             1.2856     4.5674    -1.1676 C.2     
   9 C9             0.8315     5.9650    -0.9694 C.2     
  10 N10            0.4302     6.1038     0.3063 N.am    
  11 C11            0.5680     4.9399     0.9645 C.2     
  12 N12            1.7735     4.0143    -2.3311 N.pl3   
  13 C13            2.8883     4.5762    -2.9577 C.ar    
  14 C14            3.6034     5.5882    -2.3282 C.ar    
  15 C15            3.2864     4.1200    -4.2084 C.ar    
  16 C16            4.3892     4.6767    -4.8270 C.ar    
  17 C17            5.0990     5.6914    -4.1992 C.ar    
  18 C18            4.7051     6.1432    -2.9480 C.ar    
  19 O19            6.1843     6.2390    -4.8086 O.3     
  20 Cl20           4.8877     4.1070    -6.3892 Cl      
  21 O21            0.8237     6.8360    -1.8152 O.2     
  22 O22            0.2846     4.7477     2.1303 O.2     
  23 N23           -1.0004     2.0088     0.3086 N.pl3   
  24 O24           -1.8965     1.1916     0.4209 O.2     
  25 O25           -1.2639     3.1705     0.0543 O.2     
  26 H26           -0.0857    -0.4489     0.8732 H       
  27 H27            2.2557    -1.1500     1.1515 H       
  28 H28            4.0768     0.4880     0.9187 H       
  29 H29            3.5653     2.8378     0.4047 H       
  30 H30            0.0867     6.9238     0.6943 H       
  31 H31            1.3429     3.2346    -2.7153 H       
  32 H32            3.2970     5.9405    -1.3543 H       
  33 H33            2.7343     3.3304    -4.6964 H       
  34 H34            5.2606     6.9295    -2.4586 H       
  35 H35            5.9785     6.9991    -5.3698 H       
@<TRIPOS>BOND
   1    1    2 ar
   2    1    6 ar
   3    1   23 1
   4    2    3 ar
   5    2   26 1
   6    3    4 ar
   7    3   27 1
   8    4    5 ar
   9    4   28 1
  10    5    6 ar
  11    5   29 1
  12    6    7 1
  13    7    8 2
  14    7   11 1
  15    8    9 1
  16    8   12 1
  17    9   10 am
  18    9   21 2
  19   10   11 am
  20   10   30 1
  21   11   22 2
  22   12   13 1
  23   12   31 1
  24   13   15 ar
  25   13   14 ar
  26   14   18 ar
  27   14   32 1
  28   15   16 ar
  29   15   33 1
  30   16   17 ar
  31   16   20 1
  32   17   18 ar
  33   17   19 1
  34   18   34 1
  35   19   35 1
  36   23   24 2
  37   23   25 2

#	End of record

