#	Name: ASD01680121
#	Creating user name:	WinNT
#	Creation time:	15. 06. 2019 19:22

#	Modifying user name:	WinNT
#	Modification time:	15. 06. 2019 19:22

#	Program:	/corina/corina34_cracker 3.40 0067  02.08.2006

@<TRIPOS>MOLECULE
ASD01680121
  91   94    0    0    0
SMALL
NO_CHARGES


@<TRIPOS>ATOM
   1 N1            -0.4973    -1.5695    -2.3231 N.am    
   2 C2            -0.2137    -2.9365    -2.7966 C.3     
   3 C3             1.0718    -3.3587    -2.0423 C.3     
   4 C4             1.8656    -2.0260    -2.0095 C.3     
   5 C5             0.7557    -0.9664    -1.8456 C.3     
   6 C6            -1.7043    -0.9698    -2.3318 C.2     
   7 O7            -2.6547    -1.5247    -2.8469 O.2     
   8 O8            -1.8569     0.2442    -1.7699 O.3     
   9 C9            -1.3705    -3.8733    -2.4429 C.3     
  10 N10           -1.7122    -3.7144    -1.0272 N.pl3   
  11 C11           -2.7985    -4.3980    -0.4935 C.ar    
  12 C12           -3.5571    -5.2316    -1.3094 C.ar    
  13 C13           -4.6351    -5.9057    -0.7652 C.ar    
  14 C14           -4.9197    -5.7231     0.5818 C.ar    
  15 C15           -4.1248    -4.8808     1.3326 C.ar    
  16 N16           -3.0988    -4.2544     0.7879 N.ar    
  17 O17            2.7601    -1.9976    -0.8954 O.3     
  18 C18            3.9417    -1.2254    -1.1183 C.3     
  19 C19            4.8075    -1.2649     0.1146 C.2     
  20 N20            5.9813    -0.6028     0.1352 N.am    
  21 O21            4.4481    -1.8925     1.0882 O.2     
  22 C22            6.8230    -0.6411     1.3337 C.3     
  23 C23            8.0881     0.1856     1.0951 C.3     
  24 N24            7.7151     1.5421     0.6864 N.am    
  25 S25            8.6459     2.3616    -0.4111 S.o2    
  26 O26            8.0096     3.6147    -0.6205 O.2     
  27 O27            9.9906     2.2370     0.0309 O.2     
  28 C28            8.5413     1.4890    -1.9383 C.ar    
  29 C29            9.4341     0.4705    -2.2150 C.ar    
  30 C30            9.3520    -0.2140    -3.4132 C.ar    
  31 C31            8.3770     0.1198    -4.3345 C.ar    
  32 C32            7.4837     1.1377    -4.0574 C.ar    
  33 C33            7.5630     1.8193    -2.8574 C.ar    
  34 C34            6.5859     2.9256    -2.5532 C.3     
  35 C35            8.2882    -0.6258    -5.6411 C.3     
  36 C36           10.4970     0.1067    -1.2106 C.3     
  37 C37            8.8946     0.2479     2.3665 C.2     
  38 O38            9.1334     1.3159     2.8787 O.2     
  39 O39            9.3478    -0.8830     2.9300 O.3     
  40 C40           10.1177    -0.7473     4.1535 C.3     
  41 C41           10.5449    -2.1323     4.6436 C.3     
  42 C42           -3.1848     0.8298    -1.8163 C.3     
  43 C43           -3.1629     2.1782    -1.1437 C.ar    
  44 C44           -2.8880     3.3143    -1.8817 C.ar    
  45 C45           -2.8679     4.5512    -1.2647 C.ar    
  46 C46           -3.1231     4.6520     0.0901 C.ar    
  47 C47           -3.3988     3.5160     0.8279 C.ar    
  48 C48           -3.4232     2.2796     0.2101 C.ar    
  49 H49           -0.0395    -2.9368    -3.8726 H       
  50 H50            0.8388    -3.6995    -1.0335 H       
  51 H51            1.6159    -4.1240    -2.5956 H       
  52 H52            2.4068    -1.8763    -2.9438 H       
  53 H53            0.9935    -0.0852    -2.4414 H       
  54 H54            0.6580    -0.6912    -0.7955 H       
  55 H55           -2.2377    -3.6272    -3.0558 H       
  56 H56           -1.0733    -4.9049    -2.6314 H       
  57 H57           -1.1805    -3.1322    -0.4623 H       
  58 H58           -3.3077    -5.3503    -2.3534 H       
  59 H59           -5.2422    -6.5592    -1.3742 H       
  60 H60           -5.7548    -6.2347     1.0371 H       
  61 H61           -4.3426    -4.7360     2.3805 H       
  62 H62            4.4927    -1.6398    -1.9626 H       
  63 H63            3.6658    -0.1936    -1.3356 H       
  64 H64            6.2687    -0.1009    -0.6435 H       
  65 H65            6.2720    -0.2268     2.1780 H       
  66 H66            7.0988    -1.6730     1.5510 H       
  67 H67            8.6834    -0.2798     0.3095 H       
  68 H68            6.9230     1.9602     1.0586 H       
  69 H69           10.0500    -1.0092    -3.6296 H       
  70 H70            6.7222     1.3987    -4.7774 H       
  71 H71            7.0456     3.8881    -2.7773 H       
  72 H72            5.6920     2.7989    -3.1638 H       
  73 H73            6.3135     2.8898    -1.4984 H       
  74 H74            7.6272    -1.4846    -5.5252 H       
  75 H75            7.8921     0.0364    -6.4111 H       
  76 H76            9.2812    -0.9683    -5.9322 H       
  77 H77           10.0645    -0.5290    -0.4380 H       
  78 H78           11.3031    -0.4286    -1.7124 H       
  79 H79           10.8923     1.0146    -0.7549 H       
  80 H80           11.0028    -0.1412     3.9605 H       
  81 H81            9.5062    -0.2648     4.9160 H       
  82 H82            9.6598    -2.7384     4.8366 H       
  83 H83           11.1564    -2.6148     3.8811 H       
  84 H84           11.1229    -2.0304     5.5621 H       
  85 H85           -3.4942     0.9468    -2.8549 H       
  86 H86           -3.8880     0.1771    -1.2990 H       
  87 H87           -2.6886     3.2355    -2.9402 H       
  88 H88           -2.6524     5.4387    -1.8411 H       
  89 H89           -3.1066     5.6182     0.5723 H       
  90 H90           -3.5979     3.5947     1.8865 H       
  91 H91           -3.6423     1.3925     0.7858 H       
@<TRIPOS>BOND
   1    1    2 1
   2    1    5 1
   3    1    6 am
   4    2    3 1
   5    2    9 1
   6    2   49 1
   7    3    4 1
   8    3   50 1
   9    3   51 1
  10    4    5 1
  11    4   17 1
  12    4   52 1
  13    5   53 1
  14    5   54 1
  15    6    7 2
  16    6    8 1
  17    8   42 1
  18    9   10 1
  19    9   55 1
  20    9   56 1
  21   10   11 1
  22   10   57 1
  23   11   12 ar
  24   11   16 ar
  25   12   13 ar
  26   12   58 1
  27   13   14 ar
  28   13   59 1
  29   14   15 ar
  30   14   60 1
  31   15   16 ar
  32   15   61 1
  33   17   18 1
  34   18   19 1
  35   18   62 1
  36   18   63 1
  37   19   20 am
  38   19   21 2
  39   20   22 1
  40   20   64 1
  41   22   23 1
  42   22   65 1
  43   22   66 1
  44   23   24 1
  45   23   37 1
  46   23   67 1
  47   24   25 am
  48   24   68 1
  49   25   26 2
  50   25   27 2
  51   25   28 1
  52   28   29 ar
  53   28   33 ar
  54   29   30 ar
  55   29   36 1
  56   30   31 ar
  57   30   69 1
  58   31   32 ar
  59   31   35 1
  60   32   33 ar
  61   32   70 1
  62   33   34 1
  63   34   71 1
  64   34   72 1
  65   34   73 1
  66   35   74 1
  67   35   75 1
  68   35   76 1
  69   36   77 1
  70   36   78 1
  71   36   79 1
  72   37   38 2
  73   37   39 1
  74   39   40 1
  75   40   41 1
  76   40   80 1
  77   40   81 1
  78   41   82 1
  79   41   83 1
  80   41   84 1
  81   42   43 1
  82   42   85 1
  83   42   86 1
  84   43   44 ar
  85   43   48 ar
  86   44   45 ar
  87   44   87 1
  88   45   46 ar
  89   45   88 1
  90   46   47 ar
  91   46   89 1
  92   47   48 ar
  93   47   90 1
  94   48   91 1

#	End of record

