#	Name: ASD01913567
#	Creating user name:	WinNT
#	Creation time:	15. 06. 2019 20:01

#	Modifying user name:	WinNT
#	Modification time:	15. 06. 2019 20:01

#	Program:	/corina/corina34_cracker 3.40 0067  02.08.2006

@<TRIPOS>MOLECULE
ASD01913567
  37   39    0    0    0
SMALL
NO_CHARGES


@<TRIPOS>ATOM
   1 C1            -0.5546     1.3707    -1.0130 C.ar    
   2 C2            -0.5215    -0.0215    -0.9887 C.ar    
   3 C3             0.1935    -0.6814    -1.9854 C.ar    
   4 N4             0.8106     0.0328    -2.9119 N.ar    
   5 C5             0.7550     1.3495    -2.9000 C.ar    
   6 N6             0.0893     2.0109    -1.9746 N.ar    
   7 C7            -1.2405    -2.1280    -0.0476 C.ar    
   8 C8            -0.2662    -2.9062     0.5757 C.ar    
   9 C9            -0.3531    -4.2842     0.5028 C.ar    
  10 N10           -1.3391    -4.8679    -0.1449 N.ar    
  11 C11           -2.2897    -4.1668    -0.7538 C.ar    
  12 C12           -2.2725    -2.7769    -0.7255 C.ar    
  13 C13           -3.3774    -4.8727    -1.4697 C.2     
  14 N14           -3.3999    -6.2199    -1.5015 N.am    
  15 N15           -1.1879    -0.7377     0.0099 N.pl3   
  16 O16           -4.2495    -4.2370    -2.0285 O.2     
  17 C17           -4.4198    -6.8817    -2.1727 C.2     
  18 S18           -5.7058    -6.1163    -2.9995 S.3     
  19 C19           -6.3660    -7.6869    -3.4480 C.2     
  20 C20           -5.5696    -8.6305    -2.9418 C.2     
  21 N21           -4.5323    -8.1697    -2.2683 N.2     
  22 C22           -1.8309    -0.0255     1.1169 C.3     
  23 C23           -5.8301   -10.1029    -3.1293 C.3     
  24 H24           -1.1018     1.9190    -0.2605 H       
  25 H25            0.2437    -1.7601    -2.0011 H       
  26 H26            1.2704     1.9028    -3.6711 H       
  27 H27            0.5476    -2.4379     1.1093 H       
  28 H28            0.3996    -4.8908     0.9843 H       
  29 H29           -3.0460    -2.2086    -1.2206 H       
  30 H30           -2.7038    -6.7272    -1.0555 H       
  31 H31           -7.2595    -7.8564    -4.0307 H       
  32 H32           -2.8618     0.2065     0.8497 H       
  33 H33           -1.8190    -0.6528     2.0082 H       
  34 H34           -1.2903     0.8997     1.3166 H       
  35 H35           -5.3328   -10.4473    -4.0360 H       
  36 H36           -5.4429   -10.6525    -2.2713 H       
  37 H37           -6.9031   -10.2738    -3.2161 H       
@<TRIPOS>BOND
   1    1    2 ar
   2    1    6 ar
   3    1   24 1
   4    2    3 ar
   5    2   15 1
   6    3    4 ar
   7    3   25 1
   8    4    5 ar
   9    5    6 ar
  10    5   26 1
  11    7    8 ar
  12    7   12 ar
  13    7   15 1
  14    8    9 ar
  15    8   27 1
  16    9   10 ar
  17    9   28 1
  18   10   11 ar
  19   11   12 ar
  20   11   13 1
  21   12   29 1
  22   13   14 am
  23   13   16 2
  24   14   17 1
  25   14   30 1
  26   15   22 1
  27   17   18 1
  28   17   21 2
  29   18   19 1
  30   19   20 2
  31   19   31 1
  32   20   21 1
  33   20   23 1
  34   22   32 1
  35   22   33 1
  36   22   34 1
  37   23   35 1
  38   23   36 1
  39   23   37 1

#	End of record

