#	Name: ASD03331912
#	Creating user name:	WinNT
#	Creation time:	15. 06. 2019 20:40

#	Modifying user name:	WinNT
#	Modification time:	15. 06. 2019 20:40

#	Program:	/corina/corina34_cracker 3.40 0067  02.08.2006

@<TRIPOS>MOLECULE
ASD03331912
  64   66    0    0    0
SMALL
NO_CHARGES


@<TRIPOS>ATOM
   1 C1             0.3985     1.5063     1.4530 C.2     
   2 N2             0.4618     0.1936     1.8037 N.pl3   
   3 C3             1.7603    -0.2038     1.6701 C.2     
   4 N4             2.4737     0.8243     1.2727 N.2     
   5 C5             1.6627     1.8966     1.1321 C.2     
   6 C6             2.0734     3.2463     0.7072 C.2     
   7 O7             1.2464     4.1335     0.6175 O.2     
   8 N8             3.3656     3.4977     0.4180 N.am    
   9 C9             3.7739     4.8397    -0.0045 C.3     
  10 C10            3.5602     4.9868    -1.5123 C.3     
  11 C11            4.3756     3.9224    -2.2492 C.3     
  12 C12            5.2312     5.0464     0.3189 C.2     
  13 C13            2.0758     4.8074    -1.8369 C.3     
  14 C14            4.0154     6.3776    -1.9586 C.3     
  15 O15            5.9296     4.0969     0.6045 O.2     
  16 N16            5.7585     6.2864     0.2906 N.am    
  17 C17            7.1908     6.4791     0.5306 C.3     
  18 C18           -0.6692    -0.6207     2.2568 C.3     
  19 C19           -1.8558    -0.4007     1.3132 C.3     
  20 C20           -2.6751     0.7963     1.7848 C.3     
  21 N21           -1.8170     1.8172     2.3891 N.3     
  22 C22           -0.8507     2.3480     1.4161 C.3     
  23 C23           -2.6191     2.8980     2.9778 C.3     
  24 C24            2.2773    -1.5635     1.9302 C.ar    
  25 C25            3.0558    -2.2166     0.9674 C.ar    
  26 C26            1.9966    -2.2023     3.1409 C.ar    
  27 C27            2.4835    -3.4739     3.3770 C.ar    
  28 C28            3.2480    -4.1163     2.4191 C.ar    
  29 C29            3.5360    -3.4916     1.2205 C.ar    
  30 F30            1.2512    -1.5778     4.0788 F       
  31 O31            3.3390    -1.6031    -0.2105 O.3     
  32 C32            4.1388    -2.3305    -1.1449 C.3     
  33 H33            4.0251     2.7901     0.4896 H       
  34 H34            3.1759     5.5839     0.5216 H       
  35 H35            4.0513     2.9315    -1.9312 H       
  36 H36            4.2234     4.0272    -3.3234 H       
  37 H37            5.4331     4.0502    -2.0180 H       
  38 H38            1.4949     5.5657    -1.3119 H       
  39 H39            1.9236     4.9122    -2.9111 H       
  40 H40            1.7515     3.8166    -1.5189 H       
  41 H41            5.0380     6.5504    -1.6229 H       
  42 H42            3.9742     6.4419    -3.0460 H       
  43 H43            3.3584     7.1315    -1.5250 H       
  44 H44            5.1896     7.0514     0.1114 H       
  45 H45            7.4462     6.1068     1.5227 H       
  46 H46            7.7617     5.9330    -0.2204 H       
  47 H47            7.4301     7.5406     0.4681 H       
  48 H48           -0.3869    -1.6735     2.2479 H       
  49 H49           -0.9485    -0.3258     3.2683 H       
  50 H50           -1.4870    -0.2128     0.3048 H       
  51 H51           -2.4847    -1.2910     1.3081 H       
  52 H52           -3.1996     1.2287     0.9327 H       
  53 H53           -3.4058     0.4617     2.5211 H       
  54 H54           -0.6038     3.3783     1.6725 H       
  55 H55           -1.2839     2.3138     0.4164 H       
  56 H56           -3.2709     2.4879     3.7492 H       
  57 H57           -1.9570     3.6426     3.4196 H       
  58 H58           -3.2246     3.3654     2.2012 H       
  59 H59            2.2668    -3.9679     4.3126 H       
  60 H60            3.6253    -5.1099     2.6110 H       
  61 H61            4.1331    -3.9998     0.4778 H       
  62 H62            4.2896    -1.7278    -2.0406 H       
  63 H63            5.1046    -2.5605    -0.6949 H       
  64 H64            3.6324    -3.2580    -1.4121 H       
@<TRIPOS>BOND
   1    1    2 1
   2    1    5 2
   3    1   22 1
   4    2    3 1
   5    2   18 1
   6    3    4 2
   7    3   24 1
   8    4    5 1
   9    5    6 1
  10    6    7 2
  11    6    8 am
  12    8    9 1
  13    8   33 1
  14    9   10 1
  15    9   12 1
  16    9   34 1
  17   10   11 1
  18   10   13 1
  19   10   14 1
  20   11   35 1
  21   11   36 1
  22   11   37 1
  23   12   15 2
  24   12   16 am
  25   13   38 1
  26   13   39 1
  27   13   40 1
  28   14   41 1
  29   14   42 1
  30   14   43 1
  31   16   17 1
  32   16   44 1
  33   17   45 1
  34   17   46 1
  35   17   47 1
  36   18   19 1
  37   18   48 1
  38   18   49 1
  39   19   20 1
  40   19   50 1
  41   19   51 1
  42   20   21 1
  43   20   52 1
  44   20   53 1
  45   21   22 1
  46   21   23 1
  47   22   54 1
  48   22   55 1
  49   23   56 1
  50   23   57 1
  51   23   58 1
  52   24   25 ar
  53   24   26 ar
  54   25   31 1
  55   25   29 ar
  56   26   27 ar
  57   26   30 1
  58   27   28 ar
  59   27   59 1
  60   28   29 ar
  61   28   60 1
  62   29   61 1
  63   31   32 1
  64   32   62 1
  65   32   63 1
  66   32   64 1

#	End of record

