#	Name: ASD01812047
#	Creating user name:	WinNT
#	Creation time:	15. 06. 2019 19:27

#	Modifying user name:	WinNT
#	Modification time:	15. 06. 2019 19:27

#	Program:	/corina/corina34_cracker 3.40 0067  02.08.2006

@<TRIPOS>MOLECULE
ASD01812047
  55   59    0    0    0
SMALL
NO_CHARGES


@<TRIPOS>ATOM
   1 C1            -0.0059     1.3990    -0.0208 C.ar    
   2 C2             0.0080     0.0108    -0.0334 C.ar    
   3 C3             1.1639     2.1047    -0.0138 C.ar    
   4 C4             1.1999    -0.6798    -0.0391 C.ar    
   5 C5             2.3836     1.4250    -0.0194 C.ar    
   6 C6             2.4032     0.0185    -0.0321 C.ar    
   7 C7             3.7856     1.8493    -0.0156 C.2     
   8 N8             3.7243    -0.3693    -0.0357 N.pl3   
   9 C9             4.5331     0.7343    -0.0258 C.2     
  10 S10            4.3785     3.5085    -0.0006 S.o2    
  11 C11            4.1940    -1.7569    -0.0476 C.3     
  12 C12            3.8317     4.1989    -1.5864 C.3     
  13 O13            3.6817     4.1199     1.0763 O.2     
  14 O14            5.7930     3.3750     0.0239 O.2     
  15 C15            4.2532    -2.2793     1.3647 C.ar    
  16 C16            4.2843     5.6324    -1.6930 C.2     
  17 C17            5.3735    -2.0415     2.1437 C.ar    
  18 C18            3.1886    -2.9892     1.8821 C.ar    
  19 O19            4.9138     6.1384    -0.7883 O.2     
  20 N20            3.9895     6.3521    -2.7937 N.am    
  21 C21            5.4332    -2.5200     3.4426 C.ar    
  22 C22            3.2443    -3.4715     3.1875 C.ar    
  23 C23            4.4085     7.6790    -2.8924 C.2     
  24 C24            4.3756    -3.2354     3.9656 C.ar    
  25 C25            2.1013    -4.2358     3.7482 C.2     
  26 C26            5.1484     8.4135    -1.9279 C.2     
  27 N27            4.2039     8.4942    -3.8936 N.2     
  28 C28            5.2987     9.6335    -2.4919 C.2     
  29 O29            4.6938     9.5803    -3.6874 O.3     
  30 C30            6.0137    10.8190    -1.8965 C.3     
  31 H31            3.4861     5.9474    -3.5173 H       
  32 C32            2.0226    -4.7630     5.0040 C.2     
  33 N33            0.8268    -5.3765     5.1148 N.pl3   
  34 N34            0.1451    -5.2282     3.9008 N.2     
  35 C35            0.8989    -4.5430     3.0824 C.2     
  36 F36            6.4112    -1.3415     1.6353 F       
  37 H37           -0.9490     1.9252    -0.0211 H       
  38 H38           -0.9250    -0.5332    -0.0385 H       
  39 H39            1.1453     3.1845    -0.0044 H       
  40 H40            1.2003    -1.7598    -0.0486 H       
  41 H41            5.6128     0.7117    -0.0260 H       
  42 H42            3.5068    -2.3682    -0.6326 H       
  43 H43            5.1880    -1.8002    -0.4929 H       
  44 H44            4.2632     3.6200    -2.4029 H       
  45 H45            2.7441     4.1560    -1.6457 H       
  46 H46            2.3134    -3.1701     1.2757 H       
  47 H47            6.3089    -2.3330     4.0464 H       
  48 H48            4.4227    -3.6077     4.9783 H       
  49 H49            5.5077     8.0760    -0.9670 H       
  50 H50            7.0634    10.7949    -2.1894 H       
  51 H51            5.5562    11.7392    -2.2596 H       
  52 H52            5.9388    10.7802    -0.8098 H       
  53 H53            2.7809    -4.7006     5.7705 H       
  54 H54            0.4962    -5.8407     5.8997 H       
  55 H55            0.6465    -4.2660     2.0694 H       
@<TRIPOS>BOND
   1    1    2 ar
   2    1    3 ar
   3    1   37 1
   4    2    4 ar
   5    2   38 1
   6    3    5 ar
   7    3   39 1
   8    4    6 ar
   9    4   40 1
  10    5    7 1
  11    5    6 ar
  12    6    8 1
  13    7    9 2
  14    7   10 1
  15    8   11 1
  16    8    9 1
  17    9   41 1
  18   10   12 1
  19   10   13 2
  20   10   14 2
  21   11   15 1
  22   11   42 1
  23   11   43 1
  24   12   16 1
  25   12   44 1
  26   12   45 1
  27   15   17 ar
  28   15   18 ar
  29   16   19 2
  30   16   20 am
  31   17   36 1
  32   17   21 ar
  33   18   22 ar
  34   18   46 1
  35   20   31 1
  36   20   23 1
  37   21   24 ar
  38   21   47 1
  39   22   24 ar
  40   22   25 1
  41   23   26 1
  42   23   27 2
  43   24   48 1
  44   25   32 2
  45   25   35 1
  46   26   28 2
  47   26   49 1
  48   27   29 1
  49   28   30 1
  50   28   29 1
  51   30   50 1
  52   30   51 1
  53   30   52 1
  54   32   33 1
  55   32   53 1
  56   33   34 1
  57   33   54 1
  58   34   35 2
  59   35   55 1

#	End of record

