#	Name: ASD01911585
#	Creating user name:	WinNT
#	Creation time:	15. 06. 2019 19:58

#	Modifying user name:	WinNT
#	Modification time:	15. 06. 2019 19:58

#	Program:	/corina/corina34_cracker 3.40 0067  02.08.2006

@<TRIPOS>MOLECULE
ASD01911585
  35   37    0    0    0
SMALL
NO_CHARGES


@<TRIPOS>ATOM
   1 N1            -0.0093     1.3403     0.0974 N.am    
   2 C2             0.0021    -0.0041     0.0020 C.2     
   3 C3             1.2748    -0.7187    -0.1246 C.2     
   4 C4             1.4470    -2.0747    -0.0500 C.2     
   5 S5             2.8518     0.0159    -0.4072 S.3     
   6 C6             3.5963    -1.5802    -0.3909 C.2     
   7 N7             2.6740    -2.4890    -0.1928 N.2     
   8 C8             4.9923    -1.8438    -0.5711 C.1     
   9 C9             6.1367    -2.0599    -0.7188 C.1     
  10 C10            7.5327    -2.3234    -0.8990 C.ar    
  11 C11            8.0097    -3.6374    -0.8661 C.ar    
  12 C12            9.3552    -3.8832    -1.0409 C.ar    
  13 C13           10.2329    -2.8333    -1.2481 C.ar    
  14 C14            9.7684    -1.5301    -1.2820 C.ar    
  15 C15            8.4248    -1.2686    -1.1146 C.ar    
  16 O16           -1.0450    -0.6244     0.0211 O.2     
  17 C17           -1.2708     2.0997     0.0708 C.3     
  18 C18            1.2370     2.1079     0.2384 C.3     
  19 C19            1.0334     3.1816     1.2723 C.2     
  20 N20           -0.1683     3.5197     1.7421 N.am    
  21 C21           -1.4066     2.8467     1.3990 C.3     
  22 O22            2.0067     3.7664     1.6984 O.2     
  23 H23            0.6236    -2.7534     0.1160 H       
  24 H24            7.3261    -4.4576    -0.7038 H       
  25 H25            9.7252    -4.8975    -1.0157 H       
  26 H26           11.2857    -3.0321    -1.3836 H       
  27 H27           10.4595    -0.7160    -1.4437 H       
  28 H28            8.0638    -0.2511    -1.1412 H       
  29 H29           -1.2529     2.8137    -0.7526 H       
  30 H30           -2.1097     1.4150    -0.0536 H       
  31 H31            2.0410     1.4436     0.5554 H       
  32 H32            1.4942     2.5651    -0.7170 H       
  33 H33           -0.2173     4.2660     2.3598 H       
  34 H34           -2.2033     3.5851     1.3092 H       
  35 H35           -1.6612     2.1394     2.1883 H       
@<TRIPOS>BOND
   1    1    2 am
   2    1   18 1
   3    1   17 1
   4    2    3 1
   5    2   16 2
   6    3    4 2
   7    3    5 1
   8    4    7 1
   9    4   23 1
  10    5    6 1
  11    6    7 2
  12    6    8 1
  13    8    9 3
  14    9   10 1
  15   10   11 ar
  16   10   15 ar
  17   11   12 ar
  18   11   24 1
  19   12   13 ar
  20   12   25 1
  21   13   14 ar
  22   13   26 1
  23   14   15 ar
  24   14   27 1
  25   15   28 1
  26   17   21 1
  27   17   29 1
  28   17   30 1
  29   18   19 1
  30   18   31 1
  31   18   32 1
  32   19   20 am
  33   19   22 2
  34   20   21 1
  35   20   33 1
  36   21   34 1
  37   21   35 1

#	End of record

