#	Name: ASD05250076
#	Creating user name:	WinNT
#	Creation time:	15. 06. 2019 20:58

#	Modifying user name:	WinNT
#	Modification time:	15. 06. 2019 20:58

#	Program:	/corina/corina34_cracker 3.40 0067  02.08.2006

@<TRIPOS>MOLECULE
ASD05250076
  34   36    0    0    0
SMALL
NO_CHARGES


@<TRIPOS>ATOM
   1 C1            -0.0167     1.3835     0.0096 C.ar    
   2 C2             0.0021    -0.0041     0.0020 C.ar    
   3 C3            -1.1874    -0.7188     0.0095 C.ar    
   4 C4            -2.3996    -0.0498     0.0247 C.ar    
   5 C5            -2.4239     1.3468     0.0329 C.ar    
   6 C6            -1.2237     2.0616     0.0306 C.ar    
   7 O7             1.1515     2.0778     0.0022 O.3     
   8 O8            -1.1624    -2.0776     0.0015 O.3     
   9 C9            -3.7115     2.0638     0.0485 C.2     
  10 C10           -3.7323     3.4066     0.0564 C.2     
  11 C11           -5.0193     4.1232     0.0719 C.ar    
  12 C12           -5.0350     5.5097     0.0800 C.ar    
  13 C13           -6.2643     6.1850     0.0949 C.ar    
  14 C14           -7.4711     5.4397     0.1013 C.ar    
  15 C15           -7.4219     4.0331     0.0929 C.ar    
  16 C16           -6.2246     3.3954     0.0728 C.ar    
  17 C17           -6.3215     7.5901     0.1039 C.ar    
  18 C18           -7.5307     8.2151     0.1187 C.ar    
  19 C19           -8.7158     7.4826     0.1250 C.ar    
  20 C20           -8.6991     6.1209     0.1166 C.ar    
  21 H21            0.9456    -0.5295    -0.0102 H       
  22 H22           -3.3248    -0.6069     0.0298 H       
  23 H23           -1.2373     3.1415     0.0373 H       
  24 H24            1.4812     2.2835    -0.8833 H       
  25 H25           -1.1466    -2.4758     0.8826 H       
  26 H26           -4.6383     1.5094     0.0536 H       
  27 H27           -2.8055     3.9610     0.0512 H       
  28 H28           -4.1086     6.0648     0.0753 H       
  29 H29           -8.3380     3.4611     0.0981 H       
  30 H30           -6.1955     2.3158     0.0664 H       
  31 H31           -5.4107     8.1705     0.0996 H       
  32 H32           -7.5720     9.2943     0.1260 H       
  33 H33           -9.6623     8.0026     0.1367 H       
  34 H34           -9.6263     5.5672     0.1216 H       
@<TRIPOS>BOND
   1    1    2 ar
   2    1    7 1
   3    1    6 ar
   4    2    3 ar
   5    2   21 1
   6    3    4 ar
   7    3    8 1
   8    4    5 ar
   9    4   22 1
  10    5    6 ar
  11    5    9 1
  12    6   23 1
  13    7   24 1
  14    8   25 1
  15    9   10 2
  16    9   26 1
  17   10   11 1
  18   10   27 1
  19   11   12 ar
  20   11   16 ar
  21   12   13 ar
  22   12   28 1
  23   13   14 ar
  24   13   17 ar
  25   14   15 ar
  26   14   20 ar
  27   15   16 ar
  28   15   29 1
  29   16   30 1
  30   17   18 ar
  31   17   31 1
  32   18   19 ar
  33   18   32 1
  34   19   20 ar
  35   19   33 1
  36   20   34 1

#	End of record

