#	Name: ASD00311393
#	Creating user name:	WinNT
#	Creation time:	15. 06. 2019 18:34

#	Modifying user name:	WinNT
#	Modification time:	15. 06. 2019 18:34

#	Program:	/corina/corina34_cracker 3.40 0067  02.08.2006

@<TRIPOS>MOLECULE
ASD00311393
  43   46    0    0    0
SMALL
NO_CHARGES


@<TRIPOS>ATOM
   1 C1            -0.0167     1.3776     0.0096 C.2     
   2 C2             0.0021    -0.0041     0.0020 C.2     
   3 C3             1.2591    -0.6767    -0.0141 C.2     
   4 C4             2.4314     0.0670    -0.0217 C.2     
   5 C5             2.3574     1.4749    -0.0134 C.2     
   6 N6             1.1649     2.0902     0.0022 N.am    
   7 C7            -1.3430    -0.5751     0.0123 C.2     
   8 C8            -2.3224     0.3256     0.0268 C.2     
   9 S9            -1.6793     1.9559     0.0358 S.3     
  10 O10            3.3824     2.1370    -0.0196 O.2     
  11 C11           -1.5954    -2.0355     0.0065 C.ar    
  12 C12           -2.2057    -2.6447     1.1022 C.ar    
  13 C13           -2.4381    -4.0049     1.0910 C.ar    
  14 C14           -2.0667    -4.7638    -0.0043 C.ar    
  15 C15           -1.4608    -4.1650    -1.0943 C.ar    
  16 C16           -1.2285    -2.8048    -1.0971 C.ar    
  17 C17           -3.7911    -0.0118     0.0395 C.3     
  18 C18            3.7478    -0.6124    -0.0379 C.ar    
  19 C19            4.5273    -0.6624     1.1230 C.ar    
  20 C20            5.7559    -1.2998     1.0989 C.ar    
  21 C21            6.2105    -1.8849    -0.0691 C.ar    
  22 C22            5.4428    -1.8370    -1.2186 C.ar    
  23 C23            4.2128    -1.2096    -1.2077 C.ar    
  24 O24            4.0800    -0.0868     2.2702 O.3     
  25 C25            4.9296    -0.1774     3.4156 C.3     
  26 O26            1.3091    -2.0294    -0.0214 O.3     
  27 H27            1.1328     3.0596     0.0073 H       
  28 H28           -2.4958    -2.0532     1.9580 H       
  29 H29           -2.9104    -4.4779     1.9393 H       
  30 H30           -2.2502    -5.8281    -0.0084 H       
  31 H31           -1.1730    -4.7626    -1.9466 H       
  32 H32           -0.7598    -2.3376    -1.9505 H       
  33 H33           -4.1350    -0.0987     1.0702 H       
  34 H34           -4.3495     0.7770    -0.4645 H       
  35 H35           -3.9510    -0.9578    -0.4778 H       
  36 H36            6.3604    -1.3399     1.9930 H       
  37 H37            7.1696    -2.3811    -0.0836 H       
  38 H38            5.8047    -2.2959    -2.1268 H       
  39 H39            3.6140    -1.1780    -2.1059 H       
  40 H40            5.0986    -1.2260     3.6606 H       
  41 H41            5.8836     0.3034     3.1993 H       
  42 H42            4.4548     0.3212     4.2605 H       
  43 H43            2.2064    -2.3898    -0.0322 H       
@<TRIPOS>BOND
   1    1    2 2
   2    1    6 1
   3    1    9 1
   4    2    3 1
   5    2    7 1
   6    3    4 2
   7    3   26 1
   8    4    5 1
   9    4   18 1
  10    5    6 am
  11    5   10 2
  12    6   27 1
  13    7    8 2
  14    7   11 1
  15    8    9 1
  16    8   17 1
  17   11   12 ar
  18   11   16 ar
  19   12   13 ar
  20   12   28 1
  21   13   14 ar
  22   13   29 1
  23   14   15 ar
  24   14   30 1
  25   15   16 ar
  26   15   31 1
  27   16   32 1
  28   17   33 1
  29   17   34 1
  30   17   35 1
  31   18   19 ar
  32   18   23 ar
  33   19   20 ar
  34   19   24 1
  35   20   21 ar
  36   20   36 1
  37   21   22 ar
  38   21   37 1
  39   22   23 ar
  40   22   38 1
  41   23   39 1
  42   24   25 1
  43   25   40 1
  44   25   41 1
  45   25   42 1
  46   26   43 1

#	End of record

