#	Name: ASD05872023
#	Creating user name:	WinNT
#	Creation time:	15. 06. 2019 21:04

#	Modifying user name:	WinNT
#	Modification time:	15. 06. 2019 21:04

#	Program:	/corina/corina34_cracker 3.40 0067  02.08.2006

@<TRIPOS>MOLECULE
ASD05872023
  33   34    0    0    0
SMALL
NO_CHARGES


@<TRIPOS>ATOM
   1 C1            -0.0169     1.3916     0.0097 C.ar    
   2 C2             0.0021    -0.0041     0.0020 C.ar    
   3 C3            -1.1823    -0.7130     0.0095 C.ar    
   4 C4            -2.3966    -0.0268     0.0248 C.ar    
   5 C5            -2.4163     1.3775     0.0325 C.ar    
   6 C6            -1.2164     2.0774     0.0306 C.ar    
   7 C7            -3.8058    -0.4393     0.0360 C.2     
   8 C8            -4.5258     0.6903     0.0490 C.2     
   9 O9            -3.7103     1.7597     0.0470 O.3     
  10 C10           -6.0315     0.7536     0.0632 C.3     
  11 O11            1.1901    -0.6669    -0.0133 O.3     
  12 S12            1.7445    -0.9760     1.3700 S.o2    
  13 O13            3.1407    -1.3423     1.1901 O.co2   
  14 O14            1.5954     0.2351     2.1618 O.co2   
  15 O15            0.9555    -2.0764     1.9018 O.co2   
  16 C16           -4.3356    -1.8501     0.0327 C.3     
  17 O17           -4.4900    -2.3041     1.3788 O.3     
  18 S18           -5.0223    -3.7252     1.4957 S.o2    
  19 O19           -5.4561    -3.8987     2.8733 O.co2   
  20 O20           -6.1279    -3.8375     0.5570 O.co2   
  21 O21           -3.9231    -4.6143     1.1534 O.co2   
  22 O22            1.1548     2.0821     0.0022 O.3     
  23 C23            1.0673     3.5084     0.0107 C.3     
  24 H24           -1.1689    -1.7929     0.0032 H       
  25 H25           -1.2211     3.1574     0.0365 H       
  26 H26           -6.3850     0.7632     1.0943 H       
  27 H27           -6.3618     1.6610    -0.4425 H       
  28 H28           -6.4366    -0.1174    -0.4518 H       
  29 H29           -5.3015    -1.8743    -0.4719 H       
  30 H30           -3.6353    -2.5000    -0.4919 H       
  31 H31            2.0708     3.9340     0.0034 H       
  32 H32            0.5238     3.8444    -0.8723 H       
  33 H33            0.5408     3.8348     0.9075 H       
@<TRIPOS>BOND
   1    1    2 ar
   2    1   22 1
   3    1    6 ar
   4    2    3 ar
   5    2   11 1
   6    3    4 ar
   7    3   24 1
   8    4    5 ar
   9    4    7 1
  10    5    6 ar
  11    5    9 1
  12    6   25 1
  13    7    8 2
  14    7   16 1
  15    8    9 1
  16    8   10 1
  17   10   26 1
  18   10   27 1
  19   10   28 1
  20   11   12 1
  21   12   13 ar
  22   12   14 ar
  23   12   15 ar
  24   16   17 1
  25   16   29 1
  26   16   30 1
  27   17   18 1
  28   18   19 ar
  29   18   20 ar
  30   18   21 ar
  31   22   23 1
  32   23   31 1
  33   23   32 1
  34   23   33 1

#	End of record

