#	Name: ASD03090146
#	Creating user name:	WinNT
#	Creation time:	15. 06. 2019 20:28

#	Modifying user name:	WinNT
#	Modification time:	15. 06. 2019 20:28

#	Program:	/corina/corina34_cracker 3.40 0067  02.08.2006

@<TRIPOS>MOLECULE
ASD03090146
  54   57    0    0    0
SMALL
NO_CHARGES


@<TRIPOS>ATOM
   1 N1             0.4476     1.5146     1.4692 N.ar    
   2 C2             0.4096     0.1964     1.4357 C.ar    
   3 C3             1.5362    -0.5372     1.1252 C.ar    
   4 C4             2.7288     0.1377     0.8435 C.ar    
   5 C5             2.7230     1.5360     0.8903 C.ar    
   6 C6             1.5508     2.1898     1.2103 C.ar    
   7 C7             3.9626    -0.6068     0.5059 C.2     
   8 N8             5.7413    -3.4565    -0.5287 N.pl3   
   9 C9             4.8154    -4.4449    -0.8728 C.ar    
  10 C10            3.5989    -4.0911    -1.4425 C.ar    
  11 C11            2.6862    -5.0707    -1.7818 C.ar    
  12 C12            2.9823    -6.4022    -1.5551 C.ar    
  13 C13            4.1927    -6.7579    -0.9881 C.ar    
  14 C14            5.1118    -5.7841    -0.6513 C.ar    
  15 N15            4.0268    -1.8629     0.1124 N.2     
  16 C16            5.2982    -2.2025    -0.1035 C.2     
  17 N17            6.0667    -1.1676     0.1491 N.2     
  18 N18            5.2218    -0.1167     0.5412 N.pl3   
  19 C19            5.6257     1.2391     0.9216 C.3     
  20 C20            5.7311     2.1105    -0.3316 C.3     
  21 C21            6.1529     3.5265     0.0657 C.3     
  22 N22            6.2539     4.3608    -1.1343 N.am    
  23 C23            6.6132     5.6553    -1.0267 C.2     
  24 C24            6.7154     6.5000    -2.2417 C.2     
  25 O25            6.8534     6.1303     0.0654 O.2     
  26 N26            6.4885     6.1315    -3.4780 N.2     
  27 O27            6.6549     7.0472    -4.2498 O.3     
  28 C28            7.0221     8.1709    -3.6185 C.2     
  29 C29            7.0736     7.8757    -2.2990 C.2     
  30 C30            7.3150     9.5055    -4.2542 C.3     
  31 C31            4.5109    -8.2104    -0.7429 C.3     
  32 F32            3.4378    -9.0011    -1.1675 F       
  33 F33            5.6611    -8.5628    -1.4572 F       
  34 F34            4.7295    -8.4156     0.6236 F       
  35 H35           -0.5158    -0.3155     1.6546 H       
  36 H36            1.4980    -1.6162     1.1003 H       
  37 H37            3.6227     2.0952     0.6799 H       
  38 H38            1.5363     3.2690     1.2487 H       
  39 H39            6.6918    -3.6415    -0.5852 H       
  40 H40            3.3669    -3.0513    -1.6195 H       
  41 H41            1.7401    -4.7963    -2.2245 H       
  42 H42            2.2667    -7.1661    -1.8211 H       
  43 H43            6.0567    -6.0626    -0.2085 H       
  44 H44            4.8832     1.6632     1.5976 H       
  45 H45            6.5936     1.2031     1.4216 H       
  46 H46            6.4736     1.6864    -1.0076 H       
  47 H47            4.7632     2.1465    -0.8315 H       
  48 H48            5.4104     3.9506     0.7417 H       
  49 H49            7.1209     3.4904     0.5656 H       
  50 H50            6.0621     3.9815    -2.0062 H       
  51 H51            7.3320     8.5307    -1.4801 H       
  52 H52            7.1829     9.4307    -5.3336 H       
  53 H53            6.6319    10.2556    -3.8556 H       
  54 H54            8.3422     9.7956    -4.0332 H       
@<TRIPOS>BOND
   1    1    2 ar
   2    1    6 ar
   3    2    3 ar
   4    2   35 1
   5    3    4 ar
   6    3   36 1
   7    4    5 ar
   8    4    7 1
   9    5    6 ar
  10    5   37 1
  11    6   38 1
  12    7   15 2
  13    7   18 1
  14    8    9 1
  15    8   16 1
  16    8   39 1
  17    9   10 ar
  18    9   14 ar
  19   10   11 ar
  20   10   40 1
  21   11   12 ar
  22   11   41 1
  23   12   13 ar
  24   12   42 1
  25   13   14 ar
  26   13   31 1
  27   14   43 1
  28   15   16 1
  29   16   17 2
  30   17   18 1
  31   18   19 1
  32   19   20 1
  33   19   44 1
  34   19   45 1
  35   20   21 1
  36   20   46 1
  37   20   47 1
  38   21   22 1
  39   21   48 1
  40   21   49 1
  41   22   23 am
  42   22   50 1
  43   23   24 1
  44   23   25 2
  45   24   26 2
  46   24   29 1
  47   26   27 1
  48   27   28 1
  49   28   29 2
  50   28   30 1
  51   29   51 1
  52   30   52 1
  53   30   53 1
  54   30   54 1
  55   31   32 1
  56   31   33 1
  57   31   34 1

#	End of record

