#	Name: ASD01912176
#	Creating user name:	WinNT
#	Creation time:	15. 06. 2019 19:59

#	Modifying user name:	WinNT
#	Modification time:	15. 06. 2019 19:59

#	Program:	/corina/corina34_cracker 3.40 0067  02.08.2006

@<TRIPOS>MOLECULE
ASD01912176
  42   45    0    0    0
SMALL
NO_CHARGES


@<TRIPOS>ATOM
   1 C1            -0.0183     1.5107     0.0189 C.3     
   2 C2            -0.0110     0.0037     0.0162 C.2     
   3 O3             0.5367    -0.7860    -0.9129 O.3     
   4 N4             0.3694    -1.9508    -0.6191 N.2     
   5 C5            -0.2899    -2.0401     0.5065 C.2     
   6 N6            -0.5352    -0.7785     0.9267 N.2     
   7 C7            -0.6893    -3.2919     1.1968 C.ar    
   8 C8            -0.3610    -4.5279     0.6463 C.ar    
   9 C9            -0.7362    -5.6929     1.2957 C.ar    
  10 C10           -1.4373    -5.6260     2.4915 C.ar    
  11 C11           -1.7635    -4.3989     3.0384 C.ar    
  12 C12           -1.3889    -3.2334     2.4007 C.ar    
  13 C13            1.4227     2.0710    -0.0076 C.3     
  14 C14            1.3276     3.2975    -0.8882 C.2     
  15 N15            0.1863     3.2697    -1.5978 N.am    
  16 C16           -0.5955     2.0631    -1.3032 C.3     
  17 O17            2.1598     4.1780    -0.9451 O.2     
  18 C18           -0.2064     4.2645    -2.5017 C.ar    
  19 C19            0.5423     5.4274    -2.6242 C.ar    
  20 C20            0.1532     6.4074    -3.5162 C.ar    
  21 C21           -0.9828     6.2308    -4.2882 C.ar    
  22 C22           -1.7311     5.0719    -4.1672 C.ar    
  23 C23           -1.3420     4.0869    -3.2808 C.ar    
  24 F24           -1.3618     7.1906    -5.1602 F       
  25 O25           -0.4180    -6.9013     0.7613 O.3     
  26 C26           -0.8363    -8.0608     1.4842 C.3     
  27 H27           -0.5703     1.8945     0.8768 H       
  28 H28            0.1843    -4.5784    -0.2845 H       
  29 H29           -1.7293    -6.5352     2.9961 H       
  30 H30           -2.3095    -4.3520     3.9690 H       
  31 H31           -1.6452    -2.2763     2.8305 H       
  32 H32            1.7434     2.3467     0.9970 H       
  33 H33            2.1075     1.3422    -0.4412 H       
  34 H34           -0.4754     1.3314    -2.1021 H       
  35 H35           -1.6482     2.3169    -1.1783 H       
  36 H36            1.4281     5.5657    -2.0220 H       
  37 H37            0.7350     7.3122    -3.6115 H       
  38 H38           -2.6171     4.9364    -4.7697 H       
  39 H39           -1.9258     3.1832    -3.1868 H       
  40 H40           -0.3863    -8.0519     2.4769 H       
  41 H41           -1.9223    -8.0586     1.5775 H       
  42 H42           -0.5193    -8.9562     0.9496 H       
@<TRIPOS>BOND
   1    1    2 1
   2    1   13 1
   3    1   16 1
   4    1   27 1
   5    2    3 1
   6    2    6 2
   7    3    4 1
   8    4    5 2
   9    5    6 1
  10    5    7 1
  11    7    8 ar
  12    7   12 ar
  13    8    9 ar
  14    8   28 1
  15    9   10 ar
  16    9   25 1
  17   10   11 ar
  18   10   29 1
  19   11   12 ar
  20   11   30 1
  21   12   31 1
  22   13   14 1
  23   13   32 1
  24   13   33 1
  25   14   15 am
  26   14   17 2
  27   15   16 1
  28   15   18 1
  29   16   34 1
  30   16   35 1
  31   18   19 ar
  32   18   23 ar
  33   19   20 ar
  34   19   36 1
  35   20   21 ar
  36   20   37 1
  37   21   22 ar
  38   21   24 1
  39   22   23 ar
  40   22   38 1
  41   23   39 1
  42   25   26 1
  43   26   40 1
  44   26   41 1
  45   26   42 1

#	End of record

