#	Name: ASD01912113
#	Creating user name:	WinNT
#	Creation time:	15. 06. 2019 19:59

#	Modifying user name:	WinNT
#	Modification time:	15. 06. 2019 19:59

#	Program:	/corina/corina34_cracker 3.40 0067  02.08.2006

@<TRIPOS>MOLECULE
ASD01912113
  63   67    0    0    0
SMALL
NO_CHARGES


@<TRIPOS>ATOM
   1 N1             0.0274     1.3910    -0.1029 N.2     
   2 C2            -0.0391     0.0595     0.0782 C.2     
   3 C3             1.2319    -0.4205     0.1476 C.2     
   4 N4             2.0694     0.6496     0.0046 N.pl3   
   5 C5             1.2874     1.7577    -0.1488 C.2     
   6 C6             1.7775     3.1406    -0.3363 C.ar    
   7 C7             3.0862     3.4738     0.0149 C.ar    
   8 C8             3.5372     4.7656    -0.1625 C.ar    
   9 C9             2.6948     5.7297    -0.6868 C.ar    
  10 C10            1.3962     5.4058    -1.0370 C.ar    
  11 C11            0.9349     4.1162    -0.8705 C.ar    
  12 C12           -1.2815    -0.7447     0.1842 C.ar    
  13 C13           -2.5248    -0.1238     0.0957 C.ar    
  14 C14           -3.6812    -0.8802     0.1955 C.ar    
  15 C15           -3.5988    -2.2529     0.3832 C.ar    
  16 C16           -2.3646    -2.8698     0.4712 C.ar    
  17 C17           -1.2075    -2.1247     0.3670 C.ar    
  18 C18            3.5340     0.6143     0.0147 C.3     
  19 C19            4.0323     0.8468     1.4178 C.2     
  20 N20            5.3563     0.8572     1.6696 N.am    
  21 O21            3.2420     1.0245     2.3204 O.2     
  22 C22           -4.8582    -3.0733     0.4919 C.3     
  23 O23           -4.8965    -0.2779     0.1101 O.3     
  24 C24            5.8640     1.0823     3.0316 C.3     
  25 C25            6.8583    -0.0333     3.3710 C.3     
  26 N26            7.8894    -0.1001     2.3269 N.3     
  27 C27            7.3077    -0.4544     1.0253 C.3     
  28 C28            6.3317     0.6378     0.5908 C.3     
  29 C29            8.8945    -0.9845     2.6782 C.ar    
  30 N30            9.9112    -1.1704     1.8493 N.ar    
  31 C31           10.8880    -2.0084     2.1548 C.ar    
  32 C32           10.8384    -2.6951     3.3578 C.ar    
  33 C33            9.7605    -2.4768     4.2013 C.ar    
  34 N34            8.8196    -1.6209     3.8378 N.ar    
  35 C35           -4.9067     1.1380    -0.0829 C.3     
  36 H36            1.5233    -1.4508     0.2894 H       
  37 H37            3.7445     2.7223     0.4249 H       
  38 H38            4.5499     5.0248     0.1089 H       
  39 H39            3.0524     6.7397    -0.8231 H       
  40 H40            0.7435     6.1629    -1.4459 H       
  41 H41           -0.0790     3.8644    -1.1445 H       
  42 H42           -2.5874     0.9444    -0.0500 H       
  43 H43           -2.3057    -3.9382     0.6176 H       
  44 H44           -0.2448    -2.6094     0.4362 H       
  45 H45            3.8764    -0.3594    -0.3358 H       
  46 H46            3.9208     1.3935    -0.6420 H       
  47 H47           -5.1592    -3.4102    -0.5000 H       
  48 H48           -4.6745    -3.9384     1.1292 H       
  49 H49           -5.6519    -2.4648     0.9254 H       
  50 H50            6.3668     2.0482     3.0800 H       
  51 H51            5.0352     1.0619     3.7393 H       
  52 H52            7.3271     0.1774     4.3322 H       
  53 H53            6.3317    -0.9862     3.4237 H       
  54 H54            8.1025    -0.5491     0.2854 H       
  55 H55            6.7749    -1.4014     1.1107 H       
  56 H56            5.8132     0.3260    -0.3158 H       
  57 H57            6.8769     1.5631     0.4045 H       
  58 H58           11.7141    -2.1561     1.4749 H       
  59 H59           11.6225    -3.3854     3.6318 H       
  60 H60            9.6915    -2.9962     5.1457 H       
  61 H61           -4.3979     1.6219     0.7509 H       
  62 H62           -4.3930     1.3817    -1.0128 H       
  63 H63           -5.9369     1.4903    -0.1337 H       
@<TRIPOS>BOND
   1    1    2 1
   2    1    5 2
   3    2    3 2
   4    2   12 1
   5    3    4 1
   6    3   36 1
   7    4    5 1
   8    4   18 1
   9    5    6 1
  10    6    7 ar
  11    6   11 ar
  12    7    8 ar
  13    7   37 1
  14    8    9 ar
  15    8   38 1
  16    9   10 ar
  17    9   39 1
  18   10   11 ar
  19   10   40 1
  20   11   41 1
  21   12   13 ar
  22   12   17 ar
  23   13   14 ar
  24   13   42 1
  25   14   15 ar
  26   14   23 1
  27   15   16 ar
  28   15   22 1
  29   16   17 ar
  30   16   43 1
  31   17   44 1
  32   18   19 1
  33   18   45 1
  34   18   46 1
  35   19   20 am
  36   19   21 2
  37   20   24 1
  38   20   28 1
  39   22   47 1
  40   22   48 1
  41   22   49 1
  42   23   35 1
  43   24   25 1
  44   24   50 1
  45   24   51 1
  46   25   26 1
  47   25   52 1
  48   25   53 1
  49   26   27 1
  50   26   29 1
  51   27   28 1
  52   27   54 1
  53   27   55 1
  54   28   56 1
  55   28   57 1
  56   29   30 ar
  57   29   34 ar
  58   30   31 ar
  59   31   32 ar
  60   31   58 1
  61   32   33 ar
  62   32   59 1
  63   33   34 ar
  64   33   60 1
  65   35   61 1
  66   35   62 1
  67   35   63 1

#	End of record

