#	Name: ASD03091982
#	Creating user name:	WinNT
#	Creation time:	15. 06. 2019 20:31

#	Modifying user name:	WinNT
#	Modification time:	15. 06. 2019 20:31

#	Program:	/corina/corina34_cracker 3.40 0067  02.08.2006

@<TRIPOS>MOLECULE
ASD03091982
  50   54    0    0    0
SMALL
NO_CHARGES


@<TRIPOS>ATOM
   1 C1            -0.0017     1.3724     0.0350 C.ar    
   2 C2            -1.1610     2.1673     0.0834 C.ar    
   3 C3            -2.4319     1.5392     0.0741 C.ar    
   4 C4            -2.5193     0.1343     0.0140 C.ar    
   5 C5            -1.3923    -0.6210    -0.0329 C.ar    
   6 C6            -0.1259    -0.0163    -0.0222 C.ar    
   7 O7             1.2357     1.9188     0.0480 O.3     
   8 C8             2.2690     1.1838     0.7044 C.3     
   9 N9             2.2733    -0.2114     0.2619 N.am    
  10 C10            1.1108    -0.8214    -0.0655 C.2     
  11 C11           -3.8704    -0.5331     0.0023 C.3     
  12 N12           -4.4125    -0.5653     1.3673 N.3     
  13 O13            1.0855    -1.9945    -0.3854 O.2     
  14 C14            3.5368    -0.9475     0.1734 C.3     
  15 C15            4.4579    -0.2921    -0.8763 C.3     
  16 C16            4.2827    -0.8778     1.5175 C.3     
  17 C17            5.6311    -0.1825     1.2377 C.3     
  18 C18            5.3733     0.6428    -0.0474 C.3     
  19 O19            4.5071    -2.1960     2.0217 O.3     
  20 C20           -3.5893     2.3330     0.1247 C.ar    
  21 C21           -1.0844     3.5681     0.1402 C.ar    
  22 C22           -3.4773     3.6891     0.1802 C.ar    
  23 C23           -2.2284     4.3055     0.1872 C.ar    
  24 C24           -5.8541    -0.8761     1.3562 C.3     
  25 C25           -4.1903    -1.8820     1.9933 C.3     
  26 C26           -5.6105    -1.7862     2.5682 C.3     
  27 F27           -5.6861    -1.1302     3.8016 F       
  28 H28           -1.4709    -1.6972    -0.0786 H       
  29 H29            3.2334     1.6365     0.4739 H       
  30 H30            2.1053     1.2182     1.7815 H       
  31 H31           -4.5465     0.0265    -0.6440 H       
  32 H32           -3.7692    -1.5516    -0.3725 H       
  33 H33            3.3452    -1.9868    -0.0939 H       
  34 H34            5.0506    -1.0493    -1.3897 H       
  35 H35            3.8714     0.2844    -1.5917 H       
  36 H36            3.7046    -0.2963     2.2356 H       
  37 H37            5.9007     0.4740     2.0650 H       
  38 H38            6.4132    -0.9220     1.0657 H       
  39 H39            6.3069     0.8370    -0.5756 H       
  40 H40            4.8607     1.5754     0.1887 H       
  41 H41            4.9741    -2.2191     2.8682 H       
  42 H42           -4.5648     1.8696     0.1193 H       
  43 H43           -0.1223     4.0587     0.1470 H       
  44 H44           -4.3702     4.2955     0.2185 H       
  45 H45           -2.1663     5.3828     0.2314 H       
  46 H46           -6.4855    -0.0160     1.5790 H       
  47 H47           -6.1751    -1.4160     0.4654 H       
  48 H48           -4.0673    -2.6903     1.2725 H       
  49 H49           -3.4117    -1.8744     2.7560 H       
  50 H50           -6.1668    -2.7232     2.5418 H       
@<TRIPOS>BOND
   1    1    6 ar
   2    1    7 1
   3    1    2 ar
   4    2    3 ar
   5    2   21 ar
   6    3    4 ar
   7    3   20 ar
   8    4    5 ar
   9    4   11 1
  10    5    6 ar
  11    5   28 1
  12    6   10 1
  13    7    8 1
  14    8    9 1
  15    8   29 1
  16    8   30 1
  17    9   10 am
  18    9   14 1
  19   10   13 2
  20   11   12 1
  21   11   31 1
  22   11   32 1
  23   12   24 1
  24   12   25 1
  25   14   16 1
  26   14   15 1
  27   14   33 1
  28   15   18 1
  29   15   34 1
  30   15   35 1
  31   16   17 1
  32   16   19 1
  33   16   36 1
  34   17   18 1
  35   17   37 1
  36   17   38 1
  37   18   39 1
  38   18   40 1
  39   19   41 1
  40   20   22 ar
  41   20   42 1
  42   21   23 ar
  43   21   43 1
  44   22   23 ar
  45   22   44 1
  46   23   45 1
  47   24   26 1
  48   24   46 1
  49   24   47 1
  50   25   26 1
  51   25   48 1
  52   25   49 1
  53   26   27 1
  54   26   50 1

#	End of record

