#	Name: ASD01913951
#	Creating user name:	WinNT
#	Creation time:	15. 06. 2019 20:02

#	Modifying user name:	WinNT
#	Modification time:	15. 06. 2019 20:02

#	Program:	/corina/corina34_cracker 3.40 0067  02.08.2006

@<TRIPOS>MOLECULE
ASD01913951
  37   40    0    0    0
SMALL
NO_CHARGES


@<TRIPOS>ATOM
   1 C1            -0.1686     1.6782    -0.0717 C.ar    
   2 C2            -0.1891     0.2948    -0.0864 C.ar    
   3 C3             0.9980    -0.4149    -0.0734 C.ar    
   4 C4             2.2019     0.2683    -0.0457 C.ar    
   5 C5             2.2295     1.6762    -0.0485 C.ar    
   6 C6             1.0295     2.3674    -0.0531 C.ar    
   7 C7             3.5093    -0.4116     0.0138 C.2     
   8 C8             4.6368     0.3286     0.3138 C.2     
   9 C9             4.5595     1.8030     0.5864 C.3     
  10 O10            3.4096     2.3421    -0.0733 O.3     
  11 N11            3.9084    -1.6812    -0.1681 N.pl3   
  12 N12            5.1875    -1.7634    -0.0052 N.2     
  13 C13            5.6962    -0.5757     0.2901 C.2     
  14 C14            7.1182    -0.2688     0.5457 C.2     
  15 N15            8.0402    -1.2501     0.4887 N.am    
  16 C16            9.3927    -0.9441     0.6242 C.ar    
  17 C17           10.3287    -1.9698     0.6761 C.ar    
  18 C18           11.6702    -1.6512     0.8109 C.ar    
  19 C19           12.0281    -0.3109     0.8893 C.ar    
  20 C20           11.0439     0.6556     0.8309 C.ar    
  21 N21            9.7746     0.3217     0.6968 N.ar    
  22 Cl22          12.8763    -2.8979     0.8809 Cl      
  23 O23            7.4570     0.8690     0.8074 O.2     
  24 C24            3.0267    -2.8030    -0.5003 C.3     
  25 H25           -1.0994     2.2259    -0.0793 H       
  26 H26           -1.1322    -0.2310    -0.1077 H       
  27 H27            0.9859    -1.4948    -0.0844 H       
  28 H28            1.0297     3.4474    -0.0425 H       
  29 H29            4.4765     1.9712     1.6601 H       
  30 H30            5.4579     2.2909     0.2085 H       
  31 H31            7.7622    -2.1696     0.3534 H       
  32 H32           10.0147    -3.0012     0.6125 H       
  33 H33           13.0650    -0.0282     0.9951 H       
  34 H34           11.3171     1.6987     0.8915 H       
  35 H35            2.8555    -2.8241    -1.5766 H       
  36 H36            3.4938    -3.7370    -0.1883 H       
  37 H37            2.0747    -2.6824     0.0167 H       
@<TRIPOS>BOND
   1    1    2 ar
   2    1    6 ar
   3    1   25 1
   4    2    3 ar
   5    2   26 1
   6    3    4 ar
   7    3   27 1
   8    4    5 ar
   9    4    7 1
  10    5    6 ar
  11    5   10 1
  12    6   28 1
  13    7    8 2
  14    7   11 1
  15    8    9 1
  16    8   13 1
  17    9   10 1
  18    9   29 1
  19    9   30 1
  20   11   12 1
  21   11   24 1
  22   12   13 2
  23   13   14 1
  24   14   15 am
  25   14   23 2
  26   15   16 1
  27   15   31 1
  28   16   17 ar
  29   16   21 ar
  30   17   18 ar
  31   17   32 1
  32   18   19 ar
  33   18   22 1
  34   19   20 ar
  35   19   33 1
  36   20   21 ar
  37   20   34 1
  38   24   35 1
  39   24   36 1
  40   24   37 1

#	End of record

