#	Name: ASD02039316
#	Creating user name:	WinNT
#	Creation time:	15. 06. 2019 20:18

#	Modifying user name:	WinNT
#	Modification time:	15. 06. 2019 20:18

#	Program:	/corina/corina34_cracker 3.40 0067  02.08.2006

@<TRIPOS>MOLECULE
ASD02039316
  50   52    0    0    0
SMALL
NO_CHARGES


@<TRIPOS>ATOM
   1 C1            -0.2119     1.3554     0.3628 C.ar    
   2 C2             0.0582    -0.0010     0.3874 C.ar    
   3 C3            -0.9768    -0.9177     0.4141 C.ar    
   4 C4            -2.2888    -0.4821     0.4158 C.ar    
   5 C5            -2.5661     0.8859     0.3911 C.ar    
   6 C6            -1.5175     1.8031     0.3705 C.ar    
   7 C7            -3.9709     1.3610     0.3923 C.ar    
   8 C8             0.9224     2.3471     0.3339 C.3     
   9 N9             1.3736     2.5327    -1.0475 N.am    
  10 C10            0.6798     3.4799    -1.9237 C.3     
  11 C11            2.4270     1.8321    -1.5122 C.2     
  12 C12            3.0585     0.8038    -0.6670 C.2     
  13 C13            4.0468    -0.0566    -1.0465 C.2     
  14 C14            1.6279     4.6231    -2.2914 C.3     
  15 N15            2.7669     0.5438     0.6332 N.2     
  16 C16            3.5252    -0.4295     1.0481 C.2     
  17 N17            4.3323    -0.8263     0.0299 N.pl3   
  18 O18            2.8564     2.0488    -2.6293 O.2     
  19 C19            5.3319    -1.8958     0.0865 C.3     
  20 C20            0.2298     2.7610    -3.1971 C.3     
  21 N21           -4.9624     0.4836     0.3028 N.ar    
  22 C22           -4.2391     2.7245     0.4933 C.ar    
  23 C23           -5.5554     3.1528     0.4936 C.ar    
  24 C24           -6.5613     2.2023     0.3929 C.ar    
  25 C25           -6.2236     0.8646     0.3010 C.ar    
  26 F26           -3.2999    -1.3778     0.4410 F       
  27 C27           -8.0082     2.6236     0.3893 C.3     
  28 F28           -8.4225     2.8579    -0.9262 F       
  29 F29           -8.7907     1.6089     0.9509 F       
  30 F30           -8.1547     3.7950     1.1400 F       
  31 H31            1.0818    -0.3456     0.3854 H       
  32 H32           -0.7598    -1.9755     0.4332 H       
  33 H33           -1.7260     2.8626     0.3513 H       
  34 H34            0.5813     3.3011     0.7359 H       
  35 H35            1.7482     1.9724     0.9386 H       
  36 H36           -0.1912     3.8823    -1.4066 H       
  37 H37            4.5121    -0.1131    -2.0195 H       
  38 H38            2.4271     4.2421    -2.9273 H       
  39 H39            1.0753     5.3957    -2.8260 H       
  40 H40            2.0568     5.0459    -1.3829 H       
  41 H41            3.5164    -0.8514     2.0422 H       
  42 H42            4.8691    -2.8410    -0.1975 H       
  43 H43            6.1462    -1.6689    -0.6016 H       
  44 H44            5.7240    -1.9735     1.1005 H       
  45 H45           -0.3601     1.8841    -2.9302 H       
  46 H46           -0.3762     3.4365    -3.8009 H       
  47 H47            1.1051     2.4501    -3.7675 H       
  48 H48           -3.4313     3.4371     0.5706 H       
  49 H49           -5.7941     4.2032     0.5710 H       
  50 H50           -7.0041     0.1223     0.2224 H       
@<TRIPOS>BOND
   1    1    2 ar
   2    1    8 1
   3    1    6 ar
   4    2    3 ar
   5    2   31 1
   6    3    4 ar
   7    3   32 1
   8    4    5 ar
   9    4   26 1
  10    5    6 ar
  11    5    7 1
  12    6   33 1
  13    7   21 ar
  14    7   22 ar
  15    8    9 1
  16    8   34 1
  17    8   35 1
  18    9   10 1
  19    9   11 am
  20   10   20 1
  21   10   14 1
  22   10   36 1
  23   11   12 1
  24   11   18 2
  25   12   13 2
  26   12   15 1
  27   13   17 1
  28   13   37 1
  29   14   38 1
  30   14   39 1
  31   14   40 1
  32   15   16 2
  33   16   17 1
  34   16   41 1
  35   17   19 1
  36   19   42 1
  37   19   43 1
  38   19   44 1
  39   20   45 1
  40   20   46 1
  41   20   47 1
  42   21   25 ar
  43   22   23 ar
  44   22   48 1
  45   23   24 ar
  46   23   49 1
  47   24   25 ar
  48   24   27 1
  49   25   50 1
  50   27   28 1
  51   27   29 1
  52   27   30 1

#	End of record

