#	Name: ASD03092728
#	Creating user name:	WinNT
#	Creation time:	15. 06. 2019 20:33

#	Modifying user name:	WinNT
#	Modification time:	15. 06. 2019 20:33

#	Program:	/corina/corina34_cracker 3.40 0067  02.08.2006

@<TRIPOS>MOLECULE
ASD03092728
  55   58    0    0    0
SMALL
NO_CHARGES


@<TRIPOS>ATOM
   1 C1             0.1693     1.3128    -0.3588 C.2     
   2 O2            -0.5688     1.3389     0.6075 O.2     
   3 C3             2.6585     1.4809    -0.1686 C.ar    
   4 C4             1.4116     2.1052    -0.3585 C.ar    
   5 C5             1.3716     3.4902    -0.5475 C.ar    
   6 C6             2.5761     4.1928    -0.5389 C.ar    
   7 C7             3.7697     3.4978    -0.3440 C.ar    
   8 N8             3.7754     2.1923    -0.1687 N.ar    
   9 N9             2.7173     0.1140     0.0254 N.pl3   
  10 C10            4.0160    -0.5586     0.1103 C.3     
  11 C11            3.8008    -2.0580     0.3254 C.3     
  12 C12            5.1571    -2.7604     0.4141 C.3     
  13 C13            2.5881     5.6634    -0.7354 C.ar    
  14 C14            3.7956     6.3593    -0.7256 C.ar    
  15 C15            3.8037     7.7262    -0.9090 C.ar    
  16 C16            2.6104     8.4091    -1.1027 C.ar    
  17 C17            1.4060     7.7184    -1.1128 C.ar    
  18 C18            1.3923     6.3508    -0.9357 C.ar    
  19 O19            2.6213     9.7558    -1.2822 O.3     
  20 C20            2.2396    10.5413    -0.2411 C.ar    
  21 C21            1.9662     9.9727     0.9948 C.ar    
  22 C22            1.5783    10.7734     2.0514 C.ar    
  23 C23            1.4619    12.1403     1.8783 C.ar    
  24 C24            1.7338    12.7094     0.6478 C.ar    
  25 C25            2.1280    11.9140    -0.4105 C.ar    
  26 C26           -0.1765     0.4822    -1.5299 C.ar    
  27 C27           -1.2898    -0.3612    -1.4874 C.ar    
  28 C28           -1.6077    -1.1340    -2.5832 C.ar    
  29 C29           -0.8249    -1.0761    -3.7264 C.ar    
  30 C30            0.2812    -0.2409    -3.7743 C.ar    
  31 C31            0.6050     0.5411    -2.6867 C.ar    
  32 F32           -1.1407    -1.8366    -4.7975 F       
  33 H33            0.4324     4.0023    -0.6965 H       
  34 H34            4.7044     4.0388    -0.3372 H       
  35 H35            1.8987    -0.4002     0.1053 H       
  36 H36            4.5686    -0.4000    -0.8158 H       
  37 H37            4.5831    -0.1493     0.9464 H       
  38 H38            3.2482    -2.2166     1.2515 H       
  39 H39            3.2337    -2.4673    -0.5107 H       
  40 H40            5.7097    -2.6019    -0.5119 H       
  41 H41            5.7242    -2.3512     1.2502 H       
  42 H42            5.0037    -3.8287     0.5674 H       
  43 H43            4.7241     5.8288    -0.5743 H       
  44 H44            4.7391     8.2660    -0.9015 H       
  45 H45            0.4792     8.2522    -1.2634 H       
  46 H46            0.4555     5.8135    -0.9482 H       
  47 H47            2.0562     8.9050     1.1303 H       
  48 H48            1.3654    10.3313     3.0136 H       
  49 H49            1.1578    12.7645     2.7056 H       
  50 H50            1.6418    13.7773     0.5152 H       
  51 H51            2.3446    12.3595    -1.3702 H       
  52 H52           -1.8997    -0.4075    -0.5973 H       
  53 H53           -2.4679    -1.7862    -2.5514 H       
  54 H54            0.8873    -0.1998    -4.6672 H       
  55 H55            1.4639     1.1946    -2.7267 H       
@<TRIPOS>BOND
   1    1    2 2
   2    1    4 1
   3    1   26 1
   4    3    4 ar
   5    3    8 ar
   6    3    9 1
   7    4    5 ar
   8    5    6 ar
   9    5   33 1
  10    6    7 ar
  11    6   13 1
  12    7    8 ar
  13    7   34 1
  14    9   10 1
  15    9   35 1
  16   10   11 1
  17   10   36 1
  18   10   37 1
  19   11   12 1
  20   11   38 1
  21   11   39 1
  22   12   40 1
  23   12   41 1
  24   12   42 1
  25   13   14 ar
  26   13   18 ar
  27   14   15 ar
  28   14   43 1
  29   15   16 ar
  30   15   44 1
  31   16   17 ar
  32   16   19 1
  33   17   18 ar
  34   17   45 1
  35   18   46 1
  36   19   20 1
  37   20   21 ar
  38   20   25 ar
  39   21   22 ar
  40   21   47 1
  41   22   23 ar
  42   22   48 1
  43   23   24 ar
  44   23   49 1
  45   24   25 ar
  46   24   50 1
  47   25   51 1
  48   26   27 ar
  49   26   31 ar
  50   27   28 ar
  51   27   52 1
  52   28   29 ar
  53   28   53 1
  54   29   30 ar
  55   29   32 1
  56   30   31 ar
  57   30   54 1
  58   31   55 1

#	End of record

