#	Name: ASD05430680
#	Creating user name:	WinNT
#	Creation time:	15. 06. 2019 21:00

#	Modifying user name:	WinNT
#	Modification time:	15. 06. 2019 21:00

#	Program:	/corina/corina34_cracker 3.40 0067  02.08.2006

@<TRIPOS>MOLECULE
ASD05430680
  21   21    0    0    0
SMALL
NO_CHARGES


@<TRIPOS>ATOM
   1 Cl1           -3.9258     2.1946     0.0707 Cl      
   2 C2            -0.0167     1.3780     0.0096 C.ar    
   3 C3             0.0021    -0.0041     0.0020 C.ar    
   4 C4            -1.1852    -0.7123     0.0091 C.ar    
   5 C5            -2.4112     1.3467     0.0439 C.ar    
   6 C6            -1.2226     2.0536     0.0305 C.ar    
   7 C7             1.2783     2.1488     0.0014 C.3     
   8 C8            -2.3926    -0.0380     0.0242 C.ar    
   9 C9             1.3358     3.0361    -1.2437 C.3     
  10 C10            1.3596     3.0227     1.2546 C.3     
  11 Cl11          -3.8836    -0.9270     0.0404 Cl      
  12 H12            0.9448    -0.5310    -0.0098 H       
  13 H13           -1.1698    -1.7922     0.0024 H       
  14 H14           -1.2364     3.1334     0.0462 H       
  15 H15            2.1160     1.4515    -0.0104 H       
  16 H16            1.2778     2.4135    -2.1365 H       
  17 H17            0.4980     3.7333    -1.2320 H       
  18 H18            2.2724     3.5935    -1.2497 H       
  19 H19            1.3187     2.3905     2.1417 H       
  20 H20            2.2963     3.5801     1.2487 H       
  21 H21            0.5219     3.7199     1.2664 H       
@<TRIPOS>BOND
   1    1    5 1
   2    2    3 ar
   3    2    7 1
   4    2    6 ar
   5    3    4 ar
   6    3   12 1
   7    4    8 ar
   8    4   13 1
   9    5    6 ar
  10    5    8 ar
  11    6   14 1
  12    7    9 1
  13    7   10 1
  14    7   15 1
  15    8   11 1
  16    9   16 1
  17    9   17 1
  18    9   18 1
  19   10   19 1
  20   10   20 1
  21   10   21 1

#	End of record

