#	Name: ASD01915239
#	Creating user name:	WinNT
#	Creation time:	15. 06. 2019 20:05

#	Modifying user name:	WinNT
#	Modification time:	15. 06. 2019 20:05

#	Program:	/corina/corina34_cracker 3.40 0067  02.08.2006

@<TRIPOS>MOLECULE
ASD01915239
  33   34    0    0    0
SMALL
NO_CHARGES


@<TRIPOS>ATOM
   1 C1             0.1162     1.1303    -0.7288 C.ar    
   2 C2             0.0100    -0.0150     0.0632 C.ar    
   3 C3            -1.1708    -0.7350     0.0879 C.ar    
   4 C4            -2.2521    -0.3259    -0.6704 C.ar    
   5 C5            -2.1575     0.8186    -1.4662 C.ar    
   6 C6            -0.9722     1.5510    -1.4904 C.ar    
   7 F7            -1.2677    -1.8425     0.8556 F       
   8 C8             1.3791     1.8983    -0.7545 C.2     
   9 N9             2.4293     1.4934    -0.0131 N.am    
  10 O10            1.4704     2.8951    -1.4443 O.2     
  11 C11            3.6538     2.1617    -0.1115 C.ar    
  12 C12            3.6827     3.5362    -0.3074 C.ar    
  13 C13            4.8938     4.1933    -0.4042 C.ar    
  14 C14            6.0766     3.4839    -0.3067 C.ar    
  15 C15            6.0514     2.1148    -0.1120 C.ar    
  16 C16            4.8440     1.4529    -0.0078 C.ar    
  17 S17            7.5616     1.2154     0.0104 S.o2    
  18 C18            7.9557     1.2315     1.7810 C.3     
  19 O19            7.2225    -0.0980    -0.4131 O.2     
  20 O20            8.4970     2.0007    -0.7159 O.2     
  21 C21           -3.2782     1.2413    -2.2511 C.1     
  22 N22           -4.1672     1.5767    -2.8738 N.1     
  23 H23            0.8516    -0.3394     0.6572 H       
  24 H24           -3.1715    -0.8923    -0.6479 H       
  25 H25           -0.8946     2.4366    -2.1037 H       
  26 H26            2.3358     0.7384     0.5887 H       
  27 H27            2.7591     4.0908    -0.3843 H       
  28 H28            4.9169     5.2622    -0.5565 H       
  29 H29            7.0222     3.9999    -0.3830 H       
  30 H30            4.8250     0.3838     0.1442 H       
  31 H31            7.1502     0.7517     2.3369 H       
  32 H32            8.8867     0.6906     1.9508 H       
  33 H33            8.0672     2.2617     2.1190 H       
@<TRIPOS>BOND
   1    1    2 ar
   2    1    8 1
   3    1    6 ar
   4    2    3 ar
   5    2   23 1
   6    3    4 ar
   7    3    7 1
   8    4    5 ar
   9    4   24 1
  10    5    6 ar
  11    5   21 1
  12    6   25 1
  13    8    9 am
  14    8   10 2
  15    9   11 1
  16    9   26 1
  17   11   12 ar
  18   11   16 ar
  19   12   13 ar
  20   12   27 1
  21   13   14 ar
  22   13   28 1
  23   14   15 ar
  24   14   29 1
  25   15   16 ar
  26   15   17 1
  27   16   30 1
  28   17   18 1
  29   17   19 2
  30   17   20 2
  31   18   31 1
  32   18   32 1
  33   18   33 1
  34   21   22 3

#	End of record

