#	Name: ASD03930058
#	Creating user name:	WinNT
#	Creation time:	15. 06. 2019 20:47

#	Modifying user name:	WinNT
#	Modification time:	15. 06. 2019 20:47

#	Program:	/corina/corina34_cracker 3.40 0067  02.08.2006

@<TRIPOS>MOLECULE
ASD03930058
  21   23    0    0    0
SMALL
NO_CHARGES


@<TRIPOS>ATOM
   1 C1            -0.0166     1.3720     0.0096 C.ar    
   2 C2             0.0021    -0.0041     0.0020 C.ar    
   3 C3             1.2008    -0.7095    -0.0018 C.ar    
   4 C4             2.4016    -0.0376     0.0010 C.ar    
   5 C5             2.3817     1.3739    -0.0149 C.ar    
   6 C6             1.1901     2.0807     0.0019 C.ar    
   7 C7             3.7061    -0.7807     0.0512 C.3     
   8 N8             4.7971    -0.0710    -0.6226 N.am    
   9 S9             5.1679     1.4864    -0.1376 S.o2    
  10 C10            3.5604     2.2537    -0.0693 C.2     
  11 S11            1.5343     3.8048     0.0057 S.3     
  12 C12            3.2673     3.5322    -0.0555 C.2     
  13 O13            5.6513     1.4063     1.1963 O.2     
  14 O14            5.8800     2.0993    -1.2037 O.2     
  15 F15            1.1860    -2.0604    -0.0077 F       
  16 H16           -0.9575     1.9021     0.0169 H       
  17 H17           -0.9318    -0.5465    -0.0007 H       
  18 H18            3.9809    -0.9368     1.0944 H       
  19 H19            3.5744    -1.7531    -0.4235 H       
  20 H20            5.2957    -0.4971    -1.3373 H       
  21 H21            4.0036     4.3220    -0.0785 H       
@<TRIPOS>BOND
   1    1    2 ar
   2    1    6 ar
   3    1   16 1
   4    2    3 ar
   5    2   17 1
   6    3    4 ar
   7    3   15 1
   8    4    5 ar
   9    4    7 1
  10    5    6 ar
  11    5   10 1
  12    6   11 1
  13    7    8 1
  14    7   18 1
  15    7   19 1
  16    8    9 am
  17    8   20 1
  18    9   10 1
  19    9   13 2
  20    9   14 2
  21   10   12 2
  22   11   12 1
  23   12   21 1

#	End of record

