#	Name: ASD02038099
#	Creating user name:	WinNT
#	Creation time:	15. 06. 2019 20:16

#	Modifying user name:	WinNT
#	Modification time:	15. 06. 2019 20:16

#	Program:	/corina/corina34_cracker 3.40 0067  02.08.2006

@<TRIPOS>MOLECULE
ASD02038099
  50   51    0    0    0
SMALL
NO_CHARGES


@<TRIPOS>ATOM
   1 C1             0.2076     1.2235    -1.0077 C.ar    
   2 C2             0.1866    -0.1523    -0.8524 C.ar    
   3 C3             1.4140     1.8935    -1.1315 C.ar    
   4 C4             2.6026     1.1912    -1.1009 C.ar    
   5 C5             2.5864    -0.1950    -0.9445 C.ar    
   6 C6             1.3678    -0.8638    -0.8199 C.ar    
   7 C7             3.8551    -0.9526    -0.9114 C.2     
   8 N8             5.1907    -3.8430     0.5011 N.3     
   9 C9             5.1304    -3.0422    -0.7290 C.3     
  10 C10            3.8369    -2.2698    -0.7627 C.2     
  11 C11            6.4409    -4.6112     0.5685 C.3     
  12 C12            6.4671    -5.4306     1.8603 C.3     
  13 C13            7.7693    -6.2308     1.9304 C.3     
  14 O14            6.3872    -4.5513     2.9838 O.3     
  15 O15            7.7432    -7.0835     3.0768 O.3     
  16 C16            8.8337    -7.8685     3.2874 C.ar    
  17 C17            8.8739    -8.7199     4.3816 C.ar    
  18 C18            9.9807    -9.5177     4.5960 C.ar    
  19 C19           11.0534    -9.4673     3.7156 C.ar    
  20 C20           11.0123    -8.6146     2.6204 C.ar    
  21 C21            9.9024    -7.8214     2.4046 C.ar    
  22 Cl22          -1.2834     2.1113    -1.0548 Cl      
  23 Cl23           1.4314     3.6184    -1.3260 Cl      
  24 N24           12.1755   -10.2749     3.9323 N.am    
  25 S25           13.5746    -9.6091     4.5167 S.o2    
  26 O26           14.4681   -10.7089     4.6237 O.2     
  27 O27           13.8444    -8.5292     3.6334 O.2     
  28 C28           13.1281    -8.9893     6.1620 C.3     
  29 H29           -0.7567    -0.6693    -0.7560 H       
  30 H30            3.5426     1.7139    -1.1981 H       
  31 H31            1.3497    -1.9368    -0.6983 H       
  32 H32            4.7970    -0.4330    -1.0084 H       
  33 H33            5.0797    -3.2606     1.3175 H       
  34 H34            5.9695    -2.3468    -0.7513 H       
  35 H35            5.1823    -3.7021    -1.5950 H       
  36 H36            2.8950    -2.7893    -0.6658 H       
  37 H37            6.5019    -5.2820    -0.2886 H       
  38 H38            7.2891    -3.9267     0.5552 H       
  39 H39            5.6189    -6.1151     1.8736 H       
  40 H40            7.8729    -6.8359     1.0298 H       
  41 H41            8.6133    -5.5453     2.0067 H       
  42 H42            7.1118    -3.9131     3.0361 H       
  43 H43            8.0397    -8.7587     5.0664 H       
  44 H44           10.0121   -10.1803     5.4482 H       
  45 H45           11.8461    -8.5748     1.9352 H       
  46 H46            9.8701    -7.1584     1.5527 H       
  47 H47           12.1337   -11.2248     3.7401 H       
  48 H48           12.6985    -9.7995     6.7512 H       
  49 H49           14.0195    -8.6099     6.6616 H       
  50 H50           12.3980    -8.1862     6.0620 H       
@<TRIPOS>BOND
   1    1    2 ar
   2    1    3 ar
   3    1   22 1
   4    2    6 ar
   5    2   29 1
   6    3    4 ar
   7    3   23 1
   8    4    5 ar
   9    4   30 1
  10    5    6 ar
  11    5    7 1
  12    6   31 1
  13    7   10 2
  14    7   32 1
  15    8    9 1
  16    8   11 1
  17    8   33 1
  18    9   10 1
  19    9   34 1
  20    9   35 1
  21   10   36 1
  22   11   12 1
  23   11   37 1
  24   11   38 1
  25   12   14 1
  26   12   13 1
  27   12   39 1
  28   13   15 1
  29   13   40 1
  30   13   41 1
  31   14   42 1
  32   15   16 1
  33   16   17 ar
  34   16   21 ar
  35   17   18 ar
  36   17   43 1
  37   18   19 ar
  38   18   44 1
  39   19   20 ar
  40   19   24 1
  41   20   21 ar
  42   20   45 1
  43   21   46 1
  44   24   25 am
  45   24   47 1
  46   25   26 2
  47   25   27 2
  48   25   28 1
  49   28   48 1
  50   28   49 1
  51   28   50 1

#	End of record

