#	Name: ASD01813690
#	Creating user name:	WinNT
#	Creation time:	15. 06. 2019 19:30

#	Modifying user name:	WinNT
#	Modification time:	15. 06. 2019 19:30

#	Program:	/corina/corina34_cracker 3.40 0067  02.08.2006

@<TRIPOS>MOLECULE
ASD01813690
  52   56    0    0    0
SMALL
NO_CHARGES


@<TRIPOS>ATOM
   1 C1             0.0966     1.4746     0.3425 C.ar    
   2 C2             0.0785     0.0883     0.3346 C.ar    
   3 C3             1.2491    -0.6318     0.2089 C.ar    
   4 C4             2.4672     0.0342     0.0877 C.ar    
   5 C5             2.4840     1.4395     0.0954 C.ar    
   6 C6             1.2913     2.1558     0.2237 C.ar    
   7 N7             3.6436    -0.6744    -0.0375 N.pl3   
   8 C8             4.8384    -0.0816    -0.1558 C.2     
   9 C9             4.9807     1.2913    -0.1608 C.2     
  10 C10            3.7786     2.1315    -0.0336 C.2     
  11 O11            3.8512     3.3480    -0.0331 O.2     
  12 C12            6.3100     1.9041    -0.2917 C.2     
  13 O13            6.4361     3.2463    -0.2953 O.3     
  14 O14            7.2959     1.2007    -0.3969 O.2     
  15 C15            3.5837    -2.1382    -0.0406 C.3     
  16 C16            3.4403    -2.6321    -1.4571 C.ar    
  17 C17            4.5502    -2.7827    -2.2698 C.ar    
  18 C18            4.3783    -3.2407    -3.5709 C.ar    
  19 N19            3.1711    -3.5298    -4.0296 N.ar    
  20 C20            2.0950    -3.3962    -3.2785 C.ar    
  21 C21            2.1924    -2.9516    -1.9746 C.ar    
  22 F22            1.2141    -1.9824     0.2039 F       
  23 F23            1.3071     3.5067     0.2307 F       
  24 N24            5.4895    -3.3968    -4.4016 N.pl3   
  25 C25            6.7680    -3.1322    -4.0389 C.2     
  26 C26            7.6105    -3.3954    -5.0971 C.2     
  27 C27            6.7522    -3.8641    -6.2035 C.ar    
  28 C28            5.4398    -3.8487    -5.7076 C.ar    
  29 C29            7.0010    -4.2763    -7.5095 C.ar    
  30 C30            5.9517    -4.6638    -8.3145 C.ar    
  31 C31            4.6529    -4.6438    -7.8280 C.ar    
  32 C32            4.3940    -4.2454    -6.5345 C.ar    
  33 C33            9.0198    -3.2457    -5.1193 C.2     
  34 C34            9.7445    -2.7517    -3.8938 C.3     
  35 O35            9.6431    -3.5153    -6.1256 O.2     
  36 H36           -0.8285     2.0238     0.4375 H       
  37 H37           -0.8622    -0.4340     0.4282 H       
  38 H38            5.7200    -0.6982    -0.2502 H       
  39 H39            7.3306     3.6029    -0.3838 H       
  40 H40            4.4991    -2.5403     0.3934 H       
  41 H41            2.7273    -2.4680     0.5476 H       
  42 H42            5.5365    -2.5473    -1.8983 H       
  43 H43            1.1259    -3.6418    -3.6870 H       
  44 H44            1.3060    -2.8452    -1.3667 H       
  45 H45            7.0788    -2.7704    -3.0699 H       
  46 H46            8.0116    -4.2919    -7.8904 H       
  47 H47            6.1414    -4.9842    -9.3283 H       
  48 H48            3.8375    -4.9488    -8.4672 H       
  49 H49            3.3791    -4.2337    -6.1655 H       
  50 H50           10.0273    -3.6011    -3.2719 H       
  51 H51           10.6399    -2.2083    -4.1955 H       
  52 H52            9.0905    -2.0886    -3.3276 H       
@<TRIPOS>BOND
   1    1    2 ar
   2    1    6 ar
   3    1   36 1
   4    2    3 ar
   5    2   37 1
   6    3    4 ar
   7    3   22 1
   8    4    5 ar
   9    4    7 1
  10    5    6 ar
  11    5   10 1
  12    6   23 1
  13    7    8 1
  14    7   15 1
  15    8    9 2
  16    8   38 1
  17    9   10 1
  18    9   12 1
  19   10   11 2
  20   12   13 1
  21   12   14 2
  22   13   39 1
  23   15   16 1
  24   15   40 1
  25   15   41 1
  26   16   17 ar
  27   16   21 ar
  28   17   18 ar
  29   17   42 1
  30   18   19 ar
  31   18   24 1
  32   19   20 ar
  33   20   21 ar
  34   20   43 1
  35   21   44 1
  36   24   25 1
  37   24   28 1
  38   25   26 2
  39   25   45 1
  40   26   27 1
  41   26   33 1
  42   27   28 ar
  43   27   29 ar
  44   28   32 ar
  45   29   30 ar
  46   29   46 1
  47   30   31 ar
  48   30   47 1
  49   31   32 ar
  50   31   48 1
  51   32   49 1
  52   33   34 1
  53   33   35 2
  54   34   50 1
  55   34   51 1
  56   34   52 1

#	End of record

