#	Name: ASD01915038
#	Creating user name:	WinNT
#	Creation time:	15. 06. 2019 20:04

#	Modifying user name:	WinNT
#	Modification time:	15. 06. 2019 20:04

#	Program:	/corina/corina34_cracker 3.40 0067  02.08.2006

@<TRIPOS>MOLECULE
ASD01915038
  32   34    0    0    0
SMALL
NO_CHARGES


@<TRIPOS>ATOM
   1 C1            -0.0180     1.4737     0.0101 C.2     
   2 C2             0.0021    -0.0041     0.0020 C.ar    
   3 C3             1.2186    -0.6887    -0.0133 C.ar    
   4 C4             1.2302    -2.0681    -0.0203 C.ar    
   5 C5             0.0396    -2.7731    -0.0127 C.ar    
   6 C6            -1.1696    -2.1008     0.0024 C.ar    
   7 C7            -1.1954    -0.7216     0.0154 C.ar    
   8 O8             1.0263     2.0957     0.0035 O.2     
   9 N9            -1.1942     2.1316     0.0193 N.am    
  10 C10            0.0601    -4.2799    -0.0215 C.3     
  11 F11            0.0793    -4.7537     1.2947 F       
  12 F12           -1.0822    -4.7580    -0.6726 F       
  13 F13            1.2021    -4.7269    -0.6947 F       
  14 C14           -1.2130     3.5150     0.0269 C.2     
  15 N15           -0.1061     4.3141     0.0260 N.pl3   
  16 C16           -0.5471     5.6263     0.0352 C.ar    
  17 C17           -1.9509     5.5662     0.0416 C.ar    
  18 N18           -2.2945     4.2520     0.0304 N.2     
  19 C19           -2.6898     6.7518     0.0519 C.ar    
  20 C20           -2.0371     7.9643     0.0558 C.ar    
  21 C21           -0.6513     8.0178     0.0495 C.ar    
  22 C22            0.0931     6.8562     0.0393 C.ar    
  23 H23            2.1486    -0.1396    -0.0199 H       
  24 H24            2.1706    -2.5990    -0.0321 H       
  25 H25           -2.0953    -2.6571     0.0080 H       
  26 H26           -2.1399    -0.1980     0.0314 H       
  27 H27           -2.0276     1.6352     0.0206 H       
  28 H28            0.8175     4.0176     0.0203 H       
  29 H29           -3.7692     6.7175     0.0565 H       
  30 H30           -2.6088     8.8805     0.0635 H       
  31 H31           -0.1515     8.9752     0.0527 H       
  32 H32            1.1720     6.9047     0.0348 H       
@<TRIPOS>BOND
   1    1    2 1
   2    1    8 2
   3    1    9 am
   4    2    3 ar
   5    2    7 ar
   6    3    4 ar
   7    3   23 1
   8    4    5 ar
   9    4   24 1
  10    5    6 ar
  11    5   10 1
  12    6    7 ar
  13    6   25 1
  14    7   26 1
  15    9   14 1
  16    9   27 1
  17   10   11 1
  18   10   12 1
  19   10   13 1
  20   14   15 1
  21   14   18 2
  22   15   16 1
  23   15   28 1
  24   16   17 ar
  25   16   22 ar
  26   17   18 1
  27   17   19 ar
  28   19   20 ar
  29   19   29 1
  30   20   21 ar
  31   20   30 1
  32   21   22 ar
  33   21   31 1
  34   22   32 1

#	End of record

