#	Name: ASD03320098
#	Creating user name:	WinNT
#	Creation time:	15. 06. 2019 20:36

#	Modifying user name:	WinNT
#	Modification time:	15. 06. 2019 20:36

#	Program:	/corina/corina34_cracker 3.40 0067  02.08.2006

@<TRIPOS>MOLECULE
ASD03320098
  30   31    0    0    0
SMALL
NO_CHARGES


@<TRIPOS>ATOM
   1 C1            -0.0179     1.4698     0.0101 C.2     
   2 C2             0.0021    -0.0041     0.0020 C.ar    
   3 C3             1.2217    -0.6997    -0.0134 C.ar    
   4 C4             1.1926    -2.0683    -0.0200 C.ar    
   5 C5            -0.0373    -2.7264    -0.0113 C.ar    
   6 N6            -1.1747    -2.0450     0.0032 N.ar    
   7 C7            -1.1913    -0.7285     0.0154 C.ar    
   8 O8             1.0260     2.0916     0.0035 O.2     
   9 O9            -1.1940     2.1277     0.0193 O.3     
  10 N10           -0.0709    -4.1106    -0.0184 N.3     
  11 C11           -1.4598    -4.6056    -0.0072 C.3     
  12 C12           -1.6314    -5.5138    -1.2430 C.3     
  13 C13           -0.1752    -5.9364    -1.5710 C.3     
  14 C14            0.6118    -4.6511    -1.2132 C.3     
  15 O15           -2.4292    -6.6556    -0.9239 O.3     
  16 Br16           2.8042    -3.0573    -0.0413 Br      
  17 C17           -1.1376     3.5785     0.0269 C.3     
  18 H18            2.1613    -0.1672    -0.0202 H       
  19 H19           -2.1357    -0.2048     0.0318 H       
  20 H20           -1.6421    -5.1783     0.9021 H       
  21 H21           -2.1529    -3.7663    -0.0647 H       
  22 H22           -2.0674    -4.9574    -2.0727 H       
  23 H23            0.1387    -6.7730    -0.9467 H       
  24 H24           -0.0676    -6.1785    -2.6284 H       
  25 H25            0.5634    -3.9356    -2.0340 H       
  26 H26            1.6488    -4.8934    -0.9805 H       
  27 H27           -2.5674    -7.2589    -1.6669 H       
  28 H28           -0.6059     3.9168     0.9162 H       
  29 H29           -0.6143     3.9265    -0.8637 H       
  30 H30           -2.1504     3.9814     0.0339 H       
@<TRIPOS>BOND
   1    1    2 1
   2    1    8 2
   3    1    9 1
   4    2    3 ar
   5    2    7 ar
   6    3    4 ar
   7    3   18 1
   8    4    5 ar
   9    4   16 1
  10    5    6 ar
  11    5   10 1
  12    6    7 ar
  13    7   19 1
  14    9   17 1
  15   10   11 1
  16   10   14 1
  17   11   12 1
  18   11   20 1
  19   11   21 1
  20   12   13 1
  21   12   15 1
  22   12   22 1
  23   13   14 1
  24   13   23 1
  25   13   24 1
  26   14   25 1
  27   14   26 1
  28   15   27 1
  29   17   28 1
  30   17   29 1
  31   17   30 1

#	End of record

