#	Name: ASD01884276
#	Creating user name:	WinNT
#	Creation time:	15. 06. 2019 19:47

#	Modifying user name:	WinNT
#	Modification time:	15. 06. 2019 19:47

#	Program:	/corina/corina34_cracker 3.40 0067  02.08.2006

@<TRIPOS>MOLECULE
ASD01884276
  26   28    0    0    0
SMALL
NO_CHARGES


@<TRIPOS>ATOM
   1 C1            -0.0168     1.3842     0.0097 C.ar    
   2 C2             0.0021    -0.0041     0.0020 C.ar    
   3 C3            -1.1698    -0.7236     0.0093 C.ar    
   4 C4            -2.4126    -0.0729     0.0241 C.ar    
   5 C5            -2.4124     1.3225     0.0317 C.ar    
   6 C6            -1.2341     2.0466     0.0306 C.ar    
   7 N7            -3.6739    -0.6458     0.0326 N.am    
   8 C8            -4.7417     0.1577     0.0467 C.2     
   9 S9            -4.1118     1.8133     0.0498 S.3     
  10 O10           -5.9111    -0.1799     0.0549 O.2     
  11 C11           -3.8339    -2.1021     0.0257 C.3     
  12 C12           -3.8762    -2.6173     1.4657 C.3     
  13 C13           -4.1567    -4.1067     1.6752 C.3     
  14 C14           -2.7512    -3.5518     1.9150 C.3     
  15 F15           -1.7626    -3.8698     0.9777 F       
  16 F16           -2.3153    -3.4475     3.2403 F       
  17 O17            1.1473     2.0869     0.0023 O.3     
  18 H18            0.9481    -0.5250    -0.0101 H       
  19 H19           -1.1330    -1.8029     0.0031 H       
  20 H20           -1.2625     3.1262     0.0366 H       
  21 H21           -4.7630    -2.3631    -0.4810 H       
  22 H22           -2.9938    -2.5574    -0.4986 H       
  23 H23           -4.2771    -1.9212     2.2025 H       
  24 H24           -4.7418    -4.3905     2.5500 H       
  25 H25           -4.3111    -4.7195     0.7871 H       
  26 H26            1.4756     2.2949    -0.8832 H       
@<TRIPOS>BOND
   1    1    2 ar
   2    1   17 1
   3    1    6 ar
   4    2    3 ar
   5    2   18 1
   6    3    4 ar
   7    3   19 1
   8    4    5 ar
   9    4    7 1
  10    5    6 ar
  11    5    9 1
  12    6   20 1
  13    7    8 am
  14    7   11 1
  15    8    9 1
  16    8   10 2
  17   11   12 1
  18   11   21 1
  19   11   22 1
  20   12   13 1
  21   12   14 1
  22   12   23 1
  23   13   14 1
  24   13   24 1
  25   13   25 1
  26   14   15 1
  27   14   16 1
  28   17   26 1

#	End of record

