#	Name: ASD03331799
#	Creating user name:	WinNT
#	Creation time:	15. 06. 2019 20:39

#	Modifying user name:	WinNT
#	Modification time:	15. 06. 2019 20:39

#	Program:	/corina/corina34_cracker 3.40 0067  02.08.2006

@<TRIPOS>MOLECULE
ASD03331799
  63   64    0    0    0
SMALL
NO_CHARGES


@<TRIPOS>ATOM
   1 C1             0.4285     1.9995     0.7651 C.2     
   2 N2             0.6123     0.7022     1.1252 N.pl3   
   3 C3            -0.6170     0.1483     1.3056 C.2     
   4 N4            -1.5277     1.0671     1.0636 N.2     
   5 C5            -0.9095     2.2225     0.7302 C.2     
   6 C6             1.5577     2.9558     0.4792 C.3     
   7 N7             2.7992     2.3674     1.0133 N.3     
   8 C8             2.9618     0.9765     0.5673 C.3     
   9 C9             1.9324     0.0820     1.2699 C.3     
  10 C10            3.9672     3.1784     0.6446 C.3     
  11 C11           -1.5702     3.4937     0.3848 C.2     
  12 O12           -0.9015     4.4693     0.1015 O.2     
  13 N13           -2.9155     3.5752     0.3829 N.am    
  14 C14           -3.5723     4.8389     0.0395 C.3     
  15 C15           -4.9394     4.8826     0.6721 C.2     
  16 C16           -3.7101     4.9455    -1.4805 C.3     
  17 C17           -4.5511     3.7775    -1.9996 C.3     
  18 C18           -4.3947     6.2659    -1.8392 C.3     
  19 C19           -2.3222     4.8997    -2.1229 C.3     
  20 O20           -5.4718     3.8558     1.0371 O.2     
  21 N21           -5.5704     6.0626     0.8323 N.am    
  22 C22           -6.9341     6.0975     1.3666 C.3     
  23 C23           -0.8836    -1.2443     1.7039 C.2     
  24 C24           -2.1352    -1.6660     1.8474 C.2     
  25 C25           -2.4081    -3.0910     2.2550 C.3     
  26 C26           -1.0820    -3.8319     2.4382 C.3     
  27 C27           -3.1861    -3.1046     3.5723 C.3     
  28 C28           -3.2331    -3.7832     1.1682 C.3     
  29 H29            1.6526     3.1026    -0.5967 H       
  30 H30            1.3635     3.9114     0.9664 H       
  31 H31            2.8131     0.9220    -0.5112 H       
  32 H32            3.9670     0.6329     0.8113 H       
  33 H33            2.1830    -0.0069     2.3269 H       
  34 H34            1.9273    -0.9054     0.8083 H       
  35 H35            3.8541     4.1838     1.0504 H       
  36 H36            4.8695     2.7218     1.0513 H       
  37 H37            4.0446     3.2315    -0.4413 H       
  38 H38           -3.4488     2.7971     0.6089 H       
  39 H39           -2.9740     5.6715     0.4094 H       
  40 H40           -5.5398     3.8101    -1.5420 H       
  41 H41           -4.6492     3.8534    -3.0825 H       
  42 H42           -4.0633     2.8368    -1.7440 H       
  43 H43           -3.7881     7.0983    -1.4826 H       
  44 H44           -4.5064     6.3351    -2.9213 H       
  45 H45           -5.3775     6.3050    -1.3693 H       
  46 H46           -1.8344     3.9590    -1.8674 H       
  47 H47           -2.4204     4.9756    -3.2058 H       
  48 H48           -1.7231     5.7318    -1.7531 H       
  49 H49           -5.1217     6.8889     0.5937 H       
  50 H50           -6.9453     5.6556     2.3629 H       
  51 H51           -7.2756     7.1311     1.4237 H       
  52 H52           -7.5959     5.5319     0.7107 H       
  53 H53           -0.0617    -1.9226     1.8793 H       
  54 H54           -2.9571    -0.9877     1.6720 H       
  55 H55           -0.4943    -3.3388     3.2124 H       
  56 H56           -1.2794    -4.8626     2.7330 H       
  57 H57           -0.5277    -3.8222     1.4997 H       
  58 H58           -4.1308    -2.5768     3.4418 H       
  59 H59           -3.3835    -4.1353     3.8671 H       
  60 H60           -2.5984    -2.6115     4.3465 H       
  61 H61           -2.6788    -3.7735     0.2297 H       
  62 H62           -3.4305    -4.8139     1.4630 H       
  63 H63           -4.1778    -3.2554     1.0377 H       
@<TRIPOS>BOND
   1    1    2 1
   2    1    6 1
   3    1    5 2
   4    2    3 1
   5    2    9 1
   6    3    4 2
   7    3   23 1
   8    4    5 1
   9    5   11 1
  10    6    7 1
  11    6   29 1
  12    6   30 1
  13    7    8 1
  14    7   10 1
  15    8    9 1
  16    8   31 1
  17    8   32 1
  18    9   33 1
  19    9   34 1
  20   10   35 1
  21   10   36 1
  22   10   37 1
  23   11   12 2
  24   11   13 am
  25   13   14 1
  26   13   38 1
  27   14   15 1
  28   14   16 1
  29   14   39 1
  30   15   20 2
  31   15   21 am
  32   16   17 1
  33   16   18 1
  34   16   19 1
  35   17   40 1
  36   17   41 1
  37   17   42 1
  38   18   43 1
  39   18   44 1
  40   18   45 1
  41   19   46 1
  42   19   47 1
  43   19   48 1
  44   21   22 1
  45   21   49 1
  46   22   50 1
  47   22   51 1
  48   22   52 1
  49   23   24 2
  50   23   53 1
  51   24   25 1
  52   24   54 1
  53   25   26 1
  54   25   27 1
  55   25   28 1
  56   26   55 1
  57   26   56 1
  58   26   57 1
  59   27   58 1
  60   27   59 1
  61   27   60 1
  62   28   61 1
  63   28   62 1
  64   28   63 1

#	End of record

