#	Name: ASD01813516
#	Creating user name:	WinNT
#	Creation time:	15. 06. 2019 19:30

#	Modifying user name:	WinNT
#	Modification time:	15. 06. 2019 19:30

#	Program:	/corina/corina34_cracker 3.40 0067  02.08.2006

@<TRIPOS>MOLECULE
ASD01813516
  47   51    0    0    0
SMALL
NO_CHARGES


@<TRIPOS>ATOM
   1 C1            -0.0168     1.3825    -0.0465 C.ar    
   2 C2             0.0020    -0.0038    -0.0536 C.ar    
   3 C3             1.1975    -0.6932    -0.0496 C.ar    
   4 C4             2.4040     0.0044    -0.0390 C.ar    
   5 C5             2.3834     1.4096    -0.0323 C.ar    
   6 C6             1.1657     2.0946    -0.0360 C.ar    
   7 N7             3.6050    -0.6734    -0.0339 N.pl3   
   8 C8             4.7898    -0.0496    -0.0228 C.2     
   9 C9             4.8962     1.3266    -0.0150 C.2     
  10 C10            3.6660     2.1351    -0.0211 C.2     
  11 O11            3.7066     3.3531    -0.0152 O.2     
  12 C12            6.2155     1.9737    -0.0018 C.2     
  13 O13            6.3065     3.3187     0.0057 O.3     
  14 O14            7.2249     1.2962     0.0024 O.2     
  15 C15            3.5837    -2.1382    -0.0406 C.3     
  16 C16            3.4403    -2.6321    -1.4571 C.ar    
  17 N17            2.2383    -2.7342    -1.9904 N.ar    
  18 C18            2.0589    -3.1598    -3.2241 C.ar    
  19 C19            3.1477    -3.5205    -4.0152 C.ar    
  20 C20            4.4349    -3.4234    -3.4786 C.ar    
  21 C21            4.5716    -2.9657    -2.1795 C.ar    
  22 C22            2.9443    -4.0001    -5.4040 C.ar    
  23 F23            1.1984    -2.0441    -0.0557 F       
  24 C24            1.6586    -4.0910    -5.9217 C.ar    
  25 C25            1.4710    -4.5404    -7.2224 C.ar    
  26 C26            2.5889    -4.8981    -7.9993 C.ar    
  27 C27            3.8761    -4.8007    -7.4630 C.ar    
  28 C28            4.0492    -4.3528    -6.1867 C.ar    
  29 F29            1.1457     3.4455    -0.0300 F       
  30 N30            0.3534    -4.7378    -8.0034 N.pl3   
  31 C31            0.7238    -5.2035    -9.2353 C.2     
  32 C32            2.0600    -5.3223    -9.2973 C.2     
  33 H33           -0.9606     1.9075    -0.0539 H       
  34 H34           -0.9294    -0.5504    -0.0618 H       
  35 H35            5.6921    -0.6430    -0.0194 H       
  36 H36            7.1957     3.6986     0.0143 H       
  37 H37            4.5134    -2.5171     0.3839 H       
  38 H38            2.7418    -2.4920     0.5545 H       
  39 H39            1.0588    -3.2303    -3.6258 H       
  40 H40            5.3009    -3.6947    -4.0641 H       
  41 H41            5.5506    -2.8777    -1.7320 H       
  42 H42            0.8088    -3.8139    -5.3155 H       
  43 H43            4.7328    -5.0758    -8.0602 H       
  44 H44            5.0447    -4.2780    -5.7746 H       
  45 H45           -0.5598    -4.5719    -7.7217 H       
  46 H46            0.0424    -5.4405   -10.0390 H       
  47 H47            2.6357    -5.6651   -10.1444 H       
@<TRIPOS>BOND
   1    1    2 ar
   2    1    6 ar
   3    1   33 1
   4    2    3 ar
   5    2   34 1
   6    3    4 ar
   7    3   23 1
   8    4    5 ar
   9    4    7 1
  10    5    6 ar
  11    5   10 1
  12    6   29 1
  13    7    8 1
  14    7   15 1
  15    8    9 2
  16    8   35 1
  17    9   10 1
  18    9   12 1
  19   10   11 2
  20   12   13 1
  21   12   14 2
  22   13   36 1
  23   15   16 1
  24   15   37 1
  25   15   38 1
  26   16   17 ar
  27   16   21 ar
  28   17   18 ar
  29   18   19 ar
  30   18   39 1
  31   19   20 ar
  32   19   22 1
  33   20   21 ar
  34   20   40 1
  35   21   41 1
  36   22   24 ar
  37   22   28 ar
  38   24   25 ar
  39   24   42 1
  40   25   26 ar
  41   25   30 1
  42   26   27 ar
  43   26   32 1
  44   27   28 ar
  45   27   43 1
  46   28   44 1
  47   30   31 1
  48   30   45 1
  49   31   32 2
  50   31   46 1
  51   32   47 1

#	End of record

