#	Name: ASD01190086
#	Creating user name:	WinNT
#	Creation time:	15. 06. 2019 19:07

#	Modifying user name:	WinNT
#	Modification time:	15. 06. 2019 19:07

#	Program:	/corina/corina34_cracker 3.40 0067  02.08.2006

@<TRIPOS>MOLECULE
ASD01190086
  41   44    0    0    0
SMALL
NO_CHARGES


@<TRIPOS>ATOM
   1 C1            -0.1288     1.0445     0.4887 C.ar    
   2 C2            -0.1977    -0.3231     0.1592 C.ar    
   3 C3            -1.4221    -0.8790    -0.2014 C.ar    
   4 C4            -2.5416    -0.0965    -0.2322 C.ar    
   5 C5            -2.4758     1.2531     0.0921 C.ar    
   6 C6            -1.2902     1.8242     0.4541 C.ar    
   7 C7             1.2669     1.3177     0.8167 C.2     
   8 N8             1.9325     0.2053     0.6856 N.2     
   9 N9             1.0743    -0.8239     0.2846 N.pl3   
  10 C10            1.4522    -2.1521     0.0485 C.ar    
  11 C11            2.6959    -2.4339    -0.5014 C.ar    
  12 C12            0.5859    -3.1889     0.3692 C.ar    
  13 C13            0.9603    -4.4975     0.1356 C.ar    
  14 C14            2.1987    -4.7761    -0.4181 C.ar    
  15 C15            3.0664    -3.7438    -0.7334 C.ar    
  16 F16            2.5631    -6.0569    -0.6459 F       
  17 C17           -3.7264     2.0929     0.0492 C.3     
  18 C18           -3.8647     2.8546     1.3421 C.2     
  19 C19           -3.4904     4.1039     1.6152 C.2     
  20 S20           -4.5763     2.3105     2.8825 S.o2    
  21 C21           -4.3268     3.8001     3.8281 C.2     
  22 C22           -3.7366     4.6116     2.9490 C.2     
  23 O23           -5.9744     2.1535     2.6824 O.2     
  24 O24           -3.7265     1.3075     3.4220 O.2     
  25 Cl25          -4.7517     4.1184     5.4809 Cl      
  26 C26           -3.6385     3.0794    -1.1170 C.3     
  27 O27           -4.8633     1.2455    -0.1284 O.3     
  28 F28           -3.5102     2.3722    -2.3173 F       
  29 F29           -4.7995     3.8590    -1.1569 F       
  30 F30           -2.5255     3.9089    -0.9432 F       
  31 H31           -1.4868    -1.9264    -0.4565 H       
  32 H32           -3.4893    -0.5321    -0.5125 H       
  33 H33           -1.2473     2.8738     0.7048 H       
  34 H34            1.6753     2.2721     1.1148 H       
  35 H35            3.3727    -1.6291    -0.7477 H       
  36 H36           -0.3798    -2.9721     0.8013 H       
  37 H37            0.2870    -5.3042     0.3852 H       
  38 H38            4.0317    -3.9632    -1.1651 H       
  39 H39           -3.0172     4.7194     0.8644 H       
  40 H40           -3.4498     5.6159     3.2240 H       
  41 H41           -4.9816     0.5934     0.5757 H       
@<TRIPOS>BOND
   1    1    2 ar
   2    1    7 1
   3    1    6 ar
   4    2    3 ar
   5    2    9 1
   6    3    4 ar
   7    3   31 1
   8    4    5 ar
   9    4   32 1
  10    5    6 ar
  11    5   17 1
  12    6   33 1
  13    7    8 2
  14    7   34 1
  15    8    9 1
  16    9   10 1
  17   10   11 ar
  18   10   12 ar
  19   11   15 ar
  20   11   35 1
  21   12   13 ar
  22   12   36 1
  23   13   14 ar
  24   13   37 1
  25   14   15 ar
  26   14   16 1
  27   15   38 1
  28   17   18 1
  29   17   26 1
  30   17   27 1
  31   18   19 2
  32   18   20 1
  33   19   22 1
  34   19   39 1
  35   20   21 1
  36   20   23 2
  37   20   24 2
  38   21   22 2
  39   21   25 1
  40   22   40 1
  41   26   28 1
  42   26   29 1
  43   26   30 1
  44   27   41 1

#	End of record

