#	Name: ASD02039260
#	Creating user name:	WinNT
#	Creation time:	15. 06. 2019 20:17

#	Modifying user name:	WinNT
#	Modification time:	15. 06. 2019 20:17

#	Program:	/corina/corina34_cracker 3.40 0067  02.08.2006

@<TRIPOS>MOLECULE
ASD02039260
  46   49    0    0    0
SMALL
NO_CHARGES


@<TRIPOS>ATOM
   1 N1            -0.0160     1.3036    -0.0275 N.2     
   2 C2             0.0019    -0.0039    -0.0002 C.2     
   3 C3             1.3717    -0.3810     0.0196 C.2     
   4 C4             2.0347     0.7973     0.0008 C.2     
   5 O5             1.1031     1.7614    -0.0273 O.3     
   6 N6            -1.0994    -0.8549     0.0084 N.pl3   
   7 C7            -0.9164    -2.2357    -0.1058 C.ar    
   8 C8             0.1058    -2.7392    -0.9007 C.ar    
   9 C9             0.2841    -4.1040    -1.0109 C.ar    
  10 C10           -0.5536    -4.9696    -0.3311 C.ar    
  11 C11           -1.5722    -4.4719     0.4604 C.ar    
  12 C12           -1.7525    -3.1077     0.5796 C.ar    
  13 O13            4.0144     1.0218    -1.3330 O.3     
  14 C14            5.3531     1.1901    -1.5023 C.ar    
  15 C15            6.1811     1.3214    -0.3891 C.ar    
  16 C16            7.5280     1.4912    -0.5365 C.ar    
  17 C17            8.0903     1.5354    -1.8094 C.ar    
  18 C18            7.2624     1.4037    -2.9407 C.ar    
  19 C19            5.8845     1.2242    -2.7744 C.ar    
  20 C20            3.5293     0.9896     0.0107 C.3     
  21 C21           -0.3560    -6.4585    -0.4539 C.3     
  22 C22           -2.4827    -5.4188     1.1989 C.3     
  23 N23            9.3720     1.6898    -2.2747 N.pl3   
  24 N24            9.3573     1.6567    -3.6729 N.2     
  25 C25            8.1395     1.4905    -4.1038 C.2     
  26 C26           -1.2761    -7.0068    -1.5464 C.3     
  27 H27            1.7870    -1.3777     0.0444 H       
  28 H28           -1.9939    -0.4896     0.0936 H       
  29 H29            0.7600    -2.0639    -1.4321 H       
  30 H30            1.0783    -4.4961    -1.6290 H       
  31 H31           -2.5483    -2.7195     1.1981 H       
  32 H32            5.7526     1.2889     0.6017 H       
  33 H33            8.1577     1.5916     0.3352 H       
  34 H34            5.2411     1.1222    -3.6359 H       
  35 H35            3.7715     1.9293     0.5071 H       
  36 H36            3.9983     0.1643     0.5466 H       
  37 H37            0.6817    -6.6671    -0.7143 H       
  38 H38           -0.5952    -6.9363     0.4962 H       
  39 H39           -2.0663    -5.6292     2.1840 H       
  40 H40           -3.4670    -4.9639     1.3101 H       
  41 H41           -2.5734    -6.3482     0.6367 H       
  42 H42           10.1614     1.8036    -1.7226 H       
  43 H43            7.8334     1.4275    -5.1376 H       
  44 H44           -2.3138    -6.7982    -1.2860 H       
  45 H45           -1.0369    -6.5290    -2.4965 H       
  46 H46           -1.1332    -8.0837    -1.6352 H       
@<TRIPOS>BOND
   1    1    2 2
   2    1    5 1
   3    2    3 1
   4    2    6 1
   5    3    4 2
   6    3   27 1
   7    4    5 1
   8    4   20 1
   9    6    7 1
  10    6   28 1
  11    7    8 ar
  12    7   12 ar
  13    8    9 ar
  14    8   29 1
  15    9   10 ar
  16    9   30 1
  17   10   11 ar
  18   10   21 1
  19   11   12 ar
  20   11   22 1
  21   12   31 1
  22   13   14 1
  23   13   20 1
  24   14   15 ar
  25   14   19 ar
  26   15   16 ar
  27   15   32 1
  28   16   17 ar
  29   16   33 1
  30   17   18 ar
  31   17   23 1
  32   18   19 ar
  33   18   25 1
  34   19   34 1
  35   20   35 1
  36   20   36 1
  37   21   26 1
  38   21   37 1
  39   21   38 1
  40   22   39 1
  41   22   40 1
  42   22   41 1
  43   23   24 1
  44   23   42 1
  45   24   25 2
  46   25   43 1
  47   26   44 1
  48   26   45 1
  49   26   46 1

#	End of record

