#	Name: ASD03090523
#	Creating user name:	WinNT
#	Creation time:	15. 06. 2019 20:29

#	Modifying user name:	WinNT
#	Modification time:	15. 06. 2019 20:29

#	Program:	/corina/corina34_cracker 3.40 0067  02.08.2006

@<TRIPOS>MOLECULE
ASD03090523
  38   41    0    0    0
SMALL
NO_CHARGES


@<TRIPOS>ATOM
   1 C1            -0.0169     1.3930     0.0097 C.ar    
   2 C2             0.0021    -0.0041     0.0020 C.ar    
   3 C3             1.2376    -0.6369    -0.0132 C.ar    
   4 C4             2.3753     0.1542    -0.0198 C.ar    
   5 N5             2.2660     1.4714    -0.0112 N.ar    
   6 N6             1.1282     2.0652     0.0024 N.ar    
   7 C7            -1.3075     2.1203     0.0198 C.2     
   8 O8            -2.3535     1.5018     0.0214 O.2     
   9 N9            -1.3215     3.4680     0.0272 N.am    
  10 C10           -2.5978     4.1873     0.0371 C.3     
  11 N11           -1.6310     9.7308    -0.2106 N.pl3   
  12 C12           -1.6082     9.9042    -1.5677 C.2     
  13 C13           -1.8162     8.7293    -2.1827 C.2     
  14 C14           -1.9861     7.7210    -1.1337 C.ar    
  15 C15           -2.2265     6.3456    -1.1393 C.ar    
  16 C16           -2.3378     5.6716     0.0439 C.ar    
  17 C17           -2.2137     6.3434     1.2525 C.ar    
  18 C18           -1.9769     7.7001     1.2812 C.ar    
  19 C19           -1.8600     8.4064     0.0883 C.ar    
  20 C20            3.7385    -0.4879    -0.0363 C.3     
  21 C21            4.3401    -0.9032     1.3078 C.3     
  22 C22            3.8264    -1.9689     0.3377 C.3     
  23 H23           -0.9155    -0.5737     0.0081 H       
  24 H24            1.3100    -1.7144    -0.0193 H       
  25 H25           -0.4866     3.9617     0.0259 H       
  26 H26           -3.1708     3.9228    -0.8516 H       
  27 H27           -3.1624     3.9132     0.9283 H       
  28 H28           -1.5011    10.4352     0.4435 H       
  29 H29           -1.4472    10.8468    -2.0696 H       
  30 H30           -1.8516     8.5595    -3.2487 H       
  31 H31           -2.3250     5.8165    -2.0757 H       
  32 H32           -2.3042     5.7969     2.1797 H       
  33 H33           -1.8823     8.2138     2.2265 H       
  34 H34            4.4221    -0.1203    -0.8015 H       
  35 H35            5.4195    -0.8092     1.4267 H       
  36 H36            3.7498    -0.7120     2.2040 H       
  37 H37            2.8981    -2.4788     0.5955 H       
  38 H38            4.5678    -2.5760    -0.1818 H       
@<TRIPOS>BOND
   1    1    2 ar
   2    1    6 ar
   3    1    7 1
   4    2    3 ar
   5    2   23 1
   6    3    4 ar
   7    3   24 1
   8    4    5 ar
   9    4   20 1
  10    5    6 ar
  11    7    8 2
  12    7    9 am
  13    9   10 1
  14    9   25 1
  15   10   16 1
  16   10   26 1
  17   10   27 1
  18   11   12 1
  19   11   19 1
  20   11   28 1
  21   12   13 2
  22   12   29 1
  23   13   14 1
  24   13   30 1
  25   14   15 ar
  26   14   19 ar
  27   15   16 ar
  28   15   31 1
  29   16   17 ar
  30   17   18 ar
  31   17   32 1
  32   18   19 ar
  33   18   33 1
  34   20   21 1
  35   20   22 1
  36   20   34 1
  37   21   22 1
  38   21   35 1
  39   21   36 1
  40   22   37 1
  41   22   38 1

#	End of record

