#	Name: ASD03320203
#	Creating user name:	WinNT
#	Creation time:	15. 06. 2019 20:36

#	Modifying user name:	WinNT
#	Modification time:	15. 06. 2019 20:36

#	Program:	/corina/corina34_cracker 3.40 0067  02.08.2006

@<TRIPOS>MOLECULE
ASD03320203
  38   40    0    0    0
SMALL
NO_CHARGES


@<TRIPOS>ATOM
   1 C1            -0.0536     1.4270     0.2141 C.ar    
   2 C2            -0.0626     0.0445     0.4280 C.ar    
   3 C3            -1.2604    -0.6487     0.4264 C.ar    
   4 C4            -2.4494     0.0186     0.2144 C.ar    
   5 C5            -2.4524     1.3974     0.0001 C.ar    
   6 C6            -1.2553     2.1035     0.0055 C.ar    
   7 C7             1.2235     2.1686     0.2153 C.2     
   8 O8             2.2695     1.5777     0.4024 O.2     
   9 N9             1.2296     3.5005     0.0091 N.am    
  10 C10            2.4277     4.2188     0.1072 C.ar    
  11 C11           -3.7338     2.1104    -0.2279 C.ar    
  12 C12            3.6193     3.6431    -0.3135 C.ar    
  13 C13            4.8003     4.3520    -0.2164 C.ar    
  14 C14            4.7966     5.6389     0.3013 C.ar    
  15 C15            3.6067     6.2148     0.7219 C.ar    
  16 C16            2.4240     5.5093     0.6201 C.ar    
  17 O17            5.9600     6.3362     0.3971 O.3     
  18 C18            5.8827     7.6559     0.9397 C.3     
  19 F19            5.3722     7.5960     2.2408 F       
  20 F20            7.1604     8.2250     0.9658 F       
  21 F21            5.0397     8.4387     0.1436 F       
  22 C22           -4.9484     1.4202    -0.2319 C.ar    
  23 N23           -6.0668     2.0941    -0.4384 N.ar    
  24 C24           -6.0460     3.3970    -0.6383 C.ar    
  25 N25           -4.9221     4.0860    -0.6428 N.ar    
  26 C26           -3.7593     3.4912    -0.4386 C.ar    
  27 F27            1.0986    -0.6142     0.6356 F       
  28 H28           -1.2645    -1.7160     0.5914 H       
  29 H29           -3.3808    -0.5281     0.2141 H       
  30 H30           -1.2548     3.1707    -0.1601 H       
  31 H31            0.4040     3.9615    -0.2073 H       
  32 H32            3.6223     2.6410    -0.7163 H       
  33 H33            5.7271     3.9042    -0.5433 H       
  34 H34            3.6046     7.2168     1.1249 H       
  35 H35            1.4976     5.9578     0.9472 H       
  36 H36           -4.9733     0.3528    -0.0692 H       
  37 H37           -6.9786     3.9159    -0.8038 H       
  38 H38           -2.8427     4.0622    -0.4437 H       
@<TRIPOS>BOND
   1    1    2 ar
   2    1    7 1
   3    1    6 ar
   4    2    3 ar
   5    2   27 1
   6    3    4 ar
   7    3   28 1
   8    4    5 ar
   9    4   29 1
  10    5    6 ar
  11    5   11 1
  12    6   30 1
  13    7    8 2
  14    7    9 am
  15    9   10 1
  16    9   31 1
  17   10   12 ar
  18   10   16 ar
  19   11   22 ar
  20   11   26 ar
  21   12   13 ar
  22   12   32 1
  23   13   14 ar
  24   13   33 1
  25   14   15 ar
  26   14   17 1
  27   15   16 ar
  28   15   34 1
  29   16   35 1
  30   17   18 1
  31   18   19 1
  32   18   20 1
  33   18   21 1
  34   22   23 ar
  35   22   36 1
  36   23   24 ar
  37   24   25 ar
  38   24   37 1
  39   25   26 ar
  40   26   38 1

#	End of record

