#	Name: ASD01881511
#	Creating user name:	WinNT
#	Creation time:	15. 06. 2019 19:42

#	Modifying user name:	WinNT
#	Modification time:	15. 06. 2019 19:42

#	Program:	/corina/corina34_cracker 3.40 0067  02.08.2006

@<TRIPOS>MOLECULE
ASD01881511
  59   63    0    0    0
SMALL
NO_CHARGES


@<TRIPOS>ATOM
   1 C1            -0.0169     1.3921     0.0097 C.ar    
   2 C2             0.0021    -0.0041     0.0020 C.ar    
   3 C3             1.2234    -0.6838    -0.0133 C.ar    
   4 C4             2.3996     0.0245    -0.0208 C.ar    
   5 C5             2.3855     1.4225    -0.0132 C.ar    
   6 C6             1.1641     2.1004     0.0022 C.ar    
   7 C7             3.8508    -0.3873    -0.0374 C.3     
   8 N8             4.6306     0.8555    -0.0385 N.am    
   9 C9             3.7829     1.8984    -0.0245 C.2     
  10 C10            6.0928     0.9449    -0.0518 C.3     
  11 C11            6.5808     0.9827    -1.4771 C.ar    
  12 C12            6.7312     2.1959    -2.1231 C.ar    
  13 C13            7.1784     2.2333    -3.4296 C.ar    
  14 C14            7.4767     1.0522    -4.0935 C.ar    
  15 C15            7.3249    -0.1638    -3.4431 C.ar    
  16 C16            6.8828    -0.1955    -2.1347 C.ar    
  17 O17            4.1189     3.0665    -0.0215 O.2     
  18 C18            1.1389     3.6072     0.0101 C.3     
  19 C19           -1.2674    -0.7620     0.0106 C.2     
  20 O20           -1.4037    -2.0970     0.0053 O.3     
  21 N21           -2.5812    -2.3875     0.0157 N.2     
  22 C22           -3.3146    -1.3136     0.0286 C.2     
  23 N23           -2.4876    -0.2569     0.0308 N.2     
  24 C24           -4.8208    -1.2648     0.0433 C.3     
  25 N25           -5.2968    -1.2558     1.4330 N.3     
  26 C26           -6.7372    -0.9710     1.4944 C.3     
  27 C27           -7.2084    -1.0491     2.9485 C.3     
  28 N28           -6.4492    -0.0867     3.7591 N.3     
  29 C29           -5.0088    -0.3715     3.6976 C.3     
  30 C30           -4.5376    -0.2935     2.2436 C.3     
  31 O31            7.9164     1.0863    -5.3790 O.3     
  32 C32            8.2042    -0.1683    -5.9996 C.3     
  33 F33            7.0477    -0.9554    -6.0187 F       
  34 F34            8.6417     0.0494    -7.3105 F       
  35 F35            9.2049    -0.8272    -5.2774 F       
  36 H36           -0.9602     1.9179     0.0170 H       
  37 H37            1.2418    -1.7637    -0.0190 H       
  38 H38            4.0836    -0.9748     0.8507 H       
  39 H39            4.0659    -0.9652    -0.9363 H       
  40 H40            6.4060     1.8528     0.4637 H       
  41 H41            6.5145     0.0762     0.4537 H       
  42 H42            6.4985     3.1150    -1.6060 H       
  43 H43            7.2954     3.1811    -3.9339 H       
  44 H44            7.5565    -1.0846    -3.9577 H       
  45 H45            6.7645    -1.1418    -1.6279 H       
  46 H46            1.1227     3.9756    -1.0157 H       
  47 H47            0.2480     3.9529     0.5344 H       
  48 H48            2.0276     3.9828     0.5171 H       
  49 H49           -5.1600    -0.3610    -0.4628 H       
  50 H50           -5.2177    -2.1400    -0.4711 H       
  51 H51           -6.9272     0.0287     1.1037 H       
  52 H52           -7.2787    -1.7043     0.8968 H       
  53 H53           -8.2706    -0.8097     2.9999 H       
  54 H54           -7.0434    -2.0565     3.3306 H       
  55 H55           -6.6430     0.8607     3.4713 H       
  56 H56           -4.4673     0.3618     4.2952 H       
  57 H57           -4.8188    -1.3712     4.0883 H       
  58 H58           -3.4754    -0.5328     2.1921 H       
  59 H59           -4.7026     0.7139     1.8614 H       
@<TRIPOS>BOND
   1    1    2 ar
   2    1    6 ar
   3    1   36 1
   4    2    3 ar
   5    2   19 1
   6    3    4 ar
   7    3   37 1
   8    4    5 ar
   9    4    7 1
  10    5    6 ar
  11    5    9 1
  12    6   18 1
  13    7    8 1
  14    7   38 1
  15    7   39 1
  16    8    9 am
  17    8   10 1
  18    9   17 2
  19   10   11 1
  20   10   40 1
  21   10   41 1
  22   11   12 ar
  23   11   16 ar
  24   12   13 ar
  25   12   42 1
  26   13   14 ar
  27   13   43 1
  28   14   31 1
  29   14   15 ar
  30   15   16 ar
  31   15   44 1
  32   16   45 1
  33   18   46 1
  34   18   47 1
  35   18   48 1
  36   19   20 1
  37   19   23 2
  38   20   21 1
  39   21   22 2
  40   22   23 1
  41   22   24 1
  42   24   25 1
  43   24   49 1
  44   24   50 1
  45   25   26 1
  46   25   30 1
  47   26   27 1
  48   26   51 1
  49   26   52 1
  50   27   28 1
  51   27   53 1
  52   27   54 1
  53   28   29 1
  54   28   55 1
  55   29   30 1
  56   29   56 1
  57   29   57 1
  58   30   58 1
  59   30   59 1
  60   31   32 1
  61   32   33 1
  62   32   34 1
  63   32   35 1

#	End of record

