#	Name: ASD01200352
#	Creating user name:	WinNT
#	Creation time:	15. 06. 2019 19:09

#	Modifying user name:	WinNT
#	Modification time:	15. 06. 2019 19:09

#	Program:	/corina/corina34_cracker 3.40 0067  02.08.2006

@<TRIPOS>MOLECULE
ASD01200352
  47   50    0    0    0
SMALL
NO_CHARGES


@<TRIPOS>ATOM
   1 C1            -0.0167     1.3780     0.0096 C.ar    
   2 C2             0.0021    -0.0041     0.0020 C.ar    
   3 C3             1.2083    -0.6792    -0.0132 C.ar    
   4 C4             2.3967     0.0287    -0.0208 C.ar    
   5 C5             2.3773     1.4123    -0.0131 C.ar    
   6 C6             1.1709     2.0861     0.0021 C.ar    
   7 C7             1.1495     3.5929     0.0104 C.3     
   8 O8             2.2537     4.0807     0.7753 O.3     
   9 C9             1.2527     4.1046    -1.4033 C.2     
  10 C10            1.9643     4.2627     2.1628 C.3     
  11 C11            2.5889     3.5865     4.4011 C.3     
  12 C12            2.3946     3.0156     2.9744 C.3     
  13 C13            2.8181     5.4071     2.7468 C.3     
  14 C14            3.2152     4.9773     4.1699 C.3     
  15 C15            0.2097     4.3563    -2.2098 C.2     
  16 N16            2.4241     4.3873    -2.0535 N.pl3   
  17 C17            0.7601     4.8335    -3.4795 C.ar    
  18 C18            0.2018     5.2487    -4.6904 C.ar    
  19 C19            2.1600     4.8337    -3.3261 C.ar    
  20 N20            2.9336     5.2267    -4.3291 N.ar    
  21 C21            2.4279     5.6190    -5.4792 C.ar    
  22 C22            1.0596     5.6437    -5.7000 C.ar    
  23 Cl23           3.9119    -0.8184    -0.0393 Cl      
  24 S24            1.2320    -2.4410    -0.0223 S.o     
  25 O25           -0.0695    -2.7805     0.4362 O.2     
  26 C26            1.3743    -2.8380    -1.7866 C.3     
  27 H27           -0.9593     1.9050     0.0170 H       
  28 H28           -0.9258    -0.5566     0.0083 H       
  29 H29            3.3049     1.9655    -0.0187 H       
  30 H30            0.2173     3.9406     0.4556 H       
  31 H31            0.9033     4.4665     2.3068 H       
  32 H32            1.6288     3.6801     4.9085 H       
  33 H33            3.2654     2.9543     4.9761 H       
  34 H34            1.6101     2.2588     2.9647 H       
  35 H35            3.3301     2.6087     2.5905 H       
  36 H36            3.7105     5.5550     2.1387 H       
  37 H37            2.2344     6.3270     2.7838 H       
  38 H38            2.8242     5.6884     4.8976 H       
  39 H39            4.3003     4.9165     4.2525 H       
  40 H40           -0.8354     4.2307    -1.9682 H       
  41 H41            3.3102     4.2871    -1.6718 H       
  42 H42           -0.8686     5.2605    -4.8340 H       
  43 H43            3.0949     5.9312    -6.2691 H       
  44 H44            0.6670     5.9713    -6.6513 H       
  45 H45            2.2922    -2.4047    -2.1836 H       
  46 H46            1.3984    -3.9202    -1.9146 H       
  47 H47            0.5178    -2.4278    -2.3215 H       
@<TRIPOS>BOND
   1    1    2 ar
   2    1    6 ar
   3    1   27 1
   4    2    3 ar
   5    2   28 1
   6    3    4 ar
   7    3   24 1
   8    4    5 ar
   9    4   23 1
  10    5    6 ar
  11    5   29 1
  12    6    7 1
  13    7    8 1
  14    7    9 1
  15    7   30 1
  16    8   10 1
  17    9   16 1
  18    9   15 2
  19   10   13 1
  20   10   12 1
  21   10   31 1
  22   11   12 1
  23   11   14 1
  24   11   32 1
  25   11   33 1
  26   12   34 1
  27   12   35 1
  28   13   14 1
  29   13   36 1
  30   13   37 1
  31   14   38 1
  32   14   39 1
  33   15   17 1
  34   15   40 1
  35   16   19 1
  36   16   41 1
  37   17   19 ar
  38   17   18 ar
  39   18   22 ar
  40   18   42 1
  41   19   20 ar
  42   20   21 ar
  43   21   22 ar
  44   21   43 1
  45   22   44 1
  46   24   25 2
  47   24   26 1
  48   26   45 1
  49   26   46 1
  50   26   47 1

#	End of record

