#	Name: ASD05430161
#	Creating user name:	WinNT
#	Creation time:	15. 06. 2019 20:59

#	Modifying user name:	WinNT
#	Modification time:	15. 06. 2019 20:59

#	Program:	/corina/corina34_cracker 3.40 0067  02.08.2006

@<TRIPOS>MOLECULE
ASD05430161
  60   66    0    0    0
SMALL
NO_CHARGES


@<TRIPOS>ATOM
   1 C1            -0.0028     1.3297     0.0567 C.ar    
   2 C2             0.0205    -0.0146    -0.3180 C.ar    
   3 C3             1.2270    -0.6449    -0.5933 C.ar    
   4 C4             2.4091     0.0547    -0.4979 C.ar    
   5 C5             2.3926     1.4015    -0.1236 C.ar    
   6 C6             1.1705     2.0354     0.1540 C.ar    
   7 O7             4.8733     0.1326     0.2085 O.3     
   8 C8             4.8292     1.4915     0.0688 C.2     
   9 C9             3.6527     2.1530    -0.0198 C.2     
  10 C10            6.0864    -0.4368     0.6921 C.3     
  11 C11            6.9040     0.4888     1.5931 C.3     
  12 N12            7.1242     1.7545     0.8878 N.pl3   
  13 C13            6.1184     2.2066     0.0193 C.2     
  14 N14           -1.1792    -0.7319    -0.4163 N.pl3   
  15 N15           -2.4739    -0.2449    -0.1733 N.2     
  16 C16           -3.2972    -1.2395    -0.3807 C.2     
  17 N17           -2.5966    -2.3153    -0.7376 N.2     
  18 C18           -1.3210    -2.0246    -0.7685 C.2     
  19 C19           -4.7963    -1.1788    -0.2390 C.3     
  20 C20            8.3284     2.5565     1.0888 C.3     
  21 C21            8.7653     3.1418    -0.2591 C.3     
  22 N22            7.6100     3.7482    -0.9252 N.pl3   
  23 N23            6.3361     3.1804    -0.8046 N.2     
  24 C24            8.0341     3.6760     2.0537 C.ar    
  25 C25            8.9692     4.0282     3.0091 C.ar    
  26 C26            6.8315     4.3539     1.9791 C.ar    
  27 C27            6.5609     5.3813     2.8628 C.ar    
  28 C28            7.4945     5.7314     3.8235 C.ar    
  29 C29            8.7006     5.0550     3.8941 C.ar    
  30 F30            7.2310     6.7357     4.6879 F       
  31 C31            0.4641     3.3004     0.5629 C.3     
  32 C32           -0.8378     2.5192     0.4509 C.3     
  33 C33            5.9072    -1.8469     1.2778 C.3     
  34 O34            6.2072    -2.3125    -0.0539 O.3     
  35 C35            6.9255    -1.1119    -0.4042 C.3     
  36 H36            1.2381    -1.6854    -0.8823 H       
  37 H37            3.3472    -0.4361    -0.7114 H       
  38 H38            3.6385     3.2328    -0.0144 H       
  39 H39            6.3578     0.6754     2.5177 H       
  40 H40            7.8638     0.0245     1.8197 H       
  41 H41           -0.5215    -2.7037    -1.0254 H       
  42 H42           -5.2399    -0.8903    -1.1919 H       
  43 H43           -5.1733    -2.1581     0.0556 H       
  44 H44           -5.0599    -0.4440     0.5218 H       
  45 H45            9.1236     1.9272     1.4885 H       
  46 H46            9.5299     3.9011    -0.0948 H       
  47 H47            9.1706     2.3475    -0.8859 H       
  48 H48            7.7291     4.5516    -1.4555 H       
  49 H49            9.9099     3.5004     3.0640 H       
  50 H50            6.1035     4.0806     1.2297 H       
  51 H51            5.6217     5.9112     2.8039 H       
  52 H52            9.4295     5.3270     4.6433 H       
  53 H53            0.6972     3.6219     1.5780 H       
  54 H54            0.5516     4.1047    -0.1675 H       
  55 H55           -1.4943     2.8766    -0.3424 H       
  56 H56           -1.3533     2.3914     1.4027 H       
  57 H57            6.6596    -2.1158     2.0192 H       
  58 H58            4.8895    -2.0639     1.6023 H       
  59 H59            6.7130    -0.7479    -1.4095 H       
  60 H60            7.9915    -1.1544    -0.1807 H       
@<TRIPOS>BOND
   1    1    2 ar
   2    1    6 ar
   3    1   32 1
   4    2    3 ar
   5    2   14 1
   6    3    4 ar
   7    3   36 1
   8    4    5 ar
   9    4   37 1
  10    5    6 ar
  11    5    9 1
  12    6   31 1
  13    7    8 1
  14    7   10 1
  15    8    9 2
  16    8   13 1
  17    9   38 1
  18   10   11 1
  19   10   33 1
  20   10   35 1
  21   11   12 1
  22   11   39 1
  23   11   40 1
  24   12   13 1
  25   12   20 1
  26   13   23 2
  27   14   15 1
  28   14   18 1
  29   15   16 2
  30   16   17 1
  31   16   19 1
  32   17   18 2
  33   18   41 1
  34   19   42 1
  35   19   43 1
  36   19   44 1
  37   20   21 1
  38   20   24 1
  39   20   45 1
  40   21   22 1
  41   21   46 1
  42   21   47 1
  43   22   23 1
  44   22   48 1
  45   24   25 ar
  46   24   26 ar
  47   25   29 ar
  48   25   49 1
  49   26   27 ar
  50   26   50 1
  51   27   28 ar
  52   27   51 1
  53   28   29 ar
  54   28   30 1
  55   29   52 1
  56   31   32 1
  57   31   53 1
  58   31   54 1
  59   32   55 1
  60   32   56 1
  61   33   34 1
  62   33   57 1
  63   33   58 1
  64   34   35 1
  65   35   59 1
  66   35   60 1

#	End of record

