#	Name: ASD01320029
#	Creating user name:	WinNT
#	Creation time:	15. 06. 2019 19:15

#	Modifying user name:	WinNT
#	Modification time:	15. 06. 2019 19:15

#	Program:	/corina/corina34_cracker 3.40 0067  02.08.2006

@<TRIPOS>MOLECULE
ASD01320029
  36   35    0    0    0
SMALL
NO_CHARGES


@<TRIPOS>ATOM
   1 S1            -0.0259     2.0557     0.0133 S.3     
   2 S2             0.0021    -0.0041     0.0020 S.3     
   3 S3             2.7740     1.0796    -0.0186 S.2     
   4 S4             0.2576     0.9984     2.7810 S.2     
   5 N5             2.0996     3.6485     0.0016 N.am    
   6 N6             0.2308    -1.5766     2.1303 N.am    
   7 C7             0.3737    -1.8370     3.5649 C.3     
   8 C8             0.1550    -2.6948     1.1869 C.3     
   9 C9             3.5387     3.9225    -0.0107 C.3     
  10 C10            1.1428     4.7579     0.0167 C.3     
  11 C11            0.7960     5.1518    -1.4205 C.3     
  12 C12            4.0534     4.0102     1.4275 C.3     
  13 C13           -1.3070    -3.1043     0.9978 C.3     
  14 C14            1.8591    -1.9074     3.9250 C.3     
  15 C15            0.1691    -0.3083     1.6785 C.2     
  16 C16            1.6559     2.3759    -0.0010 C.2     
  17 H17           -0.0992    -1.0330     4.1289 H       
  18 H18           -0.1053    -2.7845     3.8117 H       
  19 H19            0.5739    -2.3901     0.2278 H       
  20 H20            0.7212    -3.5398     1.5787 H       
  21 H21            4.0571     3.1190    -0.5338 H       
  22 H22            3.7243     4.8675    -0.5212 H       
  23 H23            0.2365     4.4489     0.5376 H       
  24 H24            1.5844     5.6115     0.5309 H       
  25 H25            1.7023     5.4607    -1.9413 H       
  26 H26            0.3544     4.2981    -1.9347 H       
  27 H27            0.0841     5.9771    -1.4092 H       
  28 H28            5.1242     4.2141     1.4183 H       
  29 H29            3.5350     4.8137     1.9506 H       
  30 H30            3.8678     3.0652     1.9380 H       
  31 H31           -1.3634    -3.9363     0.2958 H       
  32 H32           -1.7259    -3.4091     1.9568 H       
  33 H33           -1.8732    -2.2594     0.6059 H       
  34 H34            2.3380    -0.9599     3.6782 H       
  35 H35            1.9654    -2.1011     4.9923 H       
  36 H36            2.3319    -2.7113     3.3609 H       
@<TRIPOS>BOND
   1    1    2 1
   2    1   16 1
   3    2   15 1
   4    3   16 2
   5    4   15 2
   6    5    9 1
   7    5   10 1
   8    5   16 am
   9    6    7 1
  10    6    8 1
  11    6   15 am
  12    7   14 1
  13    7   17 1
  14    7   18 1
  15    8   13 1
  16    8   19 1
  17    8   20 1
  18    9   12 1
  19    9   21 1
  20    9   22 1
  21   10   11 1
  22   10   23 1
  23   10   24 1
  24   11   25 1
  25   11   26 1
  26   11   27 1
  27   12   28 1
  28   12   29 1
  29   12   30 1
  30   13   31 1
  31   13   32 1
  32   13   33 1
  33   14   34 1
  34   14   35 1
  35   14   36 1

#	End of record

