#	Name: ASD00842738
#	Creating user name:	WinNT
#	Creation time:	15. 06. 2019 18:45

#	Modifying user name:	WinNT
#	Modification time:	15. 06. 2019 18:45

#	Program:	/corina/corina34_cracker 3.40 0067  02.08.2006

@<TRIPOS>MOLECULE
ASD00842738
  79   84    0    0    0
SMALL
NO_CHARGES


@<TRIPOS>ATOM
   1 F1            -0.0915    -3.1263     4.7193 F       
   2 C2            -0.0167     1.3829     0.0096 C.ar    
   3 C3             0.0021    -0.0041     0.0020 C.ar    
   4 C4             1.2143    -0.6791    -0.0132 C.ar    
   5 C5             2.3989     0.0312    -0.0207 C.ar    
   6 C6             2.3774     1.4139    -0.0126 C.ar    
   7 C7             1.1710     2.0888     0.0021 C.ar    
   8 C8             1.2384    -2.1858    -0.0210 C.3     
   9 C9             0.4953    -2.7219    -1.2261 C.2     
  10 O10            2.6067    -2.6715    -0.0097 O.3     
  11 C11            3.3980    -2.2932    -1.0313 C.2     
  12 N12            4.6790    -2.7090    -1.0812 N.am    
  13 O13            2.9572    -1.5768    -1.9082 O.2     
  14 C14            5.5547    -2.3046    -2.1894 C.3     
  15 C15            6.1662    -3.5606    -2.8182 C.3     
  16 C16            6.8654    -4.3813    -1.7320 C.3     
  17 C17            5.8417    -4.8168    -0.6810 C.3     
  18 C18            5.2281    -3.5704    -0.0251 C.3     
  19 N19            7.4814    -5.5698    -2.3370 N.3     
  20 C20            8.2628    -6.3209    -1.3446 C.3     
  21 C21            8.8209    -7.5900    -1.9930 C.3     
  22 N22            9.6542    -7.2220    -3.1461 N.3     
  23 C23            8.8728    -6.4708    -4.1386 C.3     
  24 C24            8.3147    -5.2018    -3.4901 C.3     
  25 H25           10.4657    -6.6986    -2.8535 H       
  26 O26            0.7741    -2.5257    -2.3901 O.2     
  27 N27           -0.5308    -3.4561    -0.7641 N.am    
  28 C28            0.4693    -2.7338     1.1591 C.ar    
  29 C29           -0.5745    -3.4835     0.6314 C.ar    
  30 C30            0.6336    -2.6122     2.5207 C.ar    
  31 C31           -0.2493    -3.2426     3.3826 C.ar    
  32 C32           -1.2952    -3.9938     2.8681 C.ar    
  33 C33           -1.4597    -4.1156     1.5017 C.ar    
  34 F34           -2.1572    -4.6094     3.7067 F       
  35 C35           -0.9812    -5.8525    -2.0402 C.ar    
  36 C36           -1.3046    -6.8938    -1.1905 C.ar    
  37 C37           -0.1624    -6.0791    -3.1307 C.ar    
  38 C38            0.3331    -7.3469    -3.3714 C.ar    
  39 C39            0.0100    -8.3881    -2.5214 C.ar    
  40 C40           -0.8088    -8.1616    -1.4310 C.ar    
  41 H41            0.3971    -9.3787    -2.7095 H       
  42 H42           -1.9443    -6.7168    -0.3385 H       
  43 O43           -1.1648    -0.7006     0.0099 O.3     
  44 C44           -3.5740    -0.8895     0.0328 C.3     
  45 C45           -2.3744     0.0601     0.0260 C.3     
  46 S46           -1.6186    -4.2380    -1.7375 S.o2    
  47 O47           -2.7978    -4.4107    -0.9636 O.2     
  48 O48           -1.6007    -3.5589    -2.9856 O.2     
  49 H49           -0.9590     1.9106     0.0170 H       
  50 H50            3.3426    -0.4937    -0.0325 H       
  51 H51            3.3047     1.9675    -0.0178 H       
  52 H52            1.1569     3.1687     0.0084 H       
  53 H53            4.9723    -1.7677    -2.9382 H       
  54 H54            6.3493    -1.6614    -1.8113 H       
  55 H55            5.3783    -4.1589    -3.2757 H       
  56 H56            6.8915    -3.2706    -3.5785 H       
  57 H57            7.6366    -3.7742    -1.2581 H       
  58 H58            5.0568    -5.4032    -1.1587 H       
  59 H59            6.3359    -5.4208     0.0799 H       
  60 H60            5.9975    -3.0329     0.5291 H       
  61 H61            4.4288    -3.8702     0.6526 H       
  62 H62            9.0863    -5.7030    -0.9868 H       
  63 H63            7.6210    -6.5928    -0.5065 H       
  64 H64            9.4248    -8.1340    -1.2667 H       
  65 H65            7.9967    -8.2206    -2.3264 H       
  66 H66            9.5146    -6.1990    -4.9766 H       
  67 H67            8.0493    -7.0888    -4.4963 H       
  68 H68            7.7108    -4.6577    -4.2164 H       
  69 H69            9.1389    -4.5711    -3.1567 H       
  70 H70            1.4500    -2.0263     2.9165 H       
  71 H71           -2.2766    -4.7018     1.1074 H       
  72 H72            0.0900    -5.2656    -3.7947 H       
  73 H73            0.9722    -7.5241    -4.2237 H       
  74 H74           -1.0614    -8.9751    -0.7671 H       
  75 H75           -3.5312    -1.5227     0.9190 H       
  76 H76           -4.4966    -0.3093     0.0451 H       
  77 H77           -3.5489    -1.5131    -0.8609 H       
  78 H78           -2.3995     0.6837     0.9196 H       
  79 H79           -2.4172     0.6932    -0.8603 H       
@<TRIPOS>BOND
   1    1   31 1
   2    2    3 ar
   3    2    7 ar
   4    2   49 1
   5    3    4 ar
   6    3   43 1
   7    4    5 ar
   8    4    8 1
   9    5    6 ar
  10    5   50 1
  11    6    7 ar
  12    6   51 1
  13    7   52 1
  14    8    9 1
  15    8   10 1
  16    8   28 1
  17    9   26 2
  18    9   27 am
  19   10   11 1
  20   11   12 am
  21   11   13 2
  22   12   14 1
  23   12   18 1
  24   14   15 1
  25   14   53 1
  26   14   54 1
  27   15   16 1
  28   15   55 1
  29   15   56 1
  30   16   17 1
  31   16   19 1
  32   16   57 1
  33   17   18 1
  34   17   58 1
  35   17   59 1
  36   18   60 1
  37   18   61 1
  38   19   20 1
  39   19   24 1
  40   20   21 1
  41   20   62 1
  42   20   63 1
  43   21   22 1
  44   21   64 1
  45   21   65 1
  46   22   23 1
  47   22   25 1
  48   23   24 1
  49   23   66 1
  50   23   67 1
  51   24   68 1
  52   24   69 1
  53   27   46 am
  54   27   29 1
  55   28   29 ar
  56   28   30 ar
  57   29   33 ar
  58   30   31 ar
  59   30   70 1
  60   31   32 ar
  61   32   33 ar
  62   32   34 1
  63   33   71 1
  64   35   36 ar
  65   35   37 ar
  66   35   46 1
  67   36   42 1
  68   36   40 ar
  69   37   38 ar
  70   37   72 1
  71   38   39 ar
  72   38   73 1
  73   39   40 ar
  74   39   41 1
  75   40   74 1
  76   43   45 1
  77   44   45 1
  78   44   75 1
  79   44   76 1
  80   44   77 1
  81   45   78 1
  82   45   79 1
  83   46   47 2
  84   46   48 2

#	End of record

