#	Name: ASD01810851
#	Creating user name:	WinNT
#	Creation time:	15. 06. 2019 19:25

#	Modifying user name:	WinNT
#	Modification time:	15. 06. 2019 19:25

#	Program:	/corina/corina34_cracker 3.40 0067  02.08.2006

@<TRIPOS>MOLECULE
ASD01810851
  71   76    0    0    0
SMALL
NO_CHARGES


@<TRIPOS>ATOM
   1 C1             0.0576     1.3993    -0.0616 C.3     
   2 C2            -1.0213    -4.3647    -1.9286 C.ar    
   3 C3            -1.0617    -3.0126    -1.9966 C.ar    
   4 C4            -0.4821    -2.2154    -0.9973 C.ar    
   5 C5             0.1591    -2.8081     0.1058 C.ar    
   6 C6             0.2067    -4.2651     0.1850 C.ar    
   7 C7             0.8278    -4.9214     1.2525 C.ar    
   8 C8             0.8495    -6.2853     1.2864 C.ar    
   9 C9             0.2609    -7.0326     0.2713 C.ar    
  10 C10           -0.3523    -6.4237    -0.7829 C.ar    
  11 C11           -0.3943    -5.0226    -0.8498 C.ar    
  12 C12           -1.6626    -5.1804    -3.0215 C.3     
  13 C13           -4.1321    -4.7283    -2.9250 C.ar    
  14 C14           -3.0630    -5.5568    -2.6115 C.ar    
  15 C15           -3.2960    -6.7294    -1.9208 C.ar    
  16 N16           -4.5180    -7.0691    -1.5572 N.ar    
  17 C17           -5.4017    -5.1109    -2.5307 C.ar    
  18 C18           -5.5633    -6.3059    -1.8374 C.ar    
  19 C19           -0.5203    -0.7487    -1.0602 C.2     
  20 N20            0.0657    -0.0657    -0.0496 N.am    
  21 C21            0.6609    -0.7271     0.9742 C.2     
  22 N22            0.7067    -2.0252     1.0505 N.2     
  23 O23           -1.0583    -0.1694    -1.9865 O.2     
  24 C24            1.4973     1.9172    -0.0690 C.3     
  25 C25            1.4889     3.4471    -0.0815 C.3     
  26 C26            0.7676     3.9633     1.1651 C.3     
  27 C27           -0.6721     3.4454     1.1726 C.3     
  28 C28           -0.6636     1.9155     1.1851 C.3     
  29 O29            2.1710     1.4350    -1.2334 O.3     
  30 N30           -6.8334    -6.7026    -1.4351 N.3     
  31 C31           -6.7830    -7.9860    -0.7223 C.3     
  32 C32           -8.1659    -8.2981    -0.1405 C.3     
  33 N33           -9.1560    -8.2280    -1.2259 N.am    
  34 C34           -9.1753    -7.0262    -2.0736 C.3     
  35 C35           -7.7527    -6.7642    -2.5793 C.3     
  36 C36          -10.0222    -9.2384    -1.4383 C.2     
  37 O37           -9.9266   -10.2639    -0.7979 O.2     
  38 C38          -11.1096    -9.0940    -2.4716 C.3     
  39 H39           -0.4602     1.7525    -0.9533 H       
  40 H40           -1.5489    -2.5387    -2.8359 H       
  41 H41            1.2882    -4.3515     2.0459 H       
  42 H42            1.3298    -6.7908     2.1111 H       
  43 H43            0.2906    -8.1111     0.3189 H       
  44 H44           -0.8049    -7.0174    -1.5633 H       
  45 H45           -1.6980    -4.5938    -3.9395 H       
  46 H46           -1.0780    -6.0847    -3.1905 H       
  47 H47           -3.9755    -3.8037    -3.4607 H       
  48 H48           -2.4674    -7.3770    -1.6752 H       
  49 H49           -6.2557    -4.4900    -2.7577 H       
  50 H50            1.1188    -0.1490     1.7632 H       
  51 H51            2.0151     1.5640     0.8227 H       
  52 H52            2.5145     3.8160    -0.0869 H       
  53 H53            0.9711     3.8003    -0.9733 H       
  54 H54            1.2854     3.6101     2.0569 H       
  55 H55            0.7616     5.0533     1.1562 H       
  56 H56           -1.1859     3.8132     2.0607 H       
  57 H57           -1.1899     3.7986     0.2808 H       
  58 H58           -1.6893     1.5466     1.1904 H       
  59 H59           -0.1458     1.5623     2.0768 H       
  60 H60            3.0908     1.7248    -1.3039 H       
  61 H61           -6.4932    -8.7758    -1.4153 H       
  62 H62           -6.0538    -7.9249     0.0857 H       
  63 H63           -8.1646    -9.2995     0.2898 H       
  64 H64           -8.4132    -7.5663     0.6285 H       
  65 H65           -9.8414    -7.1868    -2.9213 H       
  66 H66           -9.5197    -6.1722    -1.4904 H       
  67 H67           -7.7268    -5.8171    -3.1181 H       
  68 H68           -7.4494    -7.5711    -3.2464 H       
  69 H69          -11.0992    -8.0797    -2.8707 H       
  70 H70          -10.9389    -9.8044    -3.2805 H       
  71 H71          -12.0772    -9.2933    -2.0111 H       
@<TRIPOS>BOND
   1    1   20 1
   2    1   24 1
   3    1   28 1
   4    1   39 1
   5    2    3 ar
   6    2   11 ar
   7    2   12 1
   8    3    4 ar
   9    3   40 1
  10    4    5 ar
  11    4   19 1
  12    5    6 ar
  13    5   22 1
  14    6    7 ar
  15    6   11 ar
  16    7    8 ar
  17    7   41 1
  18    8    9 ar
  19    8   42 1
  20    9   10 ar
  21    9   43 1
  22   10   11 ar
  23   10   44 1
  24   12   14 1
  25   12   45 1
  26   12   46 1
  27   13   14 ar
  28   13   17 ar
  29   13   47 1
  30   14   15 ar
  31   15   16 ar
  32   15   48 1
  33   16   18 ar
  34   17   18 ar
  35   17   49 1
  36   18   30 1
  37   19   20 am
  38   19   23 2
  39   20   21 1
  40   21   22 2
  41   21   50 1
  42   24   25 1
  43   24   29 1
  44   24   51 1
  45   25   26 1
  46   25   52 1
  47   25   53 1
  48   26   27 1
  49   26   54 1
  50   26   55 1
  51   27   28 1
  52   27   56 1
  53   27   57 1
  54   28   58 1
  55   28   59 1
  56   29   60 1
  57   30   31 1
  58   30   35 1
  59   31   32 1
  60   31   61 1
  61   31   62 1
  62   32   33 1
  63   32   63 1
  64   32   64 1
  65   33   34 1
  66   33   36 am
  67   34   35 1
  68   34   65 1
  69   34   66 1
  70   35   67 1
  71   35   68 1
  72   36   37 2
  73   36   38 1
  74   38   69 1
  75   38   70 1
  76   38   71 1

#	End of record

