#	Name: ASD01410470
#	Creating user name:	WinNT
#	Creation time:	15. 06. 2019 19:17

#	Modifying user name:	WinNT
#	Modification time:	15. 06. 2019 19:17

#	Program:	/corina/corina34_cracker 3.40 0067  02.08.2006

@<TRIPOS>MOLECULE
ASD01410470
  48   51    0    0    0
SMALL
NO_CHARGES


@<TRIPOS>ATOM
   1 C1            -0.0168     1.3855     0.0097 C.ar    
   2 C2             0.0021    -0.0041     0.0020 C.ar    
   3 C3            -1.1863    -0.7125     0.0096 C.ar    
   4 C4            -2.4035    -0.0209     0.0249 C.ar    
   5 C5            -2.4214     1.3841     0.0326 C.ar    
   6 C6            -1.2194     2.0762     0.0306 C.ar    
   7 C7            -3.8109    -0.4480     0.0355 C.2     
   8 C8            -4.5659     0.7560     0.0490 C.2     
   9 O9            -3.7058     1.8020     0.0467 O.3     
  10 O10           -4.2385    -1.5908     0.0330 O.2     
  11 C11           -5.9247     0.8432     0.0613 C.2     
  12 C12           -6.5731     2.1535     0.0744 C.2     
  13 O13            1.1534     2.0736     0.0022 O.3     
  14 O14           -1.1721    -2.0693     0.0017 O.3     
  15 C15           -7.5786     2.5784    -0.7501 C.2     
  16 C16           -6.2769     3.2770     0.9837 C.ar    
  17 C17           -7.1498     4.3125     0.6141 C.ar    
  18 N18           -7.9194     3.8529    -0.4352 N.pl3   
  19 C19           -8.9579     4.6322    -1.1138 C.3     
  20 C20           -5.3772     3.4620     2.0302 C.ar    
  21 C21           -5.3482     4.6655     2.7003 C.ar    
  22 C22           -6.2105     5.6898     2.3368 C.ar    
  23 C23           -7.1054     5.5204     1.3030 C.ar    
  24 C24           -8.3381     5.3969    -2.2851 C.3     
  25 C25           -8.8029     6.9754    -4.1652 C.3     
  26 C26           -9.4226     6.2107    -2.9939 C.3     
  27 C27           -8.2112     1.7555    -1.8427 C.3     
  28 H28            0.9447    -0.5311    -0.0102 H       
  29 H29           -1.2200     3.1561     0.0368 H       
  30 H30           -6.5235    -0.0557     0.0613 H       
  31 H31            1.4840     2.2777    -0.8833 H       
  32 H32           -1.1594    -2.4676     0.8827 H       
  33 H33           -9.7308     3.9603    -1.4869 H       
  34 H34           -9.3991     5.3391    -0.4112 H       
  35 H35           -4.7055     2.6658     2.3154 H       
  36 H36           -4.6515     4.8120     3.5124 H       
  37 H37           -6.1799     6.6290     2.8692 H       
  38 H38           -7.7720     6.3243     1.0278 H       
  39 H39           -7.5651     6.0688    -1.9121 H       
  40 H40           -7.8968     4.6900    -2.9878 H       
  41 H41           -9.5755     7.5552    -4.6701 H       
  42 H42           -8.0299     7.6473    -3.7921 H       
  43 H43           -8.3616     6.2685    -4.8678 H       
  44 H44          -10.1956     5.5388    -3.3669 H       
  45 H45           -9.8639     6.9176    -2.2912 H       
  46 H46           -9.0608     1.2056    -1.4378 H       
  47 H47           -8.5519     2.4135    -2.6421 H       
  48 H48           -7.4785     1.0523    -2.2385 H       
@<TRIPOS>BOND
   1    1    2 ar
   2    1   13 1
   3    1    6 ar
   4    2    3 ar
   5    2   28 1
   6    3    4 ar
   7    3   14 1
   8    4    5 ar
   9    4    7 1
  10    5    6 ar
  11    5    9 1
  12    6   29 1
  13    7    8 1
  14    7   10 2
  15    8    9 1
  16    8   11 2
  17   11   12 1
  18   11   30 1
  19   12   16 1
  20   12   15 2
  21   13   31 1
  22   14   32 1
  23   15   27 1
  24   15   18 1
  25   16   17 ar
  26   16   20 ar
  27   17   18 1
  28   17   23 ar
  29   18   19 1
  30   19   24 1
  31   19   33 1
  32   19   34 1
  33   20   21 ar
  34   20   35 1
  35   21   22 ar
  36   21   36 1
  37   22   23 ar
  38   22   37 1
  39   23   38 1
  40   24   26 1
  41   24   39 1
  42   24   40 1
  43   25   26 1
  44   25   41 1
  45   25   42 1
  46   25   43 1
  47   26   44 1
  48   26   45 1
  49   27   46 1
  50   27   47 1
  51   27   48 1

#	End of record

