#	Name: ASD00461045
#	Creating user name:	WinNT
#	Creation time:	15. 06. 2019 18:36

#	Modifying user name:	WinNT
#	Modification time:	15. 06. 2019 18:36

#	Program:	/corina/corina34_cracker 3.40 0067  02.08.2006

@<TRIPOS>MOLECULE
ASD00461045
  72   75    0    0    0
SMALL
NO_CHARGES


@<TRIPOS>ATOM
   1 C1            -0.0168     1.3898     0.0097 C.ar    
   2 C2             0.0021    -0.0041     0.0020 C.ar    
   3 C3            -1.1851    -0.7076     0.0095 C.ar    
   4 C4            -2.3923    -0.0322     0.0246 C.ar    
   5 C5            -2.4173     1.3509     0.0318 C.ar    
   6 C6            -1.2363     2.0649     0.0308 C.ar    
   7 C7            -3.6853    -0.8063     0.0328 C.3     
   8 O8            -4.6323    -0.1608    -0.8208 O.3     
   9 C9            -5.5707    -1.0520    -1.4267 C.3     
  10 C10           -6.5302    -0.2563    -2.3139 C.3     
  11 C11           -7.4547    -1.2212    -3.0590 C.3     
  12 N12           -8.2944    -0.4670    -3.9993 N.3     
  13 C13           -9.1971    -1.3630    -4.7343 C.3     
  14 O14           -7.3126     0.6215    -1.5018 O.3     
  15 C15          -10.0534    -0.5431    -5.7014 C.3     
  16 C16           -8.3729    -2.3832    -5.5221 C.3     
  17 C17          -10.1052    -2.0959    -3.7448 C.3     
  18 C18          -10.9795    -1.4623    -6.4554 C.ar    
  19 C19          -12.2419    -1.7414    -5.9362 C.ar    
  20 C20          -13.1024    -2.5678    -6.5917 C.ar    
  21 C21          -12.7151    -3.1492    -7.8107 C.ar    
  22 C22          -11.4309    -2.8648    -8.3392 C.ar    
  23 C23          -10.5722    -2.0031    -7.6364 C.ar    
  24 C24          -13.5757    -4.0077    -8.5161 C.ar    
  25 C25          -13.1662    -4.5530    -9.6937 C.ar    
  26 C26          -11.9035    -4.2733   -10.2135 C.ar    
  27 C27          -11.0434    -3.4468    -9.5584 C.ar    
  28 C28            1.2553     2.1514     0.0016 C.ar    
  29 C29            1.2326     3.5464     0.0093 C.ar    
  30 C30            2.4129     4.2546     0.0023 C.ar    
  31 C31            3.6344     3.5756    -0.0125 C.ar    
  32 C32            3.6557     2.1782    -0.0202 C.ar    
  33 C33            2.4740     1.4724    -0.0078 C.ar    
  34 C34           -4.2380    -0.8610     1.4584 C.3     
  35 C35            4.9007     4.3337    -0.0205 C.2     
  36 O36            4.8816     5.5485    -0.0142 O.2     
  37 O37            6.0780     3.6786    -0.0349 O.3     
  38 H38            0.9440    -0.5323    -0.0101 H       
  39 H39           -1.1717    -1.7875     0.0032 H       
  40 H40           -3.3627     1.8728     0.0429 H       
  41 H41           -1.2570     3.1447     0.0367 H       
  42 H42           -3.5044    -1.8196    -0.3259 H       
  43 H43           -5.0373    -1.7838    -2.0334 H       
  44 H44           -6.1363    -1.5670    -0.6502 H       
  45 H45           -5.9585     0.3284    -3.0345 H       
  46 H46           -6.8555    -1.9470    -3.6086 H       
  47 H47           -8.0896    -1.7423    -2.3424 H       
  48 H48           -8.8120     0.2559    -3.5222 H       
  49 H49           -7.8484     0.1686    -0.8363 H       
  50 H50          -10.6406     0.1837    -5.1401 H       
  51 H51           -9.4065    -0.0210    -6.4063 H       
  52 H52           -7.7629    -2.9674    -4.8331 H       
  53 H53           -9.0427    -3.0481    -6.0675 H       
  54 H54           -7.7260    -1.8611    -6.2271 H       
  55 H55          -10.6924    -1.3691    -3.1835 H       
  56 H56          -10.7750    -2.7608    -4.2902 H       
  57 H57           -9.4952    -2.6801    -3.0558 H       
  58 H58          -12.5422    -1.2958    -4.9993 H       
  59 H59          -14.0777    -2.7756    -6.1768 H       
  60 H60           -9.5909    -1.7773    -8.0270 H       
  61 H61          -14.5569    -4.2338    -8.1254 H       
  62 H62          -13.8294    -5.2126   -10.2336 H       
  63 H63          -11.6032    -4.7192   -11.1502 H       
  64 H64          -10.0682    -3.2389    -9.9734 H       
  65 H65            0.2885     4.0708     0.0204 H       
  66 H66            2.3950     5.3344     0.0079 H       
  67 H67            4.5990     1.6523    -0.0317 H       
  68 H68            2.4902     0.3925    -0.0134 H       
  69 H69           -5.1732    -1.4208     1.4643 H       
  70 H70           -3.5157    -1.3533     2.1095 H       
  71 H71           -4.4189     0.1523     1.8171 H       
  72 H72            6.8806     4.2180    -0.0396 H       
@<TRIPOS>BOND
   1    1    2 ar
   2    1   28 1
   3    1    6 ar
   4    2    3 ar
   5    2   38 1
   6    3    4 ar
   7    3   39 1
   8    4    5 ar
   9    4    7 1
  10    5    6 ar
  11    5   40 1
  12    6   41 1
  13    7    8 1
  14    7   34 1
  15    7   42 1
  16    8    9 1
  17    9   10 1
  18    9   43 1
  19    9   44 1
  20   10   11 1
  21   10   14 1
  22   10   45 1
  23   11   12 1
  24   11   46 1
  25   11   47 1
  26   12   13 1
  27   12   48 1
  28   13   15 1
  29   13   16 1
  30   13   17 1
  31   14   49 1
  32   15   18 1
  33   15   50 1
  34   15   51 1
  35   16   52 1
  36   16   53 1
  37   16   54 1
  38   17   55 1
  39   17   56 1
  40   17   57 1
  41   18   19 ar
  42   18   23 ar
  43   19   20 ar
  44   19   58 1
  45   20   21 ar
  46   20   59 1
  47   21   22 ar
  48   21   24 ar
  49   22   23 ar
  50   22   27 ar
  51   23   60 1
  52   24   25 ar
  53   24   61 1
  54   25   26 ar
  55   25   62 1
  56   26   27 ar
  57   26   63 1
  58   27   64 1
  59   28   29 ar
  60   28   33 ar
  61   29   30 ar
  62   29   65 1
  63   30   31 ar
  64   30   66 1
  65   31   32 ar
  66   31   35 1
  67   32   33 ar
  68   32   67 1
  69   33   68 1
  70   34   69 1
  71   34   70 1
  72   34   71 1
  73   35   36 2
  74   35   37 1
  75   37   72 1

#	End of record

