#	Name: ASD03730186
#	Creating user name:	WinNT
#	Creation time:	15. 06. 2019 20:44

#	Modifying user name:	WinNT
#	Modification time:	15. 06. 2019 20:44

#	Program:	/corina/corina34_cracker 3.40 0067  02.08.2006

@<TRIPOS>MOLECULE
ASD03730186
  55   59    0    0    0
SMALL
NO_CHARGES


@<TRIPOS>ATOM
   1 O1            -0.3200     2.2963    -1.1380 O.3     
   2 C2            -0.7193     0.9192    -1.0021 C.3     
   3 C3             0.6248     0.1784    -1.0172 C.3     
   4 C4             1.6014     1.2265    -0.5556 C.ar    
   5 C5             0.9446     2.4509    -0.6545 C.ar    
   6 C6             1.6163     3.6078    -0.2738 C.ar    
   7 C7             2.9205     3.5392     0.1862 C.ar    
   8 C8             3.5664     2.3138     0.2710 C.ar    
   9 C9             2.9007     1.1609    -0.1010 C.ar    
  10 N10            0.9015    -2.0870    -0.8878 N.am    
  11 C11            0.6102    -1.0220    -0.1147 C.2     
  12 C12            0.9581    -0.3526    -2.3797 C.ar    
  13 C13            1.1188     0.2324    -3.6161 C.ar    
  14 C14            1.4340    -0.5462    -4.7154 C.ar    
  15 C15            1.5878    -1.9130    -4.5700 C.ar    
  16 C16            1.4288    -2.5035    -3.3336 C.ar    
  17 C17            1.1108    -1.7277    -2.2215 C.ar    
  18 O18            0.3813    -1.0312     1.0763 O.2     
  19 O19            3.5697     4.6744     0.5551 O.3     
  20 C20            3.4501     5.0876     1.8441 C.ar    
  21 C21            2.7736     4.3014     2.7659 C.ar    
  22 C22            2.6538     4.7235     4.0758 C.ar    
  23 C23            3.2069     5.9284     4.4685 C.ar    
  24 C24            3.8815     6.7136     3.5519 C.ar    
  25 C25            4.0091     6.2935     2.2422 C.ar    
  26 C26            0.9888    -3.4612    -0.3876 C.3     
  27 C27           -0.3851    -4.1275    -0.4846 C.3     
  28 C28           -0.2939    -5.5627     0.0378 C.3     
  29 C29           -1.6677    -6.2290    -0.0591 C.3     
  30 C30           -1.5765    -7.6642     0.4632 C.3     
  31 H31           -1.2389     0.7585    -0.0575 H       
  32 H32           -1.3401     0.6115    -1.8436 H       
  33 H33            1.1184     4.5641    -0.3376 H       
  34 H34            4.5850     2.2612     0.6260 H       
  35 H35            3.4004     0.2057    -0.0353 H       
  36 H36            0.9982     1.2998    -3.7276 H       
  37 H37            1.5594    -0.0877    -5.6852 H       
  38 H38            1.8338    -2.5206    -5.4283 H       
  39 H39            1.5503    -3.5714    -3.2278 H       
  40 H40            2.3408     3.3606     2.4595 H       
  41 H41            2.1273     4.1120     4.7937 H       
  42 H42            3.1115     6.2569     5.4929 H       
  43 H43            4.3123     7.6545     3.8612 H       
  44 H44            4.5396     6.9053     1.5276 H       
  45 H45            1.7071    -4.0209    -0.9867 H       
  46 H46            1.3143    -3.4493     0.6526 H       
  47 H47           -1.1034    -3.5678     0.1145 H       
  48 H48           -0.7105    -4.1395    -1.5248 H       
  49 H49            0.4245    -6.1224    -0.5612 H       
  50 H50            0.0316    -5.5508     1.0780 H       
  51 H51           -2.3861    -5.6693     0.5399 H       
  52 H52           -1.9932    -6.2410    -1.0994 H       
  53 H53           -0.8582    -8.2239    -0.1358 H       
  54 H54           -1.2511    -7.6522     1.5034 H       
  55 H55           -2.5553    -8.1389     0.3942 H       
@<TRIPOS>BOND
   1    1    2 1
   2    1    5 1
   3    2    3 1
   4    2   31 1
   5    2   32 1
   6    3    4 1
   7    3   11 1
   8    3   12 1
   9    4    5 ar
  10    4    9 ar
  11    5    6 ar
  12    6    7 ar
  13    6   33 1
  14    7    8 ar
  15    7   19 1
  16    8    9 ar
  17    8   34 1
  18    9   35 1
  19   10   11 am
  20   10   17 1
  21   10   26 1
  22   11   18 2
  23   12   13 ar
  24   12   17 ar
  25   13   14 ar
  26   13   36 1
  27   14   15 ar
  28   14   37 1
  29   15   16 ar
  30   15   38 1
  31   16   17 ar
  32   16   39 1
  33   19   20 1
  34   20   21 ar
  35   20   25 ar
  36   21   22 ar
  37   21   40 1
  38   22   23 ar
  39   22   41 1
  40   23   24 ar
  41   23   42 1
  42   24   25 ar
  43   24   43 1
  44   25   44 1
  45   26   27 1
  46   26   45 1
  47   26   46 1
  48   27   28 1
  49   27   47 1
  50   27   48 1
  51   28   29 1
  52   28   49 1
  53   28   50 1
  54   29   30 1
  55   29   51 1
  56   29   52 1
  57   30   53 1
  58   30   54 1
  59   30   55 1

#	End of record

