#	Name: ASD01730078
#	Creating user name:	WinNT
#	Creation time:	15. 06. 2019 19:23

#	Modifying user name:	WinNT
#	Modification time:	15. 06. 2019 19:23

#	Program:	/corina/corina34_cracker 3.40 0067  02.08.2006

@<TRIPOS>MOLECULE
ASD01730078
  23   24    0    0    0
SMALL
NO_CHARGES


@<TRIPOS>ATOM
   1 N1            -0.0156     1.2972     0.0092 N.2     
   2 C2             0.0021    -0.0041     0.0020 C.2     
   3 S3             1.5254    -0.8886    -0.0318 S.3     
   4 C4             2.5135     0.2664    -1.0159 C.3     
   5 C5             2.3266     1.6619    -0.4767 C.ar    
   6 C6             1.0926     2.0928     0.0029 C.ar    
   7 C7             3.4118     2.5182    -0.4635 C.ar    
   8 C8             3.2819     3.8078     0.0289 C.ar    
   9 C9             2.0564     4.2437     0.5120 C.ar    
  10 C10            0.9699     3.3977     0.5014 C.ar    
  11 O11            4.3543     4.6441     0.0387 O.3     
  12 C12            4.1474     5.9582     0.5605 C.3     
  13 F13            3.7268     5.8705     1.8919 F       
  14 F14            5.3444     6.6794     0.4961 F       
  15 F15            3.1682     6.6114    -0.1958 F       
  16 N16           -1.1840    -0.6979     0.0215 N.pl3   
  17 H17            3.5660    -0.0102    -0.9538 H       
  18 H18            2.1873     0.2308    -2.0553 H       
  19 H19            4.3666     2.1805    -0.8387 H       
  20 H20            1.9548     5.2473     0.8978 H       
  21 H21            0.0180     3.7412     0.8784 H       
  22 H22           -2.0265    -0.2176     0.0405 H       
  23 H23           -1.1786    -1.6678     0.0164 H       
@<TRIPOS>BOND
   1    1    2 2
   2    1    6 1
   3    2    3 1
   4    2   16 1
   5    3    4 1
   6    4    5 1
   7    4   17 1
   8    4   18 1
   9    5    6 ar
  10    5    7 ar
  11    6   10 ar
  12    7    8 ar
  13    7   19 1
  14    8    9 ar
  15    8   11 1
  16    9   10 ar
  17    9   20 1
  18   10   21 1
  19   11   12 1
  20   12   13 1
  21   12   14 1
  22   12   15 1
  23   16   22 1
  24   16   23 1

#	End of record

