#	Name: ASD02408406
#	Creating user name:	WinNT
#	Creation time:	15. 06. 2019 20:21

#	Modifying user name:	WinNT
#	Modification time:	15. 06. 2019 20:21

#	Program:	/corina/corina34_cracker 3.40 0067  02.08.2006

@<TRIPOS>MOLECULE
ASD02408406
  24   25    0    0    0
SMALL
NO_CHARGES


@<TRIPOS>ATOM
   1 C1            -0.1154     1.0718     0.1886 C.2     
   2 C2             0.1003     0.2013     1.2824 C.2     
   3 C3             1.1362     1.5057    -0.2397 C.2     
   4 N4             2.0551     0.9208     0.5618 N.pl3   
   5 N5             1.3845     0.1203     1.4929 N.2     
   6 C6             3.4439     1.0876     0.4741 C.ar    
   7 C7             3.9950     2.3567     0.3611 C.ar    
   8 N8             5.3007     2.5178     0.2788 N.ar    
   9 C9             6.1299     1.4927     0.3000 C.ar    
  10 C10            5.6565     0.1982     0.4104 C.ar    
  11 C11            4.2915    -0.0170     0.5048 C.ar    
  12 N12            1.3915     2.3702    -1.2867 N.pl3   
  13 C13            3.7366    -1.4128     0.6265 C.3     
  14 C14           -1.3811     1.4334    -0.3753 C.1     
  15 N15           -2.3851     1.7203    -0.8226 N.1     
  16 H16           -0.6669    -0.3082     1.8466 H       
  17 H17            3.3475     3.2207     0.3400 H       
  18 H18            7.1935     1.6666     0.2298 H       
  19 H19            6.3433    -0.6351     0.4266 H       
  20 H20            0.6567     2.8070    -1.7452 H       
  21 H21            2.3055     2.5405    -1.5632 H       
  22 H22            3.5670    -1.6461     1.6777 H       
  23 H23            2.7938    -1.4776     0.0833 H       
  24 H24            4.4475    -2.1243     0.2066 H       
@<TRIPOS>BOND
   1    1    2 1
   2    1    3 2
   3    1   14 1
   4    2    5 2
   5    2   16 1
   6    3    4 1
   7    3   12 1
   8    4    5 1
   9    4    6 1
  10    6    7 ar
  11    6   11 ar
  12    7    8 ar
  13    7   17 1
  14    8    9 ar
  15    9   10 ar
  16    9   18 1
  17   10   11 ar
  18   10   19 1
  19   11   13 1
  20   12   20 1
  21   12   21 1
  22   13   22 1
  23   13   23 1
  24   13   24 1
  25   14   15 3

#	End of record

