#	Name: ASD01915842
#	Creating user name:	WinNT
#	Creation time:	15. 06. 2019 20:06

#	Modifying user name:	WinNT
#	Modification time:	15. 06. 2019 20:06

#	Program:	/corina/corina34_cracker 3.40 0067  02.08.2006

@<TRIPOS>MOLECULE
ASD01915842
  37   39    0    0    0
SMALL
NO_CHARGES


@<TRIPOS>ATOM
   1 C1            -0.4091     1.7390     0.1052 C.ar    
   2 C2            -0.5415     0.3887     0.3740 C.ar    
   3 N3             0.5018    -0.3410     0.7077 N.ar    
   4 C4             1.7196     0.1809     0.8005 C.ar    
   5 C5             1.9326     1.5318     0.5452 C.ar    
   6 C6             0.8486     2.3303     0.1898 C.ar    
   7 C7            -1.9004    -0.2565     0.2839 C.3     
   8 O8             1.0141     3.6527    -0.0679 O.3     
   9 C9             2.2656     4.1716     0.0380 C.ar    
  10 C10            3.1962     3.9758    -0.9721 C.ar    
  11 N11            4.4116     4.4770    -0.8734 N.ar    
  12 C12            4.7905     5.1782     0.1770 C.ar    
  13 C13            3.9191     5.4155     1.2239 C.ar    
  14 C14            2.6302     4.9119     1.1585 C.ar    
  15 C15            2.8614    -0.6833     1.1799 C.2     
  16 N16            2.6619    -1.9927     1.4290 N.am    
  17 O17            3.9779    -0.2116     1.2665 O.2     
  18 C18            3.7484    -2.8270     1.6825 C.ar    
  19 C19            3.5476    -4.1947     1.8231 C.ar    
  20 C20            4.6352    -5.0140     2.0749 C.ar    
  21 C21            5.8909    -4.4347     2.1777 C.ar    
  22 C22            6.0192    -3.0643     2.0267 C.ar    
  23 N23            4.9634    -2.3095     1.7817 N.ar    
  24 F24            7.2395    -2.4932     2.1256 F       
  25 H25           -1.2714     2.3274    -0.1717 H       
  26 H26            2.9234     1.9547     0.6219 H       
  27 H27           -2.0609    -0.6257    -0.7290 H       
  28 H28           -1.9552    -1.0879     0.9866 H       
  29 H29           -2.6680     0.4776     0.5289 H       
  30 H30            2.9223     3.4066    -1.8481 H       
  31 H31            5.7951     5.5721     0.2203 H       
  32 H32            4.2383     5.9903     2.0807 H       
  33 H33            1.9284     5.0822     1.9615 H       
  34 H34            1.7618    -2.3543     1.4318 H       
  35 H35            2.5557    -4.6134     1.7375 H       
  36 H36            4.5082    -6.0804     2.1890 H       
  37 H37            6.7595    -5.0459     2.3738 H       
@<TRIPOS>BOND
   1    1    2 ar
   2    1    6 ar
   3    1   25 1
   4    2    3 ar
   5    2    7 1
   6    3    4 ar
   7    4    5 ar
   8    4   15 1
   9    5    6 ar
  10    5   26 1
  11    6    8 1
  12    7   27 1
  13    7   28 1
  14    7   29 1
  15    8    9 1
  16    9   10 ar
  17    9   14 ar
  18   10   11 ar
  19   10   30 1
  20   11   12 ar
  21   12   13 ar
  22   12   31 1
  23   13   14 ar
  24   13   32 1
  25   14   33 1
  26   15   16 am
  27   15   17 2
  28   16   18 1
  29   16   34 1
  30   18   19 ar
  31   18   23 ar
  32   19   20 ar
  33   19   35 1
  34   20   21 ar
  35   20   36 1
  36   21   22 ar
  37   21   37 1
  38   22   23 ar
  39   22   24 1

#	End of record

