#	Name: ASD01881631
#	Creating user name:	WinNT
#	Creation time:	15. 06. 2019 19:43

#	Modifying user name:	WinNT
#	Modification time:	15. 06. 2019 19:43

#	Program:	/corina/corina34_cracker 3.40 0067  02.08.2006

@<TRIPOS>MOLECULE
ASD01881631
  50   53    0    0    0
SMALL
NO_CHARGES


@<TRIPOS>ATOM
   1 N1            -0.0137     1.2965     0.1626 N.pl3   
   2 N2             0.0064     0.0275     0.3832 N.2     
   3 N3             1.2085    -0.4268     0.4466 N.2     
   4 C4             2.0772     0.5871     0.2587 C.ar    
   5 C5             1.2851     1.7354     0.0692 C.ar    
   6 C6             3.4699     0.6965     0.2218 C.ar    
   7 C7             4.0487     1.9304    -0.0002 C.ar    
   8 C8             3.2540     3.0591    -0.1863 C.ar    
   9 C9             1.8906     2.9652    -0.1532 C.ar    
  10 C10           -1.2132     2.1267     0.0283 C.3     
  11 C11           -1.6185     2.6634     1.4025 C.3     
  12 C12           -0.4776     3.5050     1.9780 C.3     
  13 C13           -2.8713     3.5305     1.2622 C.3     
  14 C14           -1.9117     1.4916     2.3415 C.3     
  15 O15            5.4033     2.0444    -0.0370 O.3     
  16 C16            5.9405     3.3642    -0.1452 C.3     
  17 C17            7.2091     3.4579     0.6629 C.ar    
  18 C18            7.4752     4.5959     1.4014 C.ar    
  19 C19            8.6380     4.6828     2.1431 C.ar    
  20 C20            9.5366     3.6295     2.1466 C.ar    
  21 C21            9.2691     2.4902     1.4066 C.ar    
  22 C22            8.1031     2.4034     0.6698 C.ar    
  23 F23           10.6739     3.7135     2.8710 F       
  24 C24            6.2466     3.6715    -1.6124 C.3     
  25 C25            5.0802     3.6275    -2.6016 C.3     
  26 C26            5.6869     4.9715    -2.1935 C.3     
  27 Br27           4.5531    -0.8327     0.4744 Br      
  28 H28            3.7197     4.0182    -0.3587 H       
  29 H29            1.2847     3.8473    -0.2991 H       
  30 H30           -1.0043     2.9615    -0.6407 H       
  31 H31           -2.0260     1.5271    -0.3817 H       
  32 H32           -0.2687     4.3398     1.3090 H       
  33 H33           -0.7663     3.8874     2.9570 H       
  34 H34            0.4149     2.8873     2.0779 H       
  35 H35           -3.6840     2.9309     0.8522 H       
  36 H36           -3.1600     3.9129     2.2412 H       
  37 H37           -2.6623     4.3653     0.5932 H       
  38 H38           -1.0192     0.8740     2.4415 H       
  39 H39           -2.2004     1.8741     3.3206 H       
  40 H40           -2.7245     0.8921     1.9315 H       
  41 H41            5.2148     4.0841     0.2331 H       
  42 H42            6.7742     5.4175     1.3982 H       
  43 H43            8.8458     5.5721     2.7197 H       
  44 H44            9.9694     1.6680     1.4085 H       
  45 H45            7.8923     1.5132     0.0958 H       
  46 H46            7.2216     3.3392    -1.9688 H       
  47 H47            5.2880     3.2667    -3.6089 H       
  48 H48            4.0948     3.3796    -2.2071 H       
  49 H49            5.1007     5.6078    -1.5305 H       
  50 H50            6.2938     5.4948    -2.9323 H       
@<TRIPOS>BOND
   1    1    2 1
   2    1    5 1
   3    1   10 1
   4    2    3 2
   5    3    4 1
   6    4    5 ar
   7    4    6 ar
   8    5    9 ar
   9    6    7 ar
  10    6   27 1
  11    7    8 ar
  12    7   15 1
  13    8    9 ar
  14    8   28 1
  15    9   29 1
  16   10   11 1
  17   10   30 1
  18   10   31 1
  19   11   12 1
  20   11   13 1
  21   11   14 1
  22   12   32 1
  23   12   33 1
  24   12   34 1
  25   13   35 1
  26   13   36 1
  27   13   37 1
  28   14   38 1
  29   14   39 1
  30   14   40 1
  31   15   16 1
  32   16   17 1
  33   16   24 1
  34   16   41 1
  35   17   18 ar
  36   17   22 ar
  37   18   19 ar
  38   18   42 1
  39   19   20 ar
  40   19   43 1
  41   20   21 ar
  42   20   23 1
  43   21   22 ar
  44   21   44 1
  45   22   45 1
  46   24   25 1
  47   24   26 1
  48   24   46 1
  49   25   26 1
  50   25   47 1
  51   25   48 1
  52   26   49 1
  53   26   50 1

#	End of record

