#	Name: ASD01140602
#	Creating user name:	WinNT
#	Creation time:	15. 06. 2019 19:01

#	Modifying user name:	WinNT
#	Modification time:	15. 06. 2019 19:01

#	Program:	/corina/corina34_cracker 3.40 0067  02.08.2006

@<TRIPOS>MOLECULE
ASD01140602
  46   47    0    0    0
SMALL
NO_CHARGES


@<TRIPOS>ATOM
   1 C1             0.5739     2.5939    -2.6291 C.ar    
   2 C2             0.9563     1.7201    -3.6303 C.ar    
   3 C3             2.1611     1.0437    -3.5450 C.ar    
   4 C4             2.9893     1.2370    -2.4596 C.ar    
   5 C5             2.6107     2.1177    -1.4442 C.ar    
   6 C6             1.3936     2.7974    -1.5359 C.ar    
   7 Cl7            0.9128     3.8951    -0.2799 Cl      
   8 C8             3.4935     2.3294    -0.2775 C.2     
   9 O9             3.2107     3.1712     0.5548 O.2     
  10 C10            4.7101     1.5251    -0.1229 C.2     
  11 C11            5.9515     2.1249    -0.2168 C.2     
  12 C12            4.6091     0.0822     0.1318 C.2     
  13 O13            5.6124    -0.5669     0.3611 O.2     
  14 N14            3.4050    -0.5230     0.1116 N.am    
  15 C15            3.3138    -1.9777     0.2595 C.3     
  16 C16            3.6037    -2.6463    -1.0858 C.3     
  17 C17            1.9059    -2.3558     0.7239 C.3     
  18 C18            1.6516    -1.7665     2.1128 C.3     
  19 N19            7.0674     1.4103     0.0398 N.pl3   
  20 C20            8.3141     2.0427     0.0558 C.ar    
  21 C21            9.4634     1.3085     0.3198 C.ar    
  22 C22           10.6936     1.9357     0.3346 C.ar    
  23 C23           10.7822     3.2944     0.0866 C.ar    
  24 C24            9.6387     4.0284    -0.1762 C.ar    
  25 C25            8.4065     3.4053    -0.1979 C.ar    
  26 Cl26          12.3303     4.0795     0.1059 Cl      
  27 H27           -0.3653     3.1217    -2.7042 H       
  28 H28            0.3117     1.5642    -4.4827 H       
  29 H29            2.4530     0.3625    -4.3306 H       
  30 H30            3.9287     0.7081    -2.3948 H       
  31 H31            6.0288     3.1654    -0.4956 H       
  32 H32            2.5989     0.0045    -0.0009 H       
  33 H33            4.0423    -2.3143     0.9970 H       
  34 H34            4.6067    -2.3769    -1.4167 H       
  35 H35            3.5358    -3.7286    -0.9758 H       
  36 H36            2.8752    -2.3097    -1.8234 H       
  37 H37            1.1728    -1.9595     0.0213 H       
  38 H38            1.8170    -3.4413     0.7680 H       
  39 H39            0.6486    -2.0359     2.4437 H       
  40 H40            2.3847    -2.1629     2.8154 H       
  41 H41            1.7404    -0.6810     2.0688 H       
  42 H42            7.0044     0.4580     0.2131 H       
  43 H43            9.3949     0.2483     0.5138 H       
  44 H44           11.5875     1.3654     0.5401 H       
  45 H45            9.7107     5.0886    -0.3690 H       
  46 H46            7.5145     3.9786    -0.4034 H       
@<TRIPOS>BOND
   1    1    2 ar
   2    1    6 ar
   3    1   27 1
   4    2    3 ar
   5    2   28 1
   6    3    4 ar
   7    3   29 1
   8    4    5 ar
   9    4   30 1
  10    5    6 ar
  11    5    8 1
  12    6    7 1
  13    8    9 2
  14    8   10 1
  15   10   11 2
  16   10   12 1
  17   11   19 1
  18   11   31 1
  19   12   13 2
  20   12   14 am
  21   14   15 1
  22   14   32 1
  23   15   16 1
  24   15   17 1
  25   15   33 1
  26   16   34 1
  27   16   35 1
  28   16   36 1
  29   17   18 1
  30   17   37 1
  31   17   38 1
  32   18   39 1
  33   18   40 1
  34   18   41 1
  35   19   20 1
  36   19   42 1
  37   20   21 ar
  38   20   25 ar
  39   21   22 ar
  40   21   43 1
  41   22   23 ar
  42   22   44 1
  43   23   24 ar
  44   23   26 1
  45   24   25 ar
  46   24   45 1
  47   25   46 1

#	End of record

