#	Name: ASD07930610
#	Creating user name:	WinNT
#	Creation time:	15. 06. 2019 21:12

#	Modifying user name:	WinNT
#	Modification time:	15. 06. 2019 21:12

#	Program:	/corina/corina34_cracker 3.40 0067  02.08.2006

@<TRIPOS>MOLECULE
ASD07930610
  42   43    0    0    0
SMALL
NO_CHARGES


@<TRIPOS>ATOM
   1 C1            -1.0324     1.8238     0.1920 C.3     
   2 N2            -0.0030     0.1920    -2.0857 N.2     
   3 N3            -1.4083    -1.4645    -1.2240 N.pl3   
   4 C4            -1.2213    -2.5347    -0.2387 C.3     
   5 C5            -1.5784    -2.0054     1.1571 C.3     
   6 S6            -0.5554    -0.5367     1.4900 S.o2    
   7 N7            -0.7767     0.3832     0.1184 N.am    
   8 C8            -0.7073    -0.2828    -1.0970 C.2     
   9 C9             0.2382    -2.9933    -0.2532 C.3     
  10 C10           -2.1183    -3.6963    -0.5811 C.ar    
  11 C11           -2.4600    -3.9529    -1.8985 C.ar    
  12 C12           -3.2912    -5.0377    -2.1672 C.ar    
  13 C13           -3.7438    -5.8173    -1.1111 C.ar    
  14 N14           -3.3943    -5.5380     0.1288 N.ar    
  15 C15           -2.6049    -4.5216     0.4159 C.ar    
  16 O16           -1.1170     0.2423     2.5374 O.2     
  17 O17            0.8258    -0.8708     1.4774 O.2     
  18 N18           -3.6649    -5.3374    -3.4821 N.am    
  19 C19           -2.7989    -5.1275    -4.4933 C.2     
  20 O20           -1.7285    -4.6005    -4.2755 O.2     
  21 C21           -3.1607    -5.5476    -5.8946 C.3     
  22 O22           -2.0887    -5.2213    -6.7814 O.3     
  23 C23           -2.3313    -5.5800    -8.1433 C.3     
  24 H24           -0.0852     2.3626     0.1689 H       
  25 H25           -1.6443     2.1281    -0.6572 H       
  26 H26           -1.5581     2.0526     1.1191 H       
  27 H27            0.4839     1.0241    -1.9788 H       
  28 H28           -2.0206    -1.5888    -1.9660 H       
  29 H29           -2.6334    -1.7330     1.1880 H       
  30 H30           -1.3743    -2.7723     1.9043 H       
  31 H31            0.8857    -2.1528    -0.0035 H       
  32 H32            0.3765    -3.7886     0.4792 H       
  33 H33            0.4923    -3.3653    -1.2458 H       
  34 H34           -2.0914    -3.3270    -2.6978 H       
  35 H35           -4.3891    -6.6608    -1.3076 H       
  36 H36           -2.3414    -4.3261     1.4448 H       
  37 H37           -4.5472    -5.6961    -3.6658 H       
  38 H38           -3.3366    -6.6231    -5.9175 H       
  39 H39           -4.0641    -5.0249    -6.2089 H       
  40 H40           -1.4714    -5.2995    -8.7516 H       
  41 H41           -2.4900    -6.6561    -8.2128 H       
  42 H42           -3.2175    -5.0579    -8.5041 H       
@<TRIPOS>BOND
   1    1    7 1
   2    1   24 1
   3    1   25 1
   4    1   26 1
   5    2    8 2
   6    2   27 1
   7    3    4 1
   8    3    8 1
   9    3   28 1
  10    4    5 1
  11    4    9 1
  12    4   10 1
  13    5    6 1
  14    5   29 1
  15    5   30 1
  16    6    7 am
  17    6   16 2
  18    6   17 2
  19    7    8 1
  20    9   31 1
  21    9   32 1
  22    9   33 1
  23   10   11 ar
  24   10   15 ar
  25   11   12 ar
  26   11   34 1
  27   12   13 ar
  28   12   18 1
  29   13   14 ar
  30   13   35 1
  31   14   15 ar
  32   15   36 1
  33   18   19 am
  34   18   37 1
  35   19   20 2
  36   19   21 1
  37   21   22 1
  38   21   38 1
  39   21   39 1
  40   22   23 1
  41   23   40 1
  42   23   41 1
  43   23   42 1

#	End of record

