#	Name: ASD00451036
#	Creating user name:	WinNT
#	Creation time:	15. 06. 2019 18:36

#	Modifying user name:	WinNT
#	Modification time:	15. 06. 2019 18:36

#	Program:	/corina/corina34_cracker 3.40 0067  02.08.2006

@<TRIPOS>MOLECULE
ASD00451036
  51   55    0    0    0
SMALL
NO_CHARGES


@<TRIPOS>ATOM
   1 C1             0.3826     1.6751    -0.1997 C.ar    
   2 C2             0.2710     0.3044    -0.1270 C.ar    
   3 C3             1.6591     2.2748    -0.1641 C.ar    
   4 N4            -0.7638     2.4686    -0.3139 N.am    
   5 C5             1.4028    -0.4986    -0.0184 C.ar    
   6 C6             1.8095     3.6691    -0.2355 C.ar    
   7 C7             2.8099     1.4567    -0.0540 C.ar    
   8 C8             2.6612     0.0566     0.0191 C.ar    
   9 C9             3.0559     4.2155    -0.1981 C.ar    
  10 C10            4.0799     2.0556    -0.0183 C.ar    
  11 O11            3.7560    -0.7412     0.1263 O.3     
  12 C12            4.1883     3.4107    -0.0898 C.ar    
  13 C13            3.5594    -2.0735     0.2996 C.ar    
  14 C14            3.4088    -2.9232    -0.7935 C.ar    
  15 C15            3.5085    -2.6299     1.5758 C.ar    
  16 C16            3.2084    -4.2867    -0.5767 C.ar    
  17 N17            3.4090    -2.7259    -2.1728 N.am    
  18 C18            3.3069    -3.9888     1.7116 C.ar    
  19 N19            3.0930    -4.8766    -1.8292 N.am    
  20 N20            3.1627    -4.7680     0.6564 N.ar    
  21 C21            3.2169    -3.9192    -2.7672 C.2     
  22 O22            3.1636    -4.1036    -3.9688 O.2     
  23 C23           -1.8311     2.0157    -1.0012 C.2     
  24 O24           -1.7603     0.9668    -1.6122 O.2     
  25 N25           -2.9768     2.7254    -1.0111 N.am    
  26 C26           -4.1105     2.2148    -1.6530 C.ar    
  27 C27           -5.3741     2.4579    -1.1313 C.ar    
  28 C28           -6.4913     1.9525    -1.7673 C.ar    
  29 C29           -6.3522     1.2047    -2.9219 C.ar    
  30 C30           -5.0950     0.9608    -3.4441 C.ar    
  31 C31           -3.9747     1.4685    -2.8165 C.ar    
  32 C32           -4.9480     0.1448    -4.7026 C.3     
  33 F33           -6.2124    -0.2508    -5.1522 F       
  34 F34           -4.3229     0.9162    -5.6881 F       
  35 F35           -4.1723    -0.9884    -4.4356 F       
  36 H36           -0.7068    -0.1531    -0.1544 H       
  37 H37           -0.7906     3.3448     0.1014 H       
  38 H38            1.2917    -1.5714     0.0375 H       
  39 H39            0.9406     4.3049    -0.3200 H       
  40 H40            3.1686     5.2882    -0.2535 H       
  41 H41            4.9661     1.4440     0.0657 H       
  42 H42            5.1660     3.8686    -0.0621 H       
  43 H43            3.6257    -2.0053     2.4490 H       
  44 H44            3.5268    -1.8765    -2.6263 H       
  45 H45            3.2674    -4.4224     2.6999 H       
  46 H46            2.9477    -5.8204    -1.9994 H       
  47 H47           -3.0155     3.5901    -0.5733 H       
  48 H48           -5.4834     3.0414    -0.2291 H       
  49 H49           -7.4744     2.1412    -1.3620 H       
  50 H50           -7.2272     0.8100    -3.4169 H       
  51 H51           -2.9932     1.2776    -3.2247 H       
@<TRIPOS>BOND
   1    1    2 ar
   2    1    3 ar
   3    1    4 1
   4    2    5 ar
   5    2   36 1
   6    3    6 ar
   7    3    7 ar
   8    4   23 am
   9    4   37 1
  10    5    8 ar
  11    5   38 1
  12    6    9 ar
  13    6   39 1
  14    7    8 ar
  15    7   10 ar
  16    8   11 1
  17    9   12 ar
  18    9   40 1
  19   10   12 ar
  20   10   41 1
  21   11   13 1
  22   12   42 1
  23   13   15 ar
  24   13   14 ar
  25   14   16 ar
  26   14   17 1
  27   15   18 ar
  28   15   43 1
  29   16   19 1
  30   16   20 ar
  31   17   21 am
  32   17   44 1
  33   18   20 ar
  34   18   45 1
  35   19   21 am
  36   19   46 1
  37   21   22 2
  38   23   24 2
  39   23   25 am
  40   25   26 1
  41   25   47 1
  42   26   27 ar
  43   26   31 ar
  44   27   28 ar
  45   27   48 1
  46   28   29 ar
  47   28   49 1
  48   29   30 ar
  49   29   50 1
  50   30   31 ar
  51   30   32 1
  52   31   51 1
  53   32   33 1
  54   32   34 1
  55   32   35 1

#	End of record

