#	Name: ASD04880315
#	Creating user name:	WinNT
#	Creation time:	15. 06. 2019 20:53

#	Modifying user name:	WinNT
#	Modification time:	15. 06. 2019 20:53

#	Program:	/corina/corina34_cracker 3.40 0067  02.08.2006

@<TRIPOS>MOLECULE
ASD04880315
  42   45    0    0    0
SMALL
NO_CHARGES


@<TRIPOS>ATOM
   1 C1            -0.0050     1.3654     0.3484 C.ar    
   2 C2             0.0097    -0.0267     0.3166 C.ar    
   3 C3            -1.1804    -0.7293     0.2599 C.ar    
   4 C4            -2.3923    -0.0414     0.2348 C.ar    
   5 C5            -2.4011     1.3520     0.2668 C.ar    
   6 C6            -1.2115     2.0487     0.3287 C.ar    
   7 C7            -3.6709    -0.7911     0.1735 C.2     
   8 O8             1.1651     2.0556     0.4045 O.3     
   9 C9             1.0764     3.4815     0.4346 C.3     
  10 O10            1.1938    -0.6952     0.3408 O.3     
  11 C11            1.1339    -2.1225     0.3057 C.3     
  12 N12           -3.7974    -2.0995     0.1389 N.2     
  13 N13           -5.1635    -2.4050     0.0849 N.am    
  14 C14           -5.8573    -1.2317     0.0882 C.2     
  15 C15           -4.9634    -0.2240     0.1484 C.2     
  16 C16           -5.6978    -3.6414     0.0375 C.2     
  17 C17           -4.8203    -4.8191    -0.0883 C.ar    
  18 O18           -6.9028    -3.7853     0.0985 O.2     
  19 C19           -5.3558    -6.1061     0.0141 C.ar    
  20 C20           -4.5340    -7.2054    -0.1042 C.ar    
  21 C21           -3.1731    -7.0404    -0.3253 C.ar    
  22 C22           -2.6317    -5.7576    -0.4287 C.ar    
  23 C23           -3.4506    -4.6519    -0.3164 C.ar    
  24 O24           -2.1681    -7.9494    -0.4753 O.3     
  25 C25           -1.0799    -7.2252    -1.0787 C.3     
  26 O26           -1.2880    -5.8685    -0.6440 O.3     
  27 H27           -1.1706    -1.8090     0.2348 H       
  28 H28           -3.3393     1.8864     0.2474 H       
  29 H29           -1.2200     3.1284     0.3534 H       
  30 H30            0.5109     3.7919     1.3131 H       
  31 H31            2.0790     3.9070     0.4789 H       
  32 H32            0.5719     3.8332    -0.4653 H       
  33 H33            0.6354    -2.4428    -0.6092 H       
  34 H34            2.1448    -2.5293     0.3301 H       
  35 H35            0.5757    -2.4841     1.1693 H       
  36 H36           -6.9317    -1.1279     0.0537 H       
  37 H37           -5.1951     0.8307     0.1671 H       
  38 H38           -6.4137    -6.2387     0.1864 H       
  39 H39           -4.9496    -8.1991    -0.0245 H       
  40 H40           -3.0329    -3.6591    -0.3965 H       
  41 H41           -0.1228    -7.6007    -0.7166 H       
  42 H42           -1.1320    -7.2914    -2.1654 H       
@<TRIPOS>BOND
   1    1    2 ar
   2    1    8 1
   3    1    6 ar
   4    2    3 ar
   5    2   10 1
   6    3    4 ar
   7    3   27 1
   8    4    5 ar
   9    4    7 1
  10    5    6 ar
  11    5   28 1
  12    6   29 1
  13    7   12 2
  14    7   15 1
  15    8    9 1
  16    9   30 1
  17    9   31 1
  18    9   32 1
  19   10   11 1
  20   11   33 1
  21   11   34 1
  22   11   35 1
  23   12   13 1
  24   13   14 1
  25   13   16 am
  26   14   15 2
  27   14   36 1
  28   15   37 1
  29   16   17 1
  30   16   18 2
  31   17   19 ar
  32   17   23 ar
  33   19   20 ar
  34   19   38 1
  35   20   21 ar
  36   20   39 1
  37   21   22 ar
  38   21   24 1
  39   22   23 ar
  40   22   26 1
  41   23   40 1
  42   24   25 1
  43   25   26 1
  44   25   41 1
  45   25   42 1

#	End of record

