#	Name: ASD03930153
#	Creating user name:	WinNT
#	Creation time:	15. 06. 2019 20:47

#	Modifying user name:	WinNT
#	Modification time:	15. 06. 2019 20:47

#	Program:	/corina/corina34_cracker 3.40 0067  02.08.2006

@<TRIPOS>MOLECULE
ASD03930153
  22   22    0    0    0
SMALL
NO_CHARGES


@<TRIPOS>ATOM
   1 C1            -0.7184    -1.6988     0.7307 C.3     
   2 C2             0.3062    -0.6052     0.4222 C.3     
   3 C3            -0.3751     0.7634     0.4820 C.3     
   4 O4             1.3606    -0.6549     1.3854 O.3     
   5 N5             1.1945    -1.5956    -2.9730 N.pl3   
   6 N6             2.1580    -0.6101    -2.7222 N.2     
   7 C7             1.9652    -0.1482    -1.5134 C.2     
   8 C8             0.8744    -0.8237    -0.9563 C.2     
   9 C9             0.4193    -1.7077    -1.8741 C.2     
  10 C10            2.7782     0.9258    -0.8377 C.3     
  11 F11            3.8821     1.2462    -1.6352 F       
  12 F12            1.9871     2.0654    -0.6569 F       
  13 F13            3.2203     0.4629     0.4063 F       
  14 H14           -1.5667    -1.6036     0.0530 H       
  15 H15           -0.2562    -2.6772     0.5992 H       
  16 H16           -1.0621    -1.5948     1.7599 H       
  17 H17           -0.8907     0.8712     1.4363 H       
  18 H18            0.3756     1.5476     0.3841 H       
  19 H19           -1.0956     0.8465    -0.3317 H       
  20 H20            1.8376    -1.4959     1.4034 H       
  21 H21            1.0989    -2.1046    -3.7932 H       
  22 H22           -0.4150    -2.3822    -1.7496 H       
@<TRIPOS>BOND
   1    1    2 1
   2    1   14 1
   3    1   15 1
   4    1   16 1
   5    2    3 1
   6    2    4 1
   7    2    8 1
   8    3   17 1
   9    3   18 1
  10    3   19 1
  11    4   20 1
  12    5    6 1
  13    5    9 1
  14    5   21 1
  15    6    7 2
  16    7    8 1
  17    7   10 1
  18    8    9 2
  19    9   22 1
  20   10   11 1
  21   10   12 1
  22   10   13 1

#	End of record

