#	Name: ASD02408031
#	Creating user name:	WinNT
#	Creation time:	15. 06. 2019 20:21

#	Modifying user name:	WinNT
#	Modification time:	15. 06. 2019 20:21

#	Program:	/corina/corina34_cracker 3.40 0067  02.08.2006

@<TRIPOS>MOLECULE
ASD02408031
  26   27    0    0    0
SMALL
NO_CHARGES


@<TRIPOS>ATOM
   1 C1            -0.0160     1.3297     0.0094 C.2     
   2 C2             0.0021    -0.0041     0.0020 C.2     
   3 C3             1.2433     2.1575     0.0018 C.3     
   4 C4             1.6498     2.4405    -1.4215 C.2     
   5 N5             2.7586     3.1719    -1.6489 N.am    
   6 N6             0.9193     1.9647    -2.3925 N.2     
   7 C7             1.2326     2.1841    -3.6768 C.2     
   8 C8             2.3744     2.9442    -3.9855 C.2     
   9 C9             3.1525     3.4448    -2.9106 C.2     
  10 S10            0.2252     1.5268    -4.9643 S.3     
  11 O11            4.1522     4.1096    -3.1214 O.2     
  12 C12           -1.0347     0.6817    -3.9771 C.3     
  13 S13           -1.6467    -0.6164     0.0145 S.3     
  14 C14           -2.2867     1.0218     0.0295 C.2     
  15 C15           -1.2791     1.8958     0.0186 C.2     
  16 C16            2.7436     3.2012    -5.3450 C.1     
  17 N17            3.0364     3.4051    -6.4235 N.1     
  18 H18            0.8929    -0.6146    -0.0101 H       
  19 H19            1.0628     3.0981     0.5220 H       
  20 H20            2.0405     1.6108     0.5055 H       
  21 H21            3.2774     3.5050    -0.9001 H       
  22 H22           -1.5446     1.4059    -3.3417 H       
  23 H23           -1.7581     0.2074    -4.6403 H       
  24 H24           -0.5602    -0.0771    -3.3549 H       
  25 H25           -3.3352     1.2805     0.0409 H       
  26 H26           -1.4368     2.9642     0.0246 H       
@<TRIPOS>BOND
   1    1    2 2
   2    1    3 1
   3    1   15 1
   4    2   13 1
   5    2   18 1
   6    3    4 1
   7    3   19 1
   8    3   20 1
   9    4    5 1
  10    4    6 2
  11    5    9 am
  12    5   21 1
  13    6    7 1
  14    7    8 2
  15    7   10 1
  16    8    9 1
  17    8   16 1
  18    9   11 2
  19   10   12 1
  20   12   22 1
  21   12   23 1
  22   12   24 1
  23   13   14 1
  24   14   15 2
  25   14   25 1
  26   15   26 1
  27   16   17 3

#	End of record

