#	Name: ASD01914846
#	Creating user name:	WinNT
#	Creation time:	15. 06. 2019 20:04

#	Modifying user name:	WinNT
#	Modification time:	15. 06. 2019 20:04

#	Program:	/corina/corina34_cracker 3.40 0067  02.08.2006

@<TRIPOS>MOLECULE
ASD01914846
  39   41    0    0    0
SMALL
NO_CHARGES


@<TRIPOS>ATOM
   1 C1             1.1237    -0.7827    -0.6231 C.3     
   2 C2             0.0021    -0.0041     0.0020 C.2     
   3 C3             0.0618     1.2919     0.2183 C.2     
   4 C4             1.2611     2.1213    -0.1477 C.3     
   5 C5             2.4659     1.2083    -0.3887 C.3     
   6 N6             2.0579     0.1259    -1.2996 N.3     
   7 C7             3.2275    -0.6037    -1.8072 C.3     
   8 N8            -3.2591    -1.2034     1.0957 N.pl3   
   9 N9            -2.3370    -0.1800     0.8429 N.2     
  10 C10           -1.2258    -0.7273     0.3917 C.2     
  11 C11           -1.4152    -2.1277     0.3457 C.2     
  12 C12           -2.6712    -2.3896     0.7832 C.2     
  13 S13           -0.2308    -3.3190    -0.1858 S.3     
  14 C14           -1.1166    -4.8900     0.0089 C.3     
  15 C15           -0.2216    -6.0269    -0.4122 C.ar    
  16 C16            0.5991    -6.6407     0.5155 C.ar    
  17 C17            1.4201    -7.6836     0.1292 C.ar    
  18 C18            1.4201    -8.1129    -1.1848 C.ar    
  19 C19            0.5988    -7.4998    -2.1123 C.ar    
  20 C20           -0.2254    -6.4598    -1.7251 C.ar    
  21 H21            1.6551    -1.3355     0.1517 H       
  22 H22            0.7147    -1.4857    -1.3487 H       
  23 H23           -0.7849     1.7801     0.6777 H       
  24 H24            1.0477     2.6871    -1.0546 H       
  25 H25            1.4862     2.8118     0.6652 H       
  26 H26            3.2752     1.7817    -0.8406 H       
  27 H27            2.7988     0.7837     0.5584 H       
  28 H28            2.9017    -1.3629    -2.5182 H       
  29 H29            3.9031     0.0930    -2.3035 H       
  30 H30            3.7457    -1.0826    -0.9763 H       
  31 H31           -4.1591    -1.0869     1.4381 H       
  32 H32           -3.1242    -3.3663     0.8689 H       
  33 H33           -1.4016    -5.0195     1.0530 H       
  34 H34           -2.0114    -4.8822    -0.6136 H       
  35 H35            0.5990    -6.3052     1.5421 H       
  36 H36            2.0618    -8.1626     0.8539 H       
  37 H37            2.0621    -8.9272    -1.4868 H       
  38 H38            0.5991    -7.8350    -3.1390 H       
  39 H39           -0.8698    -5.9831    -2.4489 H       
@<TRIPOS>BOND
   1    1    2 1
   2    1    6 1
   3    1   21 1
   4    1   22 1
   5    2    3 2
   6    2   10 1
   7    3    4 1
   8    3   23 1
   9    4    5 1
  10    4   24 1
  11    4   25 1
  12    5    6 1
  13    5   26 1
  14    5   27 1
  15    6    7 1
  16    7   28 1
  17    7   29 1
  18    7   30 1
  19    8    9 1
  20    8   12 1
  21    8   31 1
  22    9   10 2
  23   10   11 1
  24   11   12 2
  25   11   13 1
  26   12   32 1
  27   13   14 1
  28   14   15 1
  29   14   33 1
  30   14   34 1
  31   15   16 ar
  32   15   20 ar
  33   16   17 ar
  34   16   35 1
  35   17   18 ar
  36   17   36 1
  37   18   19 ar
  38   18   37 1
  39   19   20 ar
  40   19   38 1
  41   20   39 1

#	End of record

