#	Name: ASD01850012
#	Creating user name:	WinNT
#	Creation time:	15. 06. 2019 19:38

#	Modifying user name:	WinNT
#	Modification time:	15. 06. 2019 19:38

#	Program:	/corina/corina34_cracker 3.40 0067  02.08.2006

@<TRIPOS>MOLECULE
ASD01850012
  49   53    0    0    0
SMALL
NO_CHARGES


@<TRIPOS>ATOM
   1 Cl1            0.2473     0.4022     1.1421 Cl      
   2 C2             0.1071     2.1019     0.8179 C.ar    
   3 C3             1.2395     2.8962     0.7871 C.ar    
   4 C4             1.1273     4.2494     0.5290 C.ar    
   5 C5            -0.1162     4.8093     0.3021 C.ar    
   6 C6            -1.2480     4.0162     0.3332 C.ar    
   7 C7            -1.1364     2.6617     0.5846 C.ar    
   8 C8            -0.2379     6.2848     0.0212 C.3     
   9 N9             0.9550     6.7859    -0.6718 N.am    
  10 C10            1.8683     7.2880     0.3771 C.3     
  11 C11            1.1046     7.1085     1.7115 C.3     
  12 N12           -0.3044     7.0622     1.2834 N.am    
  13 C13           -1.5770     7.4097     1.4771 C.2     
  14 O14           -2.0503     7.7765     2.5349 O.2     
  15 C15           -2.3242     7.2804     0.2075 C.ar    
  16 C16           -1.5083     6.5857    -0.7214 C.ar    
  17 C17           -1.9640     6.3467    -1.9973 C.ar    
  18 C18           -3.2258     6.7742    -2.3743 C.ar    
  19 C19           -4.0334     7.4429    -1.4710 C.ar    
  20 C20           -3.5993     7.6917    -0.1798 C.ar    
  21 C21            1.1748     6.7873    -2.0015 C.2     
  22 O22            0.3808     6.2499    -2.7496 O.2     
  23 C23            2.3782     7.4405    -2.5493 C.ar    
  24 C24            2.5229     7.5965    -3.9313 C.ar    
  25 C25            3.6427     8.2040    -4.4377 C.ar    
  26 C26            4.6358     8.6658    -3.5768 C.ar    
  27 C27            4.4943     8.5118    -2.1996 C.ar    
  28 C28            3.3741     7.9102    -1.6873 C.ar    
  29 S29            6.0738     9.4457    -4.2313 S.3     
  30 C30            7.0302     9.8519    -2.7444 C.3     
  31 F31            7.3268     8.6770    -2.0452 F       
  32 F32            8.2204    10.4873    -3.1146 F       
  33 F33            6.2811    10.7048    -1.9267 F       
  34 H34            2.2109     2.4590     0.9650 H       
  35 H35            2.0112     4.8695     0.5049 H       
  36 H36           -2.2192     4.4542     0.1563 H       
  37 H37           -2.0207     2.0422     0.6089 H       
  38 H38            2.7882     6.7034     0.3876 H       
  39 H39            2.0921     8.3415     0.2095 H       
  40 H40            1.3908     6.1755     2.1970 H       
  41 H41            1.2788     7.9575     2.3726 H       
  42 H42           -1.3369     5.8255    -2.7055 H       
  43 H43           -3.5808     6.5855    -3.3766 H       
  44 H44           -5.0185     7.7697    -1.7698 H       
  45 H45           -4.2398     8.2145     0.5152 H       
  46 H46            1.7535     7.2383    -4.5992 H       
  47 H47            3.7552     8.3244    -5.5050 H       
  48 H48            5.2660     8.8705    -1.5346 H       
  49 H49            3.2649     7.7911    -0.6194 H       
@<TRIPOS>BOND
   1    1    2 1
   2    2    3 ar
   3    2    7 ar
   4    3    4 ar
   5    3   34 1
   6    4    5 ar
   7    4   35 1
   8    5    6 ar
   9    5    8 1
  10    6    7 ar
  11    6   36 1
  12    7   37 1
  13    8    9 1
  14    8   12 1
  15    8   16 1
  16    9   10 1
  17    9   21 am
  18   10   11 1
  19   10   38 1
  20   10   39 1
  21   11   12 1
  22   11   40 1
  23   11   41 1
  24   12   13 am
  25   13   14 2
  26   13   15 1
  27   15   16 ar
  28   15   20 ar
  29   16   17 ar
  30   17   18 ar
  31   17   42 1
  32   18   19 ar
  33   18   43 1
  34   19   20 ar
  35   19   44 1
  36   20   45 1
  37   21   22 2
  38   21   23 1
  39   23   24 ar
  40   23   28 ar
  41   24   25 ar
  42   24   46 1
  43   25   26 ar
  44   25   47 1
  45   26   27 ar
  46   26   29 1
  47   27   28 ar
  48   27   48 1
  49   28   49 1
  50   29   30 1
  51   30   31 1
  52   30   32 1
  53   30   33 1

#	End of record

