#	Name: ASD03090068
#	Creating user name:	WinNT
#	Creation time:	15. 06. 2019 20:28

#	Modifying user name:	WinNT
#	Modification time:	15. 06. 2019 20:28

#	Program:	/corina/corina34_cracker 3.40 0067  02.08.2006

@<TRIPOS>MOLECULE
ASD03090068
  46   48    0    0    0
SMALL
NO_CHARGES


@<TRIPOS>ATOM
   1 C1             0.0439     1.4676     0.0133 C.2     
   2 C2            -0.0001     0.0045     0.0105 C.2     
   3 C3             1.1568    -0.7132    -0.0969 C.2     
   4 O4             0.5757     2.0589     0.9354 O.2     
   5 C5            -1.2985    -0.6970     0.1241 C.ar    
   6 C6            -2.1416    -0.4229     1.2015 C.ar    
   7 C7            -3.3515    -1.0861     1.2933 C.ar    
   8 C8            -3.6817    -2.0038     0.3045 C.ar    
   9 C9            -2.7999    -2.2273    -0.7353 C.ar    
  10 N10           -1.6544    -1.5783    -0.8030 N.ar    
  11 N11            1.1294    -2.0691     0.0171 N.pl3   
  12 C12            2.3250    -2.7954     0.0155 C.ar    
  13 C13            2.2975    -4.1793     0.1319 C.ar    
  14 C14            3.4780    -4.8954     0.1297 C.ar    
  15 C15            4.6913    -4.2331     0.0114 C.ar    
  16 C16            4.7198    -2.8509    -0.1044 C.ar    
  17 C17            3.5400    -2.1336    -0.1082 C.ar    
  18 O18            5.8533    -4.9391     0.0094 O.3     
  19 C19            7.0656    -4.1929    -0.1159 C.3     
  20 C20            8.2583    -5.1510    -0.0986 C.3     
  21 C21           -0.5519     2.2272    -1.1063 C.ar    
  22 C22           -0.6044     3.6229    -1.0585 C.ar    
  23 C23           -1.1625     4.3254    -2.1082 C.ar    
  24 C24           -1.6685     3.6504    -3.2044 C.ar    
  25 C25           -1.6194     2.2684    -3.2575 C.ar    
  26 C26           -1.0596     1.5540    -2.2188 C.ar    
  27 Cl27           0.0298     4.4711     0.3170 Cl      
  28 H28            2.0933    -0.2049    -0.2723 H       
  29 H29           -1.8532     0.2968     1.9533 H       
  30 H30           -4.0246    -0.8950     2.1160 H       
  31 H31           -4.6192    -2.5382     0.3482 H       
  32 H32           -3.0542    -2.9406    -1.5053 H       
  33 H33            0.2809    -2.5318     0.0995 H       
  34 H34            1.3531    -4.6950     0.2244 H       
  35 H35            3.4569    -5.9714     0.2205 H       
  36 H36            5.6648    -2.3361    -0.1958 H       
  37 H37            3.5621    -1.0580    -0.2028 H       
  38 H38            7.0568    -3.6406    -1.0555 H       
  39 H39            7.1493    -3.4935     0.7159 H       
  40 H40            8.1746    -5.8504    -0.9304 H       
  41 H41            9.1830    -4.5818    -0.1941 H       
  42 H42            8.2671    -5.7033     0.8411 H       
  43 H43           -1.2044     5.4040    -2.0731 H       
  44 H44           -2.1043     4.2045    -4.0226 H       
  45 H45           -2.0167     1.7480    -4.1164 H       
  46 H46           -1.0178     0.4758    -2.2644 H       
@<TRIPOS>BOND
   1    1    2 1
   2    1    4 2
   3    1   21 1
   4    2    3 2
   5    2    5 1
   6    3   11 1
   7    3   28 1
   8    5    6 ar
   9    5   10 ar
  10    6    7 ar
  11    6   29 1
  12    7    8 ar
  13    7   30 1
  14    8    9 ar
  15    8   31 1
  16    9   10 ar
  17    9   32 1
  18   11   12 1
  19   11   33 1
  20   12   13 ar
  21   12   17 ar
  22   13   14 ar
  23   13   34 1
  24   14   15 ar
  25   14   35 1
  26   15   16 ar
  27   15   18 1
  28   16   17 ar
  29   16   36 1
  30   17   37 1
  31   18   19 1
  32   19   20 1
  33   19   38 1
  34   19   39 1
  35   20   40 1
  36   20   41 1
  37   20   42 1
  38   21   22 ar
  39   21   26 ar
  40   22   23 ar
  41   22   27 1
  42   23   24 ar
  43   23   43 1
  44   24   25 ar
  45   24   44 1
  46   25   26 ar
  47   25   45 1
  48   26   46 1

#	End of record

