#	Name: ASD01884486
#	Creating user name:	WinNT
#	Creation time:	15. 06. 2019 19:48

#	Modifying user name:	WinNT
#	Modification time:	15. 06. 2019 19:48

#	Program:	/corina/corina34_cracker 3.40 0067  02.08.2006

@<TRIPOS>MOLECULE
ASD01884486
  45   48    0    0    0
SMALL
NO_CHARGES


@<TRIPOS>ATOM
   1 C1            -0.0164     1.3580     0.0095 C.2     
   2 C2             0.0021    -0.0041     0.0020 C.2     
   3 C3             1.2431    -0.6750    -0.0134 C.2     
   4 C4             2.4011     0.0453    -0.0206 C.2     
   5 N5             2.3695     1.4021    -0.0126 N.am    
   6 C6             1.1983     2.0654     0.0017 C.2     
   7 C7             3.6265     2.1546    -0.0196 C.3     
   8 O8             1.1910     3.2860     0.0088 O.2     
   9 C9             4.0448     2.4207    -1.4427 C.ar    
  10 C10            3.6216     3.5701    -2.0838 C.ar    
  11 C11            4.0048     3.8147    -3.3890 C.ar    
  12 C12            4.8122     2.9090    -4.0539 C.ar    
  13 C13            5.2354     1.7589    -3.4118 C.ar    
  14 C14            4.8561     1.5182    -2.1047 C.ar    
  15 Cl15           5.2935     3.2153    -5.6935 Cl      
  16 C16            1.2882    -2.1602    -0.0214 C.2     
  17 C17            0.8576    -2.9845     0.9760 C.2     
  18 C18            1.7777    -2.9719    -1.0625 C.2     
  19 N19            1.6489    -4.2207    -0.6992 N.2     
  20 N20            1.0737    -4.2554     0.5770 N.pl3   
  21 C21            0.7603    -5.4624     1.3457 C.3     
  22 C22           -0.1210    -6.3670     0.5235 C.ar    
  23 C23            0.4456    -7.3197    -0.3024 C.ar    
  24 C24           -0.3628    -8.1494    -1.0567 C.ar    
  25 C25           -1.7378    -8.0267    -0.9848 C.ar    
  26 C26           -2.3045    -7.0745    -0.1582 C.ar    
  27 C27           -1.4961    -6.2477     0.5994 C.ar    
  28 H28           -0.9563     1.8899     0.0169 H       
  29 H29           -0.9218    -0.5634     0.0082 H       
  30 H30            3.3511    -0.4682    -0.0325 H       
  31 H31            3.4858     3.1019     0.5010 H       
  32 H32            4.3999     1.5747     0.4840 H       
  33 H33            2.9911     4.2768    -1.5648 H       
  34 H34            3.6739     4.7125    -3.8899 H       
  35 H35            5.8656     1.0516    -3.9303 H       
  36 H36            5.1863     0.6204    -1.6033 H       
  37 H37            0.4224    -2.6761     1.9151 H       
  38 H38            2.1879    -2.6231    -1.9987 H       
  39 H39            1.6841    -5.9842     1.5955 H       
  40 H40            0.2407    -5.1844     2.2627 H       
  41 H41            1.5198    -7.4156    -0.3586 H       
  42 H42            0.0799    -8.8933    -1.7025 H       
  43 H43           -2.3694    -8.6745    -1.5746 H       
  44 H44           -3.3787    -6.9784    -0.1022 H       
  45 H45           -1.9388    -5.5038     1.2452 H       
@<TRIPOS>BOND
   1    1    2 2
   2    1    6 1
   3    1   28 1
   4    2    3 1
   5    2   29 1
   6    3    4 2
   7    3   16 1
   8    4    5 1
   9    4   30 1
  10    5    6 am
  11    5    7 1
  12    6    8 2
  13    7    9 1
  14    7   31 1
  15    7   32 1
  16    9   10 ar
  17    9   14 ar
  18   10   11 ar
  19   10   33 1
  20   11   12 ar
  21   11   34 1
  22   12   13 ar
  23   12   15 1
  24   13   14 ar
  25   13   35 1
  26   14   36 1
  27   16   17 2
  28   16   18 1
  29   17   20 1
  30   17   37 1
  31   18   19 2
  32   18   38 1
  33   19   20 1
  34   20   21 1
  35   21   22 1
  36   21   39 1
  37   21   40 1
  38   22   23 ar
  39   22   27 ar
  40   23   24 ar
  41   23   41 1
  42   24   25 ar
  43   24   42 1
  44   25   26 ar
  45   25   43 1
  46   26   27 ar
  47   26   44 1
  48   27   45 1

#	End of record

