#	Name: ASD01790012
#	Creating user name:	WinNT
#	Creation time:	15. 06. 2019 19:23

#	Modifying user name:	WinNT
#	Modification time:	15. 06. 2019 19:23

#	Program:	/corina/corina34_cracker 3.40 0067  02.08.2006

@<TRIPOS>MOLECULE
ASD01790012
  43   43    0    0    0
SMALL
NO_CHARGES


@<TRIPOS>ATOM
   1 C1            -1.3801     4.5100    -2.3630 C.ar    
   2 C2            -1.8224     4.0295    -3.5948 C.ar    
   3 C3            -2.9398     3.2081    -3.6625 C.ar    
   4 C4            -3.6166     2.8640    -2.5130 C.ar    
   5 C5            -3.1788     3.3421    -1.2748 C.ar    
   6 C6            -2.0507     4.1649    -1.2060 C.ar    
   7 O7            -0.2850     5.3140    -2.3002 O.3     
   8 O8            -1.1591     4.3660    -4.7309 O.3     
   9 C9            -3.9019     2.9749    -0.0431 C.2     
  10 O10           -4.9861     2.1775    -0.1107 O.3     
  11 O11           -3.5201     3.3913     1.0326 O.2     
  12 C12           -5.6481     1.8575     1.1414 C.3     
  13 C13           -6.8300     0.9628     0.8704 C.2     
  14 C14           -7.9874     1.2196     1.4277 C.2     
  15 C15           -9.1994     0.4040     1.0579 C.3     
  16 C16           -8.1068     2.3307     2.4388 C.3     
  17 C17           -9.3772    -0.7319     2.0674 C.3     
  18 C18          -10.5892    -1.5476     1.6976 C.2     
  19 C19          -10.4737    -2.8362     1.4921 C.2     
  20 C20           -9.1107    -3.4790     1.4859 C.3     
  21 C21          -11.7038    -3.6757     1.2618 C.3     
  22 H22           -3.2794     2.8382    -4.6187 H       
  23 H23           -4.4856     2.2252    -2.5686 H       
  24 H24           -1.7092     4.5364    -0.2511 H       
  25 H25           -0.4849     6.2573    -2.3738 H       
  26 H26           -0.4500     3.7531    -4.9685 H       
  27 H27           -4.9484     1.3451     1.8017 H       
  28 H28           -5.9897     2.7767     1.6171 H       
  29 H29           -6.7230     0.1098     0.2166 H       
  30 H30          -10.0835     1.0414     1.0688 H       
  31 H31           -9.0653    -0.0143     0.0603 H       
  32 H32           -8.2872     3.2737     1.9227 H       
  33 H33           -8.9372     2.1209     3.1129 H       
  34 H34           -7.1823     2.4013     3.0120 H       
  35 H35           -8.4931    -1.3694     2.0565 H       
  36 H36           -9.5113    -0.3137     3.0650 H       
  37 H37          -11.5530    -1.0697     1.6020 H       
  38 H38           -8.8136    -3.7106     2.5088 H       
  39 H39           -9.1450    -4.3979     0.9006 H       
  40 H40           -8.3876    -2.7935     1.0439 H       
  41 H41          -12.2302    -3.3143     0.3784 H       
  42 H42          -11.4114    -4.7149     1.1108 H       
  43 H43          -12.3595    -3.6052     2.1296 H       
@<TRIPOS>BOND
   1    1    2 ar
   2    1    7 1
   3    1    6 ar
   4    2    3 ar
   5    2    8 1
   6    3    4 ar
   7    3   22 1
   8    4    5 ar
   9    4   23 1
  10    5    6 ar
  11    5    9 1
  12    6   24 1
  13    7   25 1
  14    8   26 1
  15    9   10 1
  16    9   11 2
  17   10   12 1
  18   12   13 1
  19   12   27 1
  20   12   28 1
  21   13   14 2
  22   13   29 1
  23   14   15 1
  24   14   16 1
  25   15   17 1
  26   15   30 1
  27   15   31 1
  28   16   32 1
  29   16   33 1
  30   16   34 1
  31   17   18 1
  32   17   35 1
  33   17   36 1
  34   18   19 2
  35   18   37 1
  36   19   20 1
  37   19   21 1
  38   20   38 1
  39   20   39 1
  40   20   40 1
  41   21   41 1
  42   21   42 1
  43   21   43 1

#	End of record

