#	Name: ASD03540125
#	Creating user name:	WinNT
#	Creation time:	15. 06. 2019 20:42

#	Modifying user name:	WinNT
#	Modification time:	15. 06. 2019 20:42

#	Program:	/corina/corina34_cracker 3.40 0067  02.08.2006

@<TRIPOS>MOLECULE
ASD03540125
  43   47    0    0    0
SMALL
NO_CHARGES


@<TRIPOS>ATOM
   1 C1            -0.0180     1.4732     0.0101 C.2     
   2 C2             0.0021    -0.0041     0.0020 C.ar    
   3 C3             1.2175    -0.6860    -0.0132 C.ar    
   4 C4             1.2271    -2.0794    -0.0209 C.ar    
   5 C5             2.5107    -2.8108    -0.0366 C.2     
   6 C6             0.0198    -2.7834    -0.0132 C.ar    
   7 C7            -1.1804    -2.1015     0.0020 C.ar    
   8 C8            -1.1973    -0.7207     0.0154 C.ar    
   9 O9             1.0256     2.0948     0.0035 O.2     
  10 O10           -1.1936     2.1308     0.0193 O.3     
  11 O11            3.5592    -2.1975    -0.0428 O.2     
  12 O12            2.5183    -4.1578    -0.0439 O.3     
  13 C13           -1.1373     3.5817     0.0269 C.3     
  14 N14           -1.0051     5.5650    -5.2169 N.2     
  15 S15            0.0234     6.7257    -5.0972 S.3     
  16 N16            0.3832     6.6204    -3.5876 N.2     
  17 C17           -0.3015     5.6291    -3.0402 C.ar    
  18 C18           -1.1512     4.9832    -4.0374 C.ar    
  19 C19           -0.3247     5.1375    -1.7108 C.ar    
  20 C20           -1.1245     4.0914    -1.3912 C.ar    
  21 C21           -1.9360     3.4746    -2.3435 C.ar    
  22 C22           -1.9616     3.8930    -3.6322 C.ar    
  23 N23           -5.5568     5.7067     2.7474 N.2     
  24 S24           -4.9402     6.9564     3.4382 S.3     
  25 N25           -3.4689     6.8456     2.9459 N.2     
  26 C26           -3.3429     5.7794     2.1723 C.ar    
  27 C27           -4.6208     5.0823     2.0508 C.ar    
  28 C28           -2.2175     5.2534     1.4893 C.ar    
  29 C29           -2.3439     4.1275     0.7460 C.ar    
  30 C30           -3.5642     3.4617     0.6301 C.ar    
  31 C31           -4.6796     3.9105     1.2552 C.ar    
  32 H32            2.1475    -0.1371    -0.0195 H       
  33 H33            0.0259    -3.8634    -0.0194 H       
  34 H34           -2.1105    -2.6505     0.0075 H       
  35 H35           -2.1398    -0.1935     0.0317 H       
  36 H36            3.3823    -4.5920    -0.0542 H       
  37 H37           -0.2314     3.9075     0.5382 H       
  38 H38            0.2939     5.5963    -0.9536 H       
  39 H39           -2.5581     2.6431    -2.0469 H       
  40 H40           -2.5992     3.3972    -4.3491 H       
  41 H41           -1.2607     5.7491     1.5617 H       
  42 H42           -3.6217     2.5677     0.0269 H       
  43 H43           -5.6118     3.3756     1.1483 H       
@<TRIPOS>BOND
   1    1    2 1
   2    1    9 2
   3    1   10 1
   4    2    3 ar
   5    2    8 ar
   6    3    4 ar
   7    3   32 1
   8    4    5 1
   9    4    6 ar
  10    5   11 2
  11    5   12 1
  12    6    7 ar
  13    6   33 1
  14    7    8 ar
  15    7   34 1
  16    8   35 1
  17   10   13 1
  18   12   36 1
  19   13   20 1
  20   13   29 1
  21   13   37 1
  22   14   15 1
  23   14   18 2
  24   15   16 1
  25   16   17 2
  26   17   18 ar
  27   17   19 ar
  28   18   22 ar
  29   19   20 ar
  30   19   38 1
  31   20   21 ar
  32   21   22 ar
  33   21   39 1
  34   22   40 1
  35   23   24 1
  36   23   27 2
  37   24   25 1
  38   25   26 2
  39   26   27 ar
  40   26   28 ar
  41   27   31 ar
  42   28   29 ar
  43   28   41 1
  44   29   30 ar
  45   30   31 ar
  46   30   42 1
  47   31   43 1

#	End of record

