#	Name: ASD01411035
#	Creating user name:	WinNT
#	Creation time:	15. 06. 2019 19:19

#	Modifying user name:	WinNT
#	Modification time:	15. 06. 2019 19:19

#	Program:	/corina/corina34_cracker 3.40 0067  02.08.2006

@<TRIPOS>MOLECULE
ASD01411035
  39   40    0    0    0
SMALL
NO_CHARGES


@<TRIPOS>ATOM
   1 C1            -0.0133     1.7489     0.2914 C.2     
   2 S2            -0.0036     0.0059    -0.0292 S.3     
   3 C3            -1.7605    -0.1792     0.1410 C.2     
   4 C4            -2.2344     1.1771     0.4446 C.2     
   5 N5            -1.2865     2.0974     0.5091 N.am    
   6 O6            -3.4097     1.4342     0.6278 O.2     
   7 S7             1.3476     2.7871     0.3235 S.2     
   8 C8            -2.4963    -1.3126     0.0184 C.2     
   9 C9            -1.8257    -2.6138    -0.1058 C.ar    
  10 C10           -1.6298     3.4905     0.8050 C.3     
  11 C11           -1.5921     3.7148     2.3180 C.3     
  12 C12           -0.4910    -2.7579     0.2896 C.ar    
  13 C13            0.1312    -3.9819     0.1705 C.ar    
  14 C14           -0.5607    -5.0689    -0.3392 C.ar    
  15 C15           -1.8819    -4.9354    -0.7335 C.ar    
  16 C16           -2.5208    -3.7184    -0.6153 C.ar    
  17 Cl17          -4.1766    -3.5526    -1.1100 Cl      
  18 Cl18           0.2327    -6.6061    -0.4849 Cl      
  19 C19           -1.9506     5.1697     2.6270 C.3     
  20 C20           -1.9130     5.3940     4.1400 C.3     
  21 C21           -2.2714     6.8490     4.4489 C.3     
  22 C22           -2.2344     7.0699     5.9392 C.2     
  23 O23           -1.9503     6.1572     6.6783 O.2     
  24 O24           -2.5168     8.2805     6.4455 O.3     
  25 H25           -3.5749    -1.2581     0.0122 H       
  26 H26           -0.9111     4.1523     0.3216 H       
  27 H27           -2.6307     3.7055     0.4306 H       
  28 H28           -2.3108     3.0530     2.8014 H       
  29 H29           -0.5913     3.4998     2.6923 H       
  30 H30            0.0502    -1.9120     0.6868 H       
  31 H31            1.1613    -4.0941     0.4751 H       
  32 H32           -2.4144    -5.7870    -1.1305 H       
  33 H33           -1.2320     5.8315     2.1436 H       
  34 H34           -2.9515     5.3847     2.2526 H       
  35 H35           -2.6316     4.7322     4.6234 H       
  36 H36           -0.9121     5.1790     4.5143 H       
  37 H37           -1.5528     7.5108     3.9655 H       
  38 H38           -3.2723     7.0640     4.0746 H       
  39 H39           -2.4801     8.3737     7.4073 H       
@<TRIPOS>BOND
   1    1    2 1
   2    1    7 2
   3    1    5 am
   4    2    3 1
   5    3    4 1
   6    3    8 2
   7    4    5 am
   8    4    6 2
   9    5   10 1
  10    8    9 1
  11    8   25 1
  12    9   12 ar
  13    9   16 ar
  14   10   11 1
  15   10   26 1
  16   10   27 1
  17   11   19 1
  18   11   28 1
  19   11   29 1
  20   12   13 ar
  21   12   30 1
  22   13   14 ar
  23   13   31 1
  24   14   15 ar
  25   14   18 1
  26   15   16 ar
  27   15   32 1
  28   16   17 1
  29   19   20 1
  30   19   33 1
  31   19   34 1
  32   20   21 1
  33   20   35 1
  34   20   36 1
  35   21   22 1
  36   21   37 1
  37   21   38 1
  38   22   23 2
  39   22   24 1
  40   24   39 1

#	End of record

