#	Name: ASD01180071
#	Creating user name:	WinNT
#	Creation time:	15. 06. 2019 19:06

#	Modifying user name:	WinNT
#	Modification time:	15. 06. 2019 19:06

#	Program:	/corina/corina34_cracker 3.40 0067  02.08.2006

@<TRIPOS>MOLECULE
ASD01180071
  54   57    0    0    0
SMALL
NO_CHARGES


@<TRIPOS>ATOM
   1 C1            -0.0180     1.4730     0.0101 C.2     
   2 C2             0.0021    -0.0041     0.0020 C.ar    
   3 C3             1.2188    -0.6888    -0.0133 C.ar    
   4 C4             1.2303    -2.0682    -0.0203 C.ar    
   5 C5             0.0396    -2.7731    -0.0127 C.ar    
   6 C6            -1.1697    -2.1009     0.0020 C.ar    
   7 C7            -1.1956    -0.7217     0.0154 C.ar    
   8 O8             1.0256     2.0946     0.0035 O.2     
   9 O9            -1.1936     2.1307     0.0193 O.3     
  10 C10            0.0601    -4.2800    -0.0210 C.3     
  11 N11           -0.9827    -4.7874     0.8742 N.pl3   
  12 N12            0.2065    -6.7731     1.1664 N.ar    
  13 C13           -0.8568    -6.0467     1.4422 C.ar    
  14 C14           -1.8645    -6.5162     2.2972 C.ar    
  15 C15           -1.7545    -7.7507     2.8623 C.ar    
  16 C16           -0.6138    -8.5237     2.5626 C.ar    
  17 C17           -0.4376    -9.8034     3.1100 C.ar    
  18 C18            0.6786   -10.5230     2.7973 C.ar    
  19 C19            1.6469   -10.0018     1.9398 C.ar    
  20 C20            1.5057    -8.7632     1.3927 C.ar    
  21 C21            0.3690    -7.9933     1.6917 C.ar    
  22 C22           -3.0668    -5.6562     2.5905 C.3     
  23 F23            0.8479   -11.7550     3.3250 F       
  24 C24           -0.1970    -4.7857    -1.4419 C.3     
  25 C25           -0.1966    -6.3190    -1.5595 C.3     
  26 C26           -1.3833    -6.1667    -2.5256 C.3     
  27 C27           -1.6874    -4.8359    -1.8177 C.3     
  28 C28           -0.9656    -6.0014    -3.9882 C.3     
  29 C29           -2.4704    -7.2259    -2.3328 C.3     
  30 H30            2.1488    -0.1398    -0.0199 H       
  31 H31            2.1707    -2.5992    -0.0321 H       
  32 H32           -2.0953    -2.6572     0.0071 H       
  33 H33           -2.1401    -0.1983     0.0318 H       
  34 H34           -1.1561     3.0969     0.0244 H       
  35 H35            1.0339    -4.6320     0.3193 H       
  36 H36           -1.7613    -4.2429     1.0696 H       
  37 H37           -2.5210    -8.1276     3.5232 H       
  38 H38           -1.1812   -10.2165     3.7755 H       
  39 H39            2.5224   -10.5896     1.7064 H       
  40 H40            2.2651    -8.3735     0.7310 H       
  41 H41           -3.8471    -5.8603     1.8572 H       
  42 H42           -3.4395    -5.8813     3.5898 H       
  43 H43           -2.7835    -4.6051     2.5366 H       
  44 H44            0.4260    -4.2905    -2.1867 H       
  45 H45            0.7009    -6.7206    -2.0302 H       
  46 H46           -0.4525    -6.8283    -0.6304 H       
  47 H47           -2.3509    -4.9397    -0.9591 H       
  48 H48           -1.9935    -4.0401    -2.4967 H       
  49 H49           -0.3983    -6.8766    -4.3052 H       
  50 H50           -1.8546    -5.8996    -4.6107 H       
  51 H51           -0.3463    -5.1103    -4.0907 H       
  52 H52           -2.8658    -7.1604    -1.3192 H       
  53 H53           -3.2749    -7.0553    -3.0483 H       
  54 H54           -2.0451    -8.2166    -2.4937 H       
@<TRIPOS>BOND
   1    1    2 1
   2    1    8 2
   3    1    9 1
   4    2    3 ar
   5    2    7 ar
   6    3    4 ar
   7    3   30 1
   8    4    5 ar
   9    4   31 1
  10    5    6 ar
  11    5   10 1
  12    6    7 ar
  13    6   32 1
  14    7   33 1
  15    9   34 1
  16   10   11 1
  17   10   24 1
  18   10   35 1
  19   11   13 1
  20   11   36 1
  21   12   13 ar
  22   12   21 ar
  23   13   14 ar
  24   14   15 ar
  25   14   22 1
  26   15   16 ar
  27   15   37 1
  28   16   17 ar
  29   16   21 ar
  30   17   18 ar
  31   17   38 1
  32   18   19 ar
  33   18   23 1
  34   19   20 ar
  35   19   39 1
  36   20   21 ar
  37   20   40 1
  38   22   41 1
  39   22   42 1
  40   22   43 1
  41   24   25 1
  42   24   27 1
  43   24   44 1
  44   25   26 1
  45   25   45 1
  46   25   46 1
  47   26   27 1
  48   26   28 1
  49   26   29 1
  50   27   47 1
  51   27   48 1
  52   28   49 1
  53   28   50 1
  54   28   51 1
  55   29   52 1
  56   29   53 1
  57   29   54 1

#	End of record

