#	Name: ASD01882781
#	Creating user name:	WinNT
#	Creation time:	15. 06. 2019 19:45

#	Modifying user name:	WinNT
#	Modification time:	15. 06. 2019 19:45

#	Program:	/corina/corina34_cracker 3.40 0067  02.08.2006

@<TRIPOS>MOLECULE
ASD01882781
  25   26    0    0    0
SMALL
NO_CHARGES


@<TRIPOS>ATOM
   1 O1            -0.0173     1.4248     0.0099 O.3     
   2 C2             0.0021    -0.0041     0.0020 C.3     
   3 C3             1.2831     0.8325    -0.0057 C.3     
   4 C4            -0.3680    -0.7292     1.2974 C.3     
   5 O5            -1.5561    -1.4961     1.0913 O.3     
   6 C6            -2.0241    -2.2066     2.1521 C.ar    
   7 C7            -3.1729    -2.9726     2.0212 C.ar    
   8 C8            -3.6483    -3.6943     3.0988 C.ar    
   9 C9            -2.9765    -3.6533     4.3116 C.ar    
  10 C10           -1.8272    -2.8880     4.4422 C.ar    
  11 C11           -1.3494    -2.1697     3.3634 C.ar    
  12 O12           -3.4451    -4.3631     5.3726 O.3     
  13 C13           -2.7033    -4.2745     6.5908 C.3     
  14 F14           -2.6642    -2.9426     7.0172 F       
  15 F15           -3.3201    -5.0599     7.5705 F       
  16 F16           -1.3993    -4.7342     6.3773 F       
  17 H17           -0.2792    -0.5108    -0.9211 H       
  18 H18            1.8523     0.8812    -0.9340 H       
  19 H19            1.8699     0.8713     0.9120 H       
  20 H20            0.4467    -1.3924     1.5881 H       
  21 H21           -0.5402     0.0024     2.0869 H       
  22 H22           -3.6959    -3.0046     1.0768 H       
  23 H23           -4.5432    -4.2903     2.9970 H       
  24 H24           -1.3044    -2.8558     5.3867 H       
  25 H25           -0.4524    -1.5767     3.4641 H       
@<TRIPOS>BOND
   1    1    2 1
   2    1    3 1
   3    2    3 1
   4    2    4 1
   5    2   17 1
   6    3   18 1
   7    3   19 1
   8    4    5 1
   9    4   20 1
  10    4   21 1
  11    5    6 1
  12    6    7 ar
  13    6   11 ar
  14    7    8 ar
  15    7   22 1
  16    8    9 ar
  17    8   23 1
  18    9   10 ar
  19    9   12 1
  20   10   11 ar
  21   10   24 1
  22   11   25 1
  23   12   13 1
  24   13   14 1
  25   13   15 1
  26   13   16 1

#	End of record

