#	Name: ASD00111109
#	Creating user name:	WinNT
#	Creation time:	15. 06. 2019 18:30

#	Modifying user name:	WinNT
#	Modification time:	15. 06. 2019 18:30

#	Program:	/corina/corina34_cracker 3.40 0067  02.08.2006

@<TRIPOS>MOLECULE
ASD00111109
  39   40    0    0    0
SMALL
NO_CHARGES


@<TRIPOS>ATOM
   1 N1            -0.0128     1.2279    -0.2796 N.am    
   2 C2             0.3154    -0.2055    -0.3481 C.3     
   3 C3             0.9297    -0.6011     0.9930 C.3     
   4 C4             2.4119    -0.3330     1.0481 C.ar    
   5 C5             3.0475     0.6784     0.3632 C.ar    
   6 C6             2.3352     1.5762    -0.6099 C.3     
   7 C7             1.0664     2.1738     0.0034 C.3     
   8 C8             4.4100     0.8833     0.5378 C.ar    
   9 C9             5.1499     0.0521     1.3606 C.ar    
  10 C10            4.5183    -0.9936     2.0180 C.ar    
  11 C11            3.1628    -1.1780     1.8625 C.ar    
  12 O12            6.4834     0.2582     1.5227 O.3     
  13 C13            7.1784    -0.6419     2.3880 C.3     
  14 C14            0.7599     3.5278    -0.6398 C.3     
  15 C15            0.2413     0.1913     2.1061 C.3     
  16 C16           -1.2745     1.6582    -0.4782 C.2     
  17 O17           -1.5463     2.8304    -0.3267 O.2     
  18 C18           -2.3475     0.6827    -0.8883 C.3     
  19 F19           -3.5631     1.3600    -1.0323 F       
  20 F20           -1.9974     0.0890    -2.1058 F       
  21 F21           -2.4781    -0.3064     0.0923 F       
  22 H22           -0.5908    -0.7847    -0.5253 H       
  23 H23            1.0319    -0.3832    -1.1502 H       
  24 H24            0.7569    -1.6642     1.1605 H       
  25 H25            3.0041     2.3851    -0.9035 H       
  26 H26            2.0656     0.9996    -1.4948 H       
  27 H27            1.1899     2.2892     1.0802 H       
  28 H28            4.8974     1.6997     0.0257 H       
  29 H29            5.0875    -1.6603     2.6487 H       
  30 H30            2.6739    -1.9900     2.3802 H       
  31 H31            7.0833    -1.6587     2.0068 H       
  32 H32            8.2321    -0.3661     2.4286 H       
  33 H33            6.7498    -0.5876     3.3888 H       
  34 H34           -0.0540     4.0109    -0.0992 H       
  35 H35            1.6479     4.1587    -0.5991 H       
  36 H36            0.4676     3.3785    -1.6792 H       
  37 H37           -0.8384     0.0630     2.0291 H       
  38 H38            0.5822    -0.1725     3.0754 H       
  39 H39            0.4896     1.2480     2.0069 H       
@<TRIPOS>BOND
   1    1    2 1
   2    1    7 1
   3    1   16 am
   4    2    3 1
   5    2   22 1
   6    2   23 1
   7    3    4 1
   8    3   15 1
   9    3   24 1
  10    4    5 ar
  11    4   11 ar
  12    5    6 1
  13    5    8 ar
  14    6    7 1
  15    6   25 1
  16    6   26 1
  17    7   14 1
  18    7   27 1
  19    8    9 ar
  20    8   28 1
  21    9   10 ar
  22    9   12 1
  23   10   11 ar
  24   10   29 1
  25   11   30 1
  26   12   13 1
  27   13   31 1
  28   13   32 1
  29   13   33 1
  30   14   34 1
  31   14   35 1
  32   14   36 1
  33   15   37 1
  34   15   38 1
  35   15   39 1
  36   16   17 2
  37   16   18 1
  38   18   19 1
  39   18   20 1
  40   18   21 1

#	End of record

