#	Name: ASD01813112
#	Creating user name:	WinNT
#	Creation time:	15. 06. 2019 19:29

#	Modifying user name:	WinNT
#	Modification time:	15. 06. 2019 19:29

#	Program:	/corina/corina34_cracker 3.40 0067  02.08.2006

@<TRIPOS>MOLECULE
ASD01813112
  50   53    0    0    0
SMALL
NO_CHARGES


@<TRIPOS>ATOM
   1 C1            -0.0164     1.3605     0.0095 C.2     
   2 C2             0.0021    -0.0041     0.0020 C.2     
   3 C3             1.2394    -0.6741    -0.0134 C.2     
   4 C4             2.4332     0.0760    -0.0208 C.2     
   5 N5             2.3893     1.4236    -0.0127 N.am    
   6 C6             3.5554     2.1300    -0.0196 C.2     
   7 C7             3.5461     3.4822    -0.0118 C.2     
   8 C8             2.3304     4.1791     0.0035 C.2     
   9 C9             1.1572     3.4829     0.0105 C.2     
  10 C10            1.1877     2.0784     0.0019 C.2     
  11 C11            1.2868    -2.1379    -0.0213 C.2     
  12 O12            0.2536    -2.7799    -0.0145 O.2     
  13 O13            2.4762    -2.7742    -0.0361 O.3     
  14 O14            3.5099    -0.4964    -0.0342 O.2     
  15 C15           -1.3318     2.0959     0.0198 C.3     
  16 N16           -1.8246     2.2370    -1.3569 N.3     
  17 C17           -3.2065     2.7334    -1.3728 C.3     
  18 C18           -3.7348     2.7296    -2.8091 C.3     
  19 C19           -2.8427     3.6204    -3.6782 C.3     
  20 C20           -1.4006     3.1107    -3.6057 C.3     
  21 C21           -0.9400     3.1034    -2.1463 C.3     
  22 C22           -3.3223     3.5734    -5.1061 C.ar    
  23 C23           -3.1457     4.6685    -5.9309 C.ar    
  24 C24           -3.5856     4.6253    -7.2407 C.ar    
  25 C25           -4.2018     3.4869    -7.7257 C.ar    
  26 C26           -4.3776     2.3915    -6.9011 C.ar    
  27 C27           -3.9337     2.4330    -5.5926 C.ar    
  28 O28           -2.8985     4.9653    -3.1985 O.3     
  29 H29           -0.9220    -0.5631     0.0082 H       
  30 H30            4.4981     1.6032    -0.0310 H       
  31 H31            4.4787     4.0268    -0.0171 H       
  32 H32            2.3223     5.2591     0.0100 H       
  33 H33            0.2130     4.0070     0.0227 H       
  34 H34            2.4568    -3.7410    -0.0408 H       
  35 H35           -2.0569     1.5352     0.6096 H       
  36 H36           -1.1923     3.0838     0.4588 H       
  37 H37           -3.8312     2.0887    -0.7545 H       
  38 H38           -3.2320     3.7495    -0.9792 H       
  39 H39           -3.7225     1.7117    -3.1987 H       
  40 H40           -4.7551     3.1128    -2.8226 H       
  41 H41           -1.3516     2.0988    -4.0079 H       
  42 H42           -0.7533     3.7662    -4.1883 H       
  43 H43           -0.9761     4.1178    -1.7490 H       
  44 H44            0.0815     2.7275    -2.0898 H       
  45 H45           -2.6643     5.5579    -5.5520 H       
  46 H46           -3.4483     5.4812    -7.8849 H       
  47 H47           -4.5462     3.4535    -8.7488 H       
  48 H48           -4.8593     1.5022    -7.2799 H       
  49 H49           -4.0678     1.5759    -4.9494 H       
  50 H50           -2.3556     5.5859    -3.7035 H       
@<TRIPOS>BOND
   1    1    2 1
   2    1   10 2
   3    1   15 1
   4    2    3 2
   5    2   29 1
   6    3    4 1
   7    3   11 1
   8    4    5 am
   9    4   14 2
  10    5    6 1
  11    5   10 1
  12    6    7 2
  13    6   30 1
  14    7    8 1
  15    7   31 1
  16    8    9 2
  17    8   32 1
  18    9   10 1
  19    9   33 1
  20   11   12 2
  21   11   13 1
  22   13   34 1
  23   15   16 1
  24   15   35 1
  25   15   36 1
  26   16   17 1
  27   16   21 1
  28   17   18 1
  29   17   37 1
  30   17   38 1
  31   18   19 1
  32   18   39 1
  33   18   40 1
  34   19   20 1
  35   19   22 1
  36   19   28 1
  37   20   21 1
  38   20   41 1
  39   20   42 1
  40   21   43 1
  41   21   44 1
  42   22   23 ar
  43   22   27 ar
  44   23   24 ar
  45   23   45 1
  46   24   25 ar
  47   24   46 1
  48   25   26 ar
  49   25   47 1
  50   26   27 ar
  51   26   48 1
  52   27   49 1
  53   28   50 1

#	End of record

