#	Name: ASD08710131
#	Creating user name:	WinNT
#	Creation time:	15. 06. 2019 21:19

#	Modifying user name:	WinNT
#	Modification time:	15. 06. 2019 21:19

#	Program:	/corina/corina34_cracker 3.40 0067  02.08.2006

@<TRIPOS>MOLECULE
ASD08710131
  50   51    0    0    0
SMALL
NO_CHARGES


@<TRIPOS>ATOM
   1 N1            -0.3424     1.0511    -0.5180 N.am    
   2 C2            -0.0514    -0.3614    -0.8009 C.3     
   3 C3             1.1413    -0.4331    -1.7625 C.3     
   4 N4             2.2173     0.4210    -1.2404 N.am    
   5 C5             1.9264     1.8335    -0.9575 C.3     
   6 C6             0.7337     1.9051     0.0041 C.3     
   7 C7            -1.5725     1.5555    -0.7387 C.2     
   8 O8            -2.4529     0.8409    -1.1754 O.2     
   9 O9            -1.8259     2.8514    -0.4753 O.3     
  10 C10            1.6348    -1.8779    -1.8617 C.3     
  11 S11            3.7305    -0.1974    -0.9751 S.o2    
  12 O12            3.9232    -1.2170    -1.9459 O.2     
  13 O13            4.6007     0.9173    -0.8355 O.2     
  14 C14            3.6976    -1.0022     0.5920 C.ar    
  15 C15            3.6097    -0.2541     1.7514 C.ar    
  16 C16            3.5840    -0.8850     2.9807 C.ar    
  17 C17            3.6457    -2.2653     3.0511 C.ar    
  18 C18            3.7331    -3.0132     1.8910 C.ar    
  19 C19            3.7540    -2.3815     0.6616 C.ar    
  20 C20            3.5426     1.2494     1.6746 C.3     
  21 Br21           3.6111    -3.1290     4.7330 Br      
  22 C22           -3.1729     3.3261    -0.7371 C.3     
  23 C23           -4.1676     2.5319     0.1119 C.3     
  24 C24           -3.2689     4.8107    -0.3798 C.3     
  25 C25           -3.5017     3.1359    -2.2192 C.3     
  26 H26            0.1954    -0.8771     0.1271 H       
  27 H27           -0.9215    -0.8290    -1.2618 H       
  28 H28            0.8385    -0.0788    -2.7478 H       
  29 H29            2.7965     2.3010    -0.4966 H       
  30 H30            1.6795     2.3491    -1.8856 H       
  31 H31            0.3821     2.9344     0.0747 H       
  32 H32            1.0364     1.5508     0.9894 H       
  33 H33            0.7847    -2.5424    -2.0163 H       
  34 H34            2.3247    -1.9694    -2.7006 H       
  35 H35            2.1466    -2.1512    -0.9389 H       
  36 H36            3.5160    -0.3005     3.8864 H       
  37 H37            3.7813    -4.0907     1.9455 H       
  38 H38            3.8185    -2.9657    -0.2445 H       
  39 H39            2.5014     1.5692     1.7167 H       
  40 H40            4.0893     1.6808     2.5131 H       
  41 H41            3.9884     1.5857     0.7385 H       
  42 H42           -3.9334     2.6673     1.1678 H       
  43 H43           -5.1788     2.8882    -0.0846 H       
  44 H44           -4.0992     1.4742    -0.1426 H       
  45 H45           -2.5603     5.3765    -0.9847 H       
  46 H46           -4.2801     5.1670    -0.5763 H       
  47 H47           -3.0347     4.9462     0.6761 H       
  48 H48           -3.4333     2.0783    -2.4738 H       
  49 H49           -4.5128     3.4923    -2.4157 H       
  50 H50           -2.7931     3.7017    -2.8241 H       
@<TRIPOS>BOND
   1    1    2 1
   2    1    6 1
   3    1    7 am
   4    2    3 1
   5    2   26 1
   6    2   27 1
   7    3    4 1
   8    3   10 1
   9    3   28 1
  10    4    5 1
  11    4   11 am
  12    5    6 1
  13    5   29 1
  14    5   30 1
  15    6   31 1
  16    6   32 1
  17    7    8 2
  18    7    9 1
  19    9   22 1
  20   10   33 1
  21   10   34 1
  22   10   35 1
  23   11   12 2
  24   11   13 2
  25   11   14 1
  26   14   15 ar
  27   14   19 ar
  28   15   16 ar
  29   15   20 1
  30   16   17 ar
  31   16   36 1
  32   17   18 ar
  33   17   21 1
  34   18   19 ar
  35   18   37 1
  36   19   38 1
  37   20   39 1
  38   20   40 1
  39   20   41 1
  40   22   23 1
  41   22   24 1
  42   22   25 1
  43   23   42 1
  44   23   43 1
  45   23   44 1
  46   24   45 1
  47   24   46 1
  48   24   47 1
  49   25   48 1
  50   25   49 1
  51   25   50 1

#	End of record

