#	Name: ASD03731801
#	Creating user name:	WinNT
#	Creation time:	15. 06. 2019 20:46

#	Modifying user name:	WinNT
#	Modification time:	15. 06. 2019 20:46

#	Program:	/corina/corina34_cracker 3.40 0067  02.08.2006

@<TRIPOS>MOLECULE
ASD03731801
  34   35    0    0    0
SMALL
NO_CHARGES


@<TRIPOS>ATOM
   1 C1             0.3782     1.0926     1.9828 C.2     
   2 C2             0.2937    -0.2832     1.4550 C.ar    
   3 C3             1.3758    -0.8364     0.7647 C.ar    
   4 C4             1.2930    -2.1211     0.2741 C.ar    
   5 C5             0.1341    -2.8670     0.4653 C.ar    
   6 C6            -0.9435    -2.3195     1.1509 C.ar    
   7 C7            -0.8659    -1.0377     1.6493 C.ar    
   8 O8             1.3900     1.7462     1.8173 O.2     
   9 N9            -0.6683     1.6264     2.6434 N.am    
  10 S10           -0.5735     3.1700     3.2355 S.o2    
  11 O11           -1.8241     3.3763     3.8780 O.2     
  12 O12            0.6409     3.1885     3.9731 O.2     
  13 C13           -0.4370     4.2139     1.7583 C.3     
  14 O14            0.0558    -4.1323    -0.0192 O.3     
  15 C15           -1.1301    -4.7863     0.0932 C.ar    
  16 C16           -2.0817    -4.6707    -0.9065 C.ar    
  17 C17           -3.2978    -5.3443    -0.7871 C.ar    
  18 C18           -3.5469    -6.1306     0.3400 C.ar    
  19 C19           -2.5917    -6.2385     1.3297 C.ar    
  20 C20           -1.3849    -5.5745     1.2074 C.ar    
  21 C21           -4.2870    -5.2296    -1.8162 C.1     
  22 N22           -5.0717    -5.1386    -2.6325 N.1     
  23 Cl23           2.6358    -2.8098    -0.5841 Cl      
  24 H24            2.2753    -0.2575     0.6159 H       
  25 H25           -1.8416    -2.9013     1.2967 H       
  26 H26           -1.7023    -0.6150     2.1861 H       
  27 H27           -1.4770     1.1065     2.7720 H       
  28 H28           -1.3168     4.0722     1.1307 H       
  29 H29           -0.3688     5.2599     2.0576 H       
  30 H30            0.4567     3.9371     1.1991 H       
  31 H31           -1.8833    -4.0609    -1.7755 H       
  32 H32           -4.4868    -6.6536     0.4370 H       
  33 H33           -2.7856    -6.8468     2.2008 H       
  34 H34           -0.6393    -5.6664     1.9833 H       
@<TRIPOS>BOND
   1    1    2 1
   2    1    8 2
   3    1    9 am
   4    2    3 ar
   5    2    7 ar
   6    3    4 ar
   7    3   24 1
   8    4    5 ar
   9    4   23 1
  10    5    6 ar
  11    5   14 1
  12    6    7 ar
  13    6   25 1
  14    7   26 1
  15    9   10 am
  16    9   27 1
  17   10   11 2
  18   10   12 2
  19   10   13 1
  20   13   28 1
  21   13   29 1
  22   13   30 1
  23   14   15 1
  24   15   16 ar
  25   15   20 ar
  26   16   17 ar
  27   16   31 1
  28   17   18 ar
  29   17   21 1
  30   18   19 ar
  31   18   32 1
  32   19   20 ar
  33   19   33 1
  34   20   34 1
  35   21   22 3

#	End of record

