#	Name: ASD01411037
#	Creating user name:	WinNT
#	Creation time:	15. 06. 2019 19:19

#	Modifying user name:	WinNT
#	Modification time:	15. 06. 2019 19:19

#	Program:	/corina/corina34_cracker 3.40 0067  02.08.2006

@<TRIPOS>MOLECULE
ASD01411037
  36   38    0    0    0
SMALL
NO_CHARGES


@<TRIPOS>ATOM
   1 C1            -0.0113     1.7483     0.2807 C.2     
   2 S2             0.0020    -0.0039     0.0150 S.3     
   3 C3            -1.7604    -0.1781     0.1321 C.2     
   4 C4            -2.2384     1.1880     0.3774 C.2     
   5 N5            -1.2897     2.1072     0.4441 N.am    
   6 O6            -3.4182     1.4540     0.5136 O.2     
   7 S7             1.3520     2.7828     0.3269 S.2     
   8 C8            -2.4976    -1.3145     0.0201 C.2     
   9 C9            -1.8290    -2.6122    -0.1042 C.ar    
  10 C10           -1.6372     3.5099     0.6849 C.3     
  11 C11           -0.5007    -2.7685     0.2849 C.ar    
  12 C12            0.1283    -3.9990     0.1654 C.ar    
  13 C13           -0.5164    -5.0911    -0.3308 C.ar    
  14 C14           -1.8574    -5.0076    -0.7433 C.ar    
  15 C15           -2.5440    -3.7741    -0.6345 C.ar    
  16 C16           -2.5349    -6.1270    -1.2567 C.ar    
  17 C17           -3.8344    -6.0073    -1.6458 C.ar    
  18 C18           -4.5044    -4.7908    -1.5433 C.ar    
  19 C19           -3.8789    -3.6868    -1.0435 C.ar    
  20 C20           -0.9644     3.9881     1.9731 C.3     
  21 C21           -1.1622     4.3508    -0.4720 C.2     
  22 O22           -0.5919     3.8317    -1.4021 O.2     
  23 O23           -1.3727     5.6765    -0.4690 O.3     
  24 H24           -3.5763    -1.2609     0.0227 H       
  25 H25           -2.7187     3.6046     0.7830 H       
  26 H26            0.0438    -1.9249     0.6826 H       
  27 H27            1.1589    -4.0936     0.4743 H       
  28 H28            0.0087    -6.0316    -0.4087 H       
  29 H29           -2.0276    -7.0765    -1.3426 H       
  30 H30           -4.3531    -6.8686    -2.0401 H       
  31 H31           -5.5349    -4.7220    -1.8591 H       
  32 H32           -4.4094    -2.7490    -0.9692 H       
  33 H33            0.1170     3.8934     1.8750 H       
  34 H34           -1.2230     5.0317     2.1523 H       
  35 H35           -1.3080     3.3799     2.8099 H       
  36 H36           -1.0499     6.1739    -1.2329 H       
@<TRIPOS>BOND
   1    1    2 1
   2    1    7 2
   3    1    5 am
   4    2    3 1
   5    3    4 1
   6    3    8 2
   7    4    5 am
   8    4    6 2
   9    5   10 1
  10    8    9 1
  11    8   24 1
  12    9   11 ar
  13    9   15 ar
  14   10   20 1
  15   10   21 1
  16   10   25 1
  17   11   12 ar
  18   11   26 1
  19   12   13 ar
  20   12   27 1
  21   13   14 ar
  22   13   28 1
  23   14   15 ar
  24   14   16 ar
  25   15   19 ar
  26   16   17 ar
  27   16   29 1
  28   17   18 ar
  29   17   30 1
  30   18   19 ar
  31   18   31 1
  32   19   32 1
  33   20   33 1
  34   20   34 1
  35   20   35 1
  36   21   22 2
  37   21   23 1
  38   23   36 1

#	End of record

