#	Name: ASD01911659
#	Creating user name:	WinNT
#	Creation time:	15. 06. 2019 19:58

#	Modifying user name:	WinNT
#	Modification time:	15. 06. 2019 19:58

#	Program:	/corina/corina34_cracker 3.40 0067  02.08.2006

@<TRIPOS>MOLECULE
ASD01911659
  44   46    0    0    0
SMALL
NO_CHARGES


@<TRIPOS>ATOM
   1 N1            -0.0105     1.2583    -0.4699 N.am    
   2 C2             0.0021    -0.0041     0.0020 C.2     
   3 C3            -1.2508    -0.7543     0.1205 C.2     
   4 C4            -1.3862    -2.1135     0.0310 C.2     
   5 S5            -2.8471    -0.0659     0.4110 S.3     
   6 C6            -3.5481    -1.6813     0.3771 C.2     
   7 N7            -2.6014    -2.5626     0.1691 N.2     
   8 C8            -4.9363    -1.9846     0.5542 C.1     
   9 C9            -6.0745    -2.2333     0.6993 C.1     
  10 C10           -7.4627    -2.5366     0.8764 C.ar    
  11 C11           -7.9039    -3.8625     0.8289 C.ar    
  12 C12           -9.2423    -4.1466     1.0008 C.ar    
  13 C13          -10.1481    -3.1233     1.2194 C.ar    
  14 C14           -9.7191    -1.8084     1.2677 C.ar    
  15 C15           -8.3831    -1.5088     1.1034 C.ar    
  16 O16            1.0542    -0.5208     0.3298 O.2     
  17 C17            1.2128     2.0720    -0.4637 C.3     
  18 C18            1.4586     2.6036    -1.8792 C.3     
  19 C19            0.2119     3.3468    -2.3644 C.3     
  20 C20           -0.9743     2.3808    -2.4104 C.3     
  21 C21           -1.2464     1.8448    -1.0060 C.3     
  22 O22            2.5724     3.4988    -1.8659 O.3     
  23 C23            3.8316     2.8633    -2.0958 C.3     
  24 C24            4.9458     3.9113    -2.0597 C.3     
  25 H25           -0.5446    -2.7679    -0.1422 H       
  26 H26           -7.1983    -4.6621     0.6577 H       
  27 H27           -9.5846    -5.1703     0.9644 H       
  28 H28          -11.1951    -3.3520     1.3526 H       
  29 H29          -10.4319    -1.0152     1.4383 H       
  30 H30           -8.0499    -0.4822     1.1413 H       
  31 H31            1.0919     2.9084     0.2248 H       
  32 H32            2.0581     1.4586    -0.1518 H       
  33 H33            1.6692     1.7701    -2.5494 H       
  34 H34           -0.0125     4.1650    -1.6801 H       
  35 H35            0.3930     3.7472    -3.3619 H       
  36 H36           -1.8563     2.9050    -2.7782 H       
  37 H37           -0.7408     1.5494    -3.0755 H       
  38 H38           -2.0246     1.0829    -1.0501 H       
  39 H39           -1.5676     2.6612    -0.3592 H       
  40 H40            4.0090     2.1175    -1.3209 H       
  41 H41            3.8208     2.3779    -3.0717 H       
  42 H42            4.7683     4.6571    -2.8345 H       
  43 H43            4.9566     4.3967    -1.0838 H       
  44 H44            5.9062     3.4266    -2.2351 H       
@<TRIPOS>BOND
   1    1    2 am
   2    1   17 1
   3    1   21 1
   4    2    3 1
   5    2   16 2
   6    3    4 2
   7    3    5 1
   8    4    7 1
   9    4   25 1
  10    5    6 1
  11    6    7 2
  12    6    8 1
  13    8    9 3
  14    9   10 1
  15   10   11 ar
  16   10   15 ar
  17   11   12 ar
  18   11   26 1
  19   12   13 ar
  20   12   27 1
  21   13   14 ar
  22   13   28 1
  23   14   15 ar
  24   14   29 1
  25   15   30 1
  26   17   18 1
  27   17   31 1
  28   17   32 1
  29   18   19 1
  30   18   22 1
  31   18   33 1
  32   19   20 1
  33   19   34 1
  34   19   35 1
  35   20   21 1
  36   20   36 1
  37   20   37 1
  38   21   38 1
  39   21   39 1
  40   22   23 1
  41   23   24 1
  42   23   40 1
  43   23   41 1
  44   24   42 1
  45   24   43 1
  46   24   44 1

#	End of record

