#	Name: ASD07300895
#	Creating user name:	WinNT
#	Creation time:	15. 06. 2019 21:10

#	Modifying user name:	WinNT
#	Modification time:	15. 06. 2019 21:10

#	Program:	/corina/corina34_cracker 3.40 0067  02.08.2006

@<TRIPOS>MOLECULE
ASD07300895
  49   53    0    0    0
SMALL
NO_CHARGES


@<TRIPOS>ATOM
   1 N1             0.1669     1.5221     0.5863 N.am    
   2 C2             0.1711     0.1653     0.6019 C.2     
   3 N3             1.2361    -0.5437     0.3669 N.2     
   4 C4             2.4195     0.0256     0.0888 C.2     
   5 C5             2.5131     1.4257     0.0498 C.2     
   6 C6             1.3043     2.2050     0.3173 C.2     
   7 N7             3.6595    -0.4539    -0.1891 N.pl3   
   8 N8             4.5155     0.6347    -0.3988 N.2     
   9 C9             3.8479     1.7468    -0.2598 C.2     
  10 O10            1.3205     3.4230     0.2980 O.2     
  11 C11            4.0372    -1.8677    -0.2575 C.3     
  12 C12            4.6973    -2.1546    -1.6076 C.3     
  13 C13            5.0917    -3.6312    -1.6789 C.3     
  14 C14            6.0756    -3.9513    -0.5519 C.3     
  15 C15            5.4155    -3.6644     0.7983 C.3     
  16 C16            5.0211    -2.1878     0.8696 C.3     
  17 C17           -1.1180    -0.5537     0.9060 C.3     
  18 C18           -0.9151    -1.9689     1.4725 C.3     
  19 C19           -2.1020    -2.4044     0.5970 C.3     
  20 C20           -1.7553    -1.2223    -0.3235 C.3     
  21 F21            6.4363    -5.3015    -0.6171 F       
  22 F22            7.2183    -3.1562    -0.6906 F       
  23 C23           -0.7637    -1.5692    -1.4040 C.2     
  24 N24           -0.8519    -1.2188    -2.6554 N.2     
  25 C25            0.2121    -1.7083    -3.3162 C.2     
  26 C26            0.9690    -2.3778    -2.4312 C.2     
  27 O27            0.3567    -2.2838    -1.2345 O.3     
  28 C28            0.5026    -1.5373    -4.7850 C.3     
  29 H29           -0.6554     2.0046     0.7647 H       
  30 H30            4.2506     2.7434    -0.3645 H       
  31 H31            3.1469    -2.4872    -0.1494 H       
  32 H32            3.9963    -1.9266    -2.4105 H       
  33 H33            5.5876    -1.5351    -1.7157 H       
  34 H34            4.2014    -4.2507    -1.5709 H       
  35 H35            5.5620    -3.8356    -2.6408 H       
  36 H36            4.5252    -4.2839     0.9063 H       
  37 H37            6.1165    -3.8925     1.6012 H       
  38 H38            5.9114    -1.5683     0.7615 H       
  39 H39            4.5508    -1.9835     1.8314 H       
  40 H40           -1.8144     0.0527     1.4851 H       
  41 H41            0.0318    -2.4239     1.1820 H       
  42 H42           -1.1111    -2.0433     2.5421 H       
  43 H43           -1.9642    -3.3784     0.1276 H       
  44 H44           -3.0686    -2.3044     1.0908 H       
  45 H45           -2.6296    -0.6939    -0.7037 H       
  46 H46            1.8959    -2.8918    -2.6389 H       
  47 H47            1.1698    -0.6870    -4.9268 H       
  48 H48            0.9778    -2.4400    -5.1689 H       
  49 H49           -0.4296    -1.3610    -5.3216 H       
@<TRIPOS>BOND
   1    1    2 1
   2    1    6 am
   3    1   29 1
   4    2    3 2
   5    2   17 1
   6    3    4 1
   7    4    5 2
   8    4    7 1
   9    5    6 1
  10    5    9 1
  11    6   10 2
  12    7    8 1
  13    7   11 1
  14    8    9 2
  15    9   30 1
  16   11   12 1
  17   11   16 1
  18   11   31 1
  19   12   13 1
  20   12   32 1
  21   12   33 1
  22   13   14 1
  23   13   34 1
  24   13   35 1
  25   14   15 1
  26   14   21 1
  27   14   22 1
  28   15   16 1
  29   15   36 1
  30   15   37 1
  31   16   38 1
  32   16   39 1
  33   17   18 1
  34   17   20 1
  35   17   40 1
  36   18   19 1
  37   18   41 1
  38   18   42 1
  39   19   20 1
  40   19   43 1
  41   19   44 1
  42   20   23 1
  43   20   45 1
  44   23   24 2
  45   23   27 1
  46   24   25 1
  47   25   26 2
  48   25   28 1
  49   26   27 1
  50   26   46 1
  51   28   47 1
  52   28   48 1
  53   28   49 1

#	End of record

