#	Name: ASD01882497
#	Creating user name:	WinNT
#	Creation time:	15. 06. 2019 19:44

#	Modifying user name:	WinNT
#	Modification time:	15. 06. 2019 19:44

#	Program:	/corina/corina34_cracker 3.40 0067  02.08.2006

@<TRIPOS>MOLECULE
ASD01882497
  55   59    0    0    0
SMALL
NO_CHARGES


@<TRIPOS>ATOM
   1 C1             0.0665     1.4549    -0.0002 C.2     
   2 C2             0.0560     0.0458    -0.0105 C.2     
   3 C3             1.2392    -0.6272    -0.0180 C.2     
   4 C4             2.4485     0.0889    -0.0153 C.2     
   5 C5             2.4426     1.4383    -0.0049 C.2     
   6 N6             1.2644     2.1261     0.0022 N.pl3   
   7 N7            -0.3551     3.5438     0.0132 N.2     
   8 N8            -0.8870     2.3721     0.0033 N.2     
   9 C9             0.9497     3.4496     0.0121 C.2     
  10 C10            1.2523    -2.1341    -0.0286 C.3     
  11 N11            1.3741    -2.6130    -1.4120 N.3     
  12 C12            1.6280    -4.0600    -1.4479 C.3     
  13 C13            1.6690    -4.5321    -2.9032 C.3     
  14 N14            2.7183    -3.7981    -3.6242 N.3     
  15 C15            2.4644    -2.3511    -3.5882 C.3     
  16 C16            2.4234    -1.8790    -2.1329 C.3     
  17 C17            2.8345    -4.2549    -4.9437 C.ar    
  18 C18            3.2766    -5.5516    -5.1970 C.ar    
  19 C19            3.3894    -5.9990    -6.5026 C.ar    
  20 C20            3.0630    -5.1578    -7.5534 C.ar    
  21 C21            2.6238    -3.8697    -7.3015 C.ar    
  22 C22            2.5042    -3.4192    -5.9996 C.ar    
  23 O23            3.5972    -6.3763    -4.1641 O.3     
  24 C24            4.0432    -7.6920    -4.4987 C.3     
  25 F25            3.1739    -5.5954    -8.8267 F       
  26 C26            1.9259     4.5977     0.0192 C.3     
  27 C27            2.2544     4.9966    -1.4209 C.3     
  28 C28            3.1423     6.2252    -1.6286 C.3     
  29 C29            3.7009     4.8248    -1.8891 C.3     
  30 Cl30          -1.4478    -0.8215    -0.0131 Cl      
  31 H31            3.3880    -0.4439    -0.0212 H       
  32 H32            3.3780     1.9781    -0.0026 H       
  33 H33            2.0987    -2.4942     0.5564 H       
  34 H34            0.3252    -2.5086     0.4053 H       
  35 H35            2.5838    -4.2735    -0.9693 H       
  36 H36            0.8311    -4.5823    -0.9185 H       
  37 H37            1.8860    -5.5998    -2.9332 H       
  38 H38            0.7042    -4.3434    -3.3740 H       
  39 H39            3.2613    -1.8288    -4.1177 H       
  40 H40            1.5087    -2.1376    -4.0668 H       
  41 H41            2.2064    -0.8113    -2.1029 H       
  42 H42            3.3882    -2.0677    -1.6621 H       
  43 H43            3.7322    -7.0036    -6.7016 H       
  44 H44            2.3705    -3.2164    -8.1233 H       
  45 H45            2.1570    -2.4151    -5.8054 H       
  46 H46            3.2621    -8.2099    -5.0553 H       
  47 H47            4.9427    -7.6261    -5.1108 H       
  48 H48            4.2650    -8.2438    -3.5852 H       
  49 H49            1.4839     5.4473     0.5397 H       
  50 H50            2.8399     4.2942     0.5297 H       
  51 H51            1.4644     4.8175    -2.1502 H       
  52 H52            2.9367     6.8541    -2.4947 H       
  53 H53            3.4924     6.7492    -0.7393 H       
  54 H54            4.4184     4.4276    -1.1711 H       
  55 H55            3.8627     4.5324    -2.9266 H       
@<TRIPOS>BOND
   1    1    2 1
   2    1    6 1
   3    1    8 2
   4    2    3 2
   5    2   30 1
   6    3    4 1
   7    3   10 1
   8    4    5 2
   9    4   31 1
  10    5    6 1
  11    5   32 1
  12    6    9 1
  13    7    8 1
  14    7    9 2
  15    9   26 1
  16   10   11 1
  17   10   33 1
  18   10   34 1
  19   11   12 1
  20   11   16 1
  21   12   13 1
  22   12   35 1
  23   12   36 1
  24   13   14 1
  25   13   37 1
  26   13   38 1
  27   14   15 1
  28   14   17 1
  29   15   16 1
  30   15   39 1
  31   15   40 1
  32   16   41 1
  33   16   42 1
  34   17   18 ar
  35   17   22 ar
  36   18   19 ar
  37   18   23 1
  38   19   20 ar
  39   19   43 1
  40   20   21 ar
  41   20   25 1
  42   21   22 ar
  43   21   44 1
  44   22   45 1
  45   23   24 1
  46   24   46 1
  47   24   47 1
  48   24   48 1
  49   26   27 1
  50   26   49 1
  51   26   50 1
  52   27   28 1
  53   27   29 1
  54   27   51 1
  55   28   29 1
  56   28   52 1
  57   28   53 1
  58   29   54 1
  59   29   55 1

#	End of record

