#	Name: ASD01140580
#	Creating user name:	WinNT
#	Creation time:	15. 06. 2019 19:01

#	Modifying user name:	WinNT
#	Modification time:	15. 06. 2019 19:01

#	Program:	/corina/corina34_cracker 3.40 0067  02.08.2006

@<TRIPOS>MOLECULE
ASD01140580
  32   33    0    0    0
SMALL
NO_CHARGES


@<TRIPOS>ATOM
   1 C1             0.4222     1.3969    -0.9517 C.ar    
   2 C2             0.4417     0.0159    -0.9724 C.ar    
   3 C3             1.2142    -0.6804    -0.0585 C.ar    
   4 C4             1.9690     0.0058     0.8784 C.ar    
   5 C5             1.9525     1.3863     0.9027 C.ar    
   6 C6             1.1781     2.0868    -0.0133 C.ar    
   7 C7             2.8085    -0.7548     1.8722 C.3     
   8 N8             1.1603     3.4857     0.0092 N.am    
   9 C9            -0.0113     4.1462    -0.0782 C.2     
  10 C10           -0.0398     5.6101     0.0397 C.2     
  11 S11           -1.4664     3.2790    -0.3267 S.2     
  12 C12           -1.2247     6.2781    -0.0488 C.2     
  13 C13            1.1773     6.3355     0.2475 C.1     
  14 C14           -1.2539     7.7800     0.0722 C.3     
  15 O15           -2.3676     5.5970    -0.2439 O.3     
  16 C16           -1.8000     8.5740    -1.1162 C.3     
  17 C17           -2.6239     8.4546     0.1675 C.3     
  18 N18            2.1428     6.9109     0.4124 N.1     
  19 F19            1.2315    -2.0311    -0.0802 F       
  20 H20           -0.1771     1.9397    -1.6677 H       
  21 H21           -0.1464    -0.5212    -1.7019 H       
  22 H22            2.5412     1.9210     1.6334 H       
  23 H23            3.8035    -0.9175     1.4581 H       
  24 H24            2.8885    -0.1804     2.7951 H       
  25 H25            2.3406    -1.7166     2.0823 H       
  26 H26            1.9911     3.9802     0.0878 H       
  27 H27           -0.4344     8.2220     0.6389 H       
  28 H28           -3.1828     6.1142    -0.3000 H       
  29 H29           -1.3400     9.5385    -1.3312 H       
  30 H30           -2.1382     8.0100    -1.9856 H       
  31 H31           -3.5040     7.8121     0.1427 H       
  32 H32           -2.7059     9.3406     0.7971 H       
@<TRIPOS>BOND
   1    1    2 ar
   2    1    6 ar
   3    1   20 1
   4    2    3 ar
   5    2   21 1
   6    3    4 ar
   7    3   19 1
   8    4    5 ar
   9    4    7 1
  10    5    6 ar
  11    5   22 1
  12    6    8 1
  13    7   23 1
  14    7   24 1
  15    7   25 1
  16    8    9 am
  17    8   26 1
  18    9   10 1
  19    9   11 2
  20   10   12 2
  21   10   13 1
  22   12   14 1
  23   12   15 1
  24   13   18 3
  25   14   16 1
  26   14   17 1
  27   14   27 1
  28   15   28 1
  29   16   17 1
  30   16   29 1
  31   16   30 1
  32   17   31 1
  33   17   32 1

#	End of record

