#	Name: ASD05143310
#	Creating user name:	WinNT
#	Creation time:	15. 06. 2019 20:57

#	Modifying user name:	WinNT
#	Modification time:	15. 06. 2019 20:57

#	Program:	/corina/corina34_cracker 3.40 0067  02.08.2006

@<TRIPOS>MOLECULE
ASD05143310
  49   51    0    0    0
SMALL
NO_CHARGES


@<TRIPOS>ATOM
   1 C1            -0.2466     1.4560     0.0978 C.2     
   2 N2            -0.0156     0.2017    -0.2356 N.2     
   3 S3            -1.5404    -0.5450    -0.3028 S.3     
   4 C4            -2.4145     0.8766     0.1234 C.2     
   5 N5            -1.5027     1.8089     0.2909 N.2     
   6 N6            -3.7838     1.0082     0.2646 N.pl3   
   7 C7            -4.3252     2.2027     0.7497 C.ar    
   8 C8            -5.6235     2.5650     0.4144 C.ar    
   9 C9            -6.1558     3.7451     0.8953 C.ar    
  10 C10           -5.3966     4.5667     1.7101 C.ar    
  11 C11           -4.1028     4.2083     2.0457 C.ar    
  12 C12           -3.5675     3.0265     1.5723 C.ar    
  13 C13            1.2033    -0.3801    -0.4787 C.ar    
  14 C14            1.6061    -1.4951     0.2582 C.ar    
  15 C15            2.0414     0.1381    -1.4675 C.ar    
  16 C16            3.2654    -0.4494    -1.7087 C.ar    
  17 C17            3.6646    -1.5547    -0.9696 C.ar    
  18 C18            2.8317    -2.0766     0.0108 C.ar    
  19 C19            0.8599     2.4280     0.2551 C.ar    
  20 C20            0.6604     3.7718    -0.0620 C.ar    
  21 C21            2.1023     2.0028     0.7261 C.ar    
  22 C22            3.1300     2.9103     0.8713 C.ar    
  23 C23            2.9295     4.2461     0.5497 C.ar    
  24 C24            1.6926     4.6738     0.0856 C.ar    
  25 O25            4.8719    -2.1309    -1.2104 O.3     
  26 C26            5.2200    -3.2649    -0.4136 C.3     
  27 O27            3.9443     5.1378     0.6948 O.3     
  28 C28            3.6693     6.4960     0.3456 C.3     
  29 Cl29          -6.0685     6.0500     2.3119 Cl      
  30 H30           -4.3688     0.2718     0.0271 H       
  31 H31           -6.2161     1.9245    -0.2220 H       
  32 H32           -7.1652     4.0273     0.6350 H       
  33 H33           -3.5126     4.8513     2.6817 H       
  34 H34           -2.5577     2.7472     1.8345 H       
  35 H35            0.9589    -1.9015     1.0213 H       
  36 H36            1.7314     0.9978    -2.0432 H       
  37 H37            3.9142    -0.0493    -2.4737 H       
  38 H38            3.1461    -2.9364     0.5838 H       
  39 H39           -0.3013     4.1051    -0.4230 H       
  40 H40            2.2587     0.9641     0.9771 H       
  41 H41            4.0921     2.5818     1.2359 H       
  42 H42            1.5402     5.7134    -0.1639 H       
  43 H43            6.2054    -3.6266    -0.7073 H       
  44 H44            5.2366    -2.9788     0.6380 H       
  45 H45            4.4836    -4.0543    -0.5638 H       
  46 H46            3.3799     6.5498    -0.7039 H       
  47 H47            2.8567     6.8734     0.9664 H       
  48 H48            4.5616     7.1006     0.5080 H       
  49 Br49          11.2054    12.1006     7.6817 Br      
@<TRIPOS>BOND
   1    1    2 2
   2    1   19 1
   3    1    5 1
   4    2    3 1
   5    2   13 1
   6    3    4 1
   7    4    5 2
   8    4    6 1
   9    6    7 1
  10    6   30 1
  11    7    8 ar
  12    7   12 ar
  13    8    9 ar
  14    8   31 1
  15    9   10 ar
  16    9   32 1
  17   10   11 ar
  18   10   29 1
  19   11   12 ar
  20   11   33 1
  21   12   34 1
  22   13   14 ar
  23   13   15 ar
  24   14   18 ar
  25   14   35 1
  26   15   16 ar
  27   15   36 1
  28   16   17 ar
  29   16   37 1
  30   17   18 ar
  31   17   25 1
  32   18   38 1
  33   19   20 ar
  34   19   21 ar
  35   20   24 ar
  36   20   39 1
  37   21   22 ar
  38   21   40 1
  39   22   23 ar
  40   22   41 1
  41   23   24 ar
  42   23   27 1
  43   24   42 1
  44   25   26 1
  45   26   43 1
  46   26   44 1
  47   26   45 1
  48   27   28 1
  49   28   46 1
  50   28   47 1
  51   28   48 1

#	End of record

