#	Name: ASD00310318
#	Creating user name:	WinNT
#	Creation time:	15. 06. 2019 18:34

#	Modifying user name:	WinNT
#	Modification time:	15. 06. 2019 18:34

#	Program:	/corina/corina34_cracker 3.40 0067  02.08.2006

@<TRIPOS>MOLECULE
ASD00310318
  38   41    0    0    0
SMALL
NO_CHARGES


@<TRIPOS>ATOM
   1 N1            -0.0162     1.3425     0.0094 N.pl3   
   2 C2             0.0021    -0.0041     0.0020 C.2     
   3 C3             1.3065    -0.4496    -0.0128 C.2     
   4 C4             2.1541     0.7597    -0.0144 C.ar    
   5 C5             3.5276     0.9734    -0.0268 C.ar    
   6 C6             4.0198     2.2726    -0.0249 C.ar    
   7 C7             3.1346     3.3559    -0.0106 C.ar    
   8 C8             1.7744     3.1459     0.0016 C.ar    
   9 C9             1.2678     1.8487    -0.0001 C.ar    
  10 C10            1.7456    -1.7969    -0.0243 C.2     
  11 O11            0.9342    -2.6999    -0.0218 O.2     
  12 O12            9.5679     3.1678    -0.0482 O.3     
  13 C13           10.1332     3.7654    -1.2199 C.3     
  14 C14            9.2572     4.9601    -1.6203 C.3     
  15 O15            7.9348     4.4779    -1.8823 O.3     
  16 C16            7.4064     3.6149    -0.9717 C.ar    
  17 C17            8.2228     2.9584    -0.0561 C.ar    
  18 C18            6.0398     3.3932    -0.9622 C.ar    
  19 C19            5.4840     2.5113    -0.0376 C.ar    
  20 C20            6.3064     1.8544     0.8753 C.ar    
  21 C21            7.6678     2.0790     0.8631 C.ar    
  22 C22           11.5546     4.2454    -0.9197 C.3     
  23 O23           12.3871     3.1197    -0.6335 O.3     
  24 Cl24           3.7563     4.9767    -0.0078 Cl      
  25 H25           -0.8217     1.8829     0.0163 H       
  26 H26           -0.8721    -0.6383     0.0075 H       
  27 H27            4.2079     0.1347    -0.0374 H       
  28 H28            1.0989     3.9885     0.0126 H       
  29 H29            2.8022    -2.0203    -0.0351 H       
  30 H30           10.1542     3.0369    -2.0305 H       
  31 H31            9.2297     5.6849    -0.8066 H       
  32 H32            9.6621     5.4287    -2.5172 H       
  33 H33            5.4048     3.9039    -1.6709 H       
  34 H34            5.8783     1.1698     1.5926 H       
  35 H35            8.3037     1.5689     1.5715 H       
  36 H36           11.9487     4.7780    -1.7853 H       
  37 H37           11.5382     4.9135    -0.0586 H       
  38 H38           13.3047     3.3499    -0.4335 H       
@<TRIPOS>BOND
   1    1    2 1
   2    1    9 1
   3    1   25 1
   4    2    3 2
   5    2   26 1
   6    3    4 1
   7    3   10 1
   8    4    5 ar
   9    4    9 ar
  10    5    6 ar
  11    5   27 1
  12    6    7 ar
  13    6   19 1
  14    7    8 ar
  15    7   24 1
  16    8    9 ar
  17    8   28 1
  18   10   11 2
  19   10   29 1
  20   12   13 1
  21   12   17 1
  22   13   14 1
  23   13   22 1
  24   13   30 1
  25   14   15 1
  26   14   31 1
  27   14   32 1
  28   15   16 1
  29   16   17 ar
  30   16   18 ar
  31   17   21 ar
  32   18   19 ar
  33   18   33 1
  34   19   20 ar
  35   20   21 ar
  36   20   34 1
  37   21   35 1
  38   22   23 1
  39   22   36 1
  40   22   37 1
  41   23   38 1

#	End of record

