#	Name: ASD04590484
#	Creating user name:	WinNT
#	Creation time:	15. 06. 2019 20:50

#	Modifying user name:	WinNT
#	Modification time:	15. 06. 2019 20:50

#	Program:	/corina/corina34_cracker 3.40 0067  02.08.2006

@<TRIPOS>MOLECULE
ASD04590484
  46   49    0    0    0
SMALL
NO_CHARGES


@<TRIPOS>ATOM
   1 C1             0.0299     1.3239    -0.3248 C.ar    
   2 C2             0.0166    -0.0619    -0.4939 C.ar    
   3 C3            -2.3580    -0.0859    -0.1217 C.ar    
   4 C4            -2.3367     1.3079     0.0589 C.ar    
   5 C5            -1.1414     2.0046    -0.0498 C.ar    
   6 N6            -3.6420    -0.4919     0.0407 N.2     
   7 C7            -4.4016     0.5431     0.3054 C.2     
   8 N8            -3.6412     1.6821     0.3279 N.pl3   
   9 C9            -5.8588     0.4891     0.5436 C.2     
  10 C10           -6.6614    -0.6747     0.5254 C.2     
  11 C11           -7.9371    -0.3013     0.7893 C.2     
  12 N12           -7.9483     1.0460     0.9686 N.pl3   
  13 N13           -6.6383     1.5173     0.8161 N.2     
  14 N14           -6.2160    -1.9845     0.2775 N.am    
  15 C15           -7.0926    -3.0082     0.2902 C.2     
  16 O16           -8.2689    -2.7986     0.5162 O.2     
  17 C17           -1.1655    -0.7653    -0.3940 C.ar    
  18 N18           -6.6654    -4.2641     0.0525 N.am    
  19 C19           -7.5563    -5.3392     0.1616 C.ar    
  20 O20            1.1761    -0.7221    -0.7591 O.3     
  21 C21            1.0932    -2.1395    -0.9211 C.3     
  22 C22           -7.1151    -6.5605     0.6531 C.ar    
  23 C23           -8.8833    -5.1835    -0.2161 C.ar    
  24 C24           -9.7603    -6.2450    -0.1077 C.ar    
  25 C25           -9.3169    -7.4639     0.3773 C.ar    
  26 C26           -7.9953    -7.6195     0.7599 C.ar    
  27 O27            1.2019     2.0068    -0.4256 O.3     
  28 C28            1.1456     3.4228    -0.2418 C.3     
  29 F29          -10.1764    -8.5008     0.4829 F       
  30 H30           -1.1263     3.0766     0.0805 H       
  31 H31           -3.9580     2.5825     0.5006 H       
  32 H32           -8.7929    -0.9576     0.8463 H       
  33 H33           -8.7278     1.5867     1.1711 H       
  34 H34           -5.2777    -2.1517     0.0972 H       
  35 H35           -1.1708    -1.8372    -0.5260 H       
  36 H36           -5.7409    -4.4235    -0.1942 H       
  37 H37            2.0856    -2.5402    -1.1277 H       
  38 H38            0.7036    -2.5875    -0.0070 H       
  39 H39            0.4272    -2.3719    -1.7521 H       
  40 H40           -6.0842    -6.6824     0.9513 H       
  41 H41           -9.2295    -4.2329    -0.5941 H       
  42 H42          -10.7926    -6.1242    -0.4011 H       
  43 H43           -7.6513    -8.5711     1.1376 H       
  44 H44            0.4862     3.8605    -0.9913 H       
  45 H45            0.7619     3.6449     0.7540 H       
  46 H46            2.1457     3.8430    -0.3479 H       
@<TRIPOS>BOND
   1    1    2 ar
   2    1   27 1
   3    1    5 ar
   4    2   17 ar
   5    2   20 1
   6    3    4 ar
   7    3    6 1
   8    3   17 ar
   9    4    5 ar
  10    4    8 1
  11    5   30 1
  12    6    7 2
  13    7    8 1
  14    7    9 1
  15    8   31 1
  16    9   10 1
  17    9   13 2
  18   10   11 2
  19   10   14 1
  20   11   12 1
  21   11   32 1
  22   12   13 1
  23   12   33 1
  24   14   15 am
  25   14   34 1
  26   15   16 2
  27   15   18 am
  28   17   35 1
  29   18   19 1
  30   18   36 1
  31   19   23 ar
  32   19   22 ar
  33   20   21 1
  34   21   37 1
  35   21   38 1
  36   21   39 1
  37   22   26 ar
  38   22   40 1
  39   23   24 ar
  40   23   41 1
  41   24   25 ar
  42   24   42 1
  43   25   26 ar
  44   25   29 1
  45   26   43 1
  46   27   28 1
  47   28   44 1
  48   28   45 1
  49   28   46 1

#	End of record

