#	Name: ASD01231353
#	Creating user name:	WinNT
#	Creation time:	15. 06. 2019 19:15

#	Modifying user name:	WinNT
#	Modification time:	15. 06. 2019 19:15

#	Program:	/corina/corina34_cracker 3.40 0067  02.08.2006

@<TRIPOS>MOLECULE
ASD01231353
  51   54    0    0    0
SMALL
NO_CHARGES


@<TRIPOS>ATOM
   1 C1            -0.3234     2.1689    -0.6409 C.2     
   2 C2            -0.1304     0.9110    -1.0403 C.2     
   3 C3             1.1500     0.6302    -1.4851 C.2     
   4 C4             1.9968     1.6601    -1.4469 C.2     
   5 S5             1.1699     3.0806    -0.8209 S.3     
   6 S6            -1.8438     2.8197    -0.0332 S.o2    
   7 O7            -1.7431     4.2337    -0.1321 O.2     
   8 O8            -2.8783     2.0689    -0.6540 O.2     
   9 N9            -1.9163     2.4680     1.5834 N.am    
  10 C10           -0.9491     3.0659     2.5072 C.3     
  11 C11           -1.6659     4.0095     3.4962 C.3     
  12 C12           -1.9595     3.0767     4.6903 C.3     
  13 C13           -0.8960     2.0016     4.6240 C.ar    
  14 C14           -0.4700     1.1001     5.5851 C.ar    
  15 C15            0.5323     0.1957     5.2941 C.ar    
  16 C16            1.1129     0.1894     4.0394 C.ar    
  17 C17            0.6895     1.0876     3.0796 C.ar    
  18 C18           -0.3155     1.9954     3.3696 C.ar    
  19 C19            0.9929    -0.7832     6.3433 C.3     
  20 C20            0.1736    -2.0444     6.2479 C.ar    
  21 C21            0.5899    -3.0790     5.4308 C.ar    
  22 C22           -0.1615    -4.2357     5.3433 C.ar    
  23 C23           -1.3293    -4.3583     6.0733 C.ar    
  24 C24           -1.7450    -3.3243     6.8908 C.ar    
  25 C25           -0.9910    -2.1690     6.9817 C.ar    
  26 C26           -3.0181    -3.4578     7.6861 C.3     
  27 F27           -3.5973    -4.7059     7.4332 F       
  28 F28           -2.7296    -3.3454     9.0504 F       
  29 F29           -3.9092    -2.4459     7.3130 F       
  30 C30            0.2918    -5.3631     4.4519 C.3     
  31 O31            1.1315    -6.2494     5.1945 O.3     
  32 H32           -0.9136     0.1677    -1.0181 H       
  33 H33            1.4414    -0.3488    -1.8361 H       
  34 H34            3.0320     1.6267    -1.7529 H       
  35 H35           -2.5991     1.8661     1.9186 H       
  36 H36           -0.1838     3.6093     1.9530 H       
  37 H37           -1.0105     4.8274     3.7954 H       
  38 H38           -2.5917     4.3911     3.0658 H       
  39 H39           -1.8828     3.6272     5.6280 H       
  40 H40           -2.9508     2.6348     4.5902 H       
  41 H41           -0.9229     1.1045     6.5656 H       
  42 H42            1.8971    -0.5169     3.8102 H       
  43 H43            1.1435     1.0821     2.0997 H       
  44 H44            2.0446    -1.0201     6.1823 H       
  45 H45            0.8670    -0.3420     7.3320 H       
  46 H46            1.5021    -2.9833     4.8606 H       
  47 H47           -1.9168    -5.2619     6.0044 H       
  48 H48           -1.3139    -1.3625     7.6233 H       
  49 H49           -0.5779    -5.9085     4.0852 H       
  50 H50            0.8487    -4.9572     3.6075 H       
  51 H51            1.4609    -7.0006     4.6824 H       
@<TRIPOS>BOND
   1    1    2 2
   2    1    5 1
   3    1    6 1
   4    2    3 1
   5    2   32 1
   6    3    4 2
   7    3   33 1
   8    4    5 1
   9    4   34 1
  10    6    7 2
  11    6    8 2
  12    6    9 am
  13    9   10 1
  14    9   35 1
  15   10   11 1
  16   10   18 1
  17   10   36 1
  18   11   12 1
  19   11   37 1
  20   11   38 1
  21   12   13 1
  22   12   39 1
  23   12   40 1
  24   13   14 ar
  25   13   18 ar
  26   14   15 ar
  27   14   41 1
  28   15   16 ar
  29   15   19 1
  30   16   17 ar
  31   16   42 1
  32   17   18 ar
  33   17   43 1
  34   19   20 1
  35   19   44 1
  36   19   45 1
  37   20   21 ar
  38   20   25 ar
  39   21   22 ar
  40   21   46 1
  41   22   23 ar
  42   22   30 1
  43   23   24 ar
  44   23   47 1
  45   24   25 ar
  46   24   26 1
  47   25   48 1
  48   26   27 1
  49   26   28 1
  50   26   29 1
  51   30   31 1
  52   30   49 1
  53   30   50 1
  54   31   51 1

#	End of record

