#	Name: ASD07301066
#	Creating user name:	WinNT
#	Creation time:	15. 06. 2019 21:10

#	Modifying user name:	WinNT
#	Modification time:	15. 06. 2019 21:10

#	Program:	/corina/corina34_cracker 3.40 0067  02.08.2006

@<TRIPOS>MOLECULE
ASD07301066
  30   30    0    0    0
SMALL
NO_CHARGES


@<TRIPOS>ATOM
   1 C1            -1.3940     0.5437     0.1922 C.3     
   2 C2            -0.0025    -0.0037     0.0051 C.2     
   3 C3             0.6922    -0.6357     1.1276 C.2     
   4 C4             0.6404    -2.0887     1.2957 C.2     
   5 C5             1.3557    -2.7394     2.4515 C.3     
   6 O6             0.5421     0.0795    -1.0763 O.2     
   7 O7             0.0213    -2.7694     0.5043 O.2     
   8 N8             1.3675     0.1068     1.9908 N.2     
   9 N9             1.5003     1.3736     1.7865 N.pl3   
  10 C10            2.2992     2.1376     2.6377 C.ar    
  11 C11            2.4438     3.5051     2.4189 C.ar    
  12 C12            3.2363     4.2578     3.2657 C.ar    
  13 C13            3.8840     3.6535     4.3279 C.ar    
  14 C14            3.7420     2.2956     4.5474 C.ar    
  15 C15            2.9480     1.5371     3.7095 C.ar    
  16 C16            3.3949     5.7380     3.0308 C.3     
  17 F17            4.2366     6.2778     4.0092 F       
  18 F18            3.9527     5.9523     1.7659 F       
  19 F19            2.1426     6.3578     3.0994 F       
  20 F20            1.8114     4.0952     1.3811 F       
  21 H21           -1.3978     1.2509     1.0216 H       
  22 H22           -1.7104     1.0510    -0.7193 H       
  23 H23           -2.0803    -0.2748     0.4094 H       
  24 H24            1.8519    -1.9745     3.0488 H       
  25 H25            0.6349    -3.2733     3.0707 H       
  26 H26            2.0978    -3.4412     2.0708 H       
  27 H27            1.0447     1.7950     1.0410 H       
  28 H28            4.5027     4.2438     4.9876 H       
  29 H29            4.2499     1.8279     5.3778 H       
  30 H30            2.8348     0.4775     3.8850 H       
@<TRIPOS>BOND
   1    1    2 1
   2    1   21 1
   3    1   22 1
   4    1   23 1
   5    2    3 1
   6    2    6 2
   7    3    4 1
   8    3    8 2
   9    4    5 1
  10    4    7 2
  11    5   24 1
  12    5   25 1
  13    5   26 1
  14    8    9 1
  15    9   10 1
  16    9   27 1
  17   10   11 ar
  18   10   15 ar
  19   11   12 ar
  20   11   20 1
  21   12   13 ar
  22   12   16 1
  23   13   14 ar
  24   13   28 1
  25   14   15 ar
  26   14   29 1
  27   15   30 1
  28   16   17 1
  29   16   18 1
  30   16   19 1

#	End of record

