#	Name: ASD05503059
#	Creating user name:	WinNT
#	Creation time:	15. 06. 2019 21:01

#	Modifying user name:	WinNT
#	Modification time:	15. 06. 2019 21:01

#	Program:	/corina/corina34_cracker 3.40 0067  02.08.2006

@<TRIPOS>MOLECULE
ASD05503059
  42   43    0    0    0
SMALL
NO_CHARGES


@<TRIPOS>ATOM
   1 C1             0.0067     1.4052     0.1615 C.ar    
   2 C2            -0.0094     0.1033     0.6456 C.ar    
   3 C3             1.1762    -0.6092     0.7556 C.ar    
   4 C4             2.3745    -0.0183     0.3813 C.ar    
   5 C5             2.3837     1.2844    -0.1023 C.ar    
   6 C6             1.2017     1.9909    -0.2105 C.ar    
   7 N7            -1.2199    -0.4888     1.0225 N.am    
   8 C8            -2.1952     0.2620     1.5717 C.2     
   9 N9             3.5716    -0.7329     0.4910 N.am    
  10 C10            4.7110    -0.2203    -0.0145 C.2     
  11 C11            5.9704    -0.9878     0.0762 C.ar    
  12 C12            5.9395    -2.3825     0.1271 C.ar    
  13 C13            7.1189    -3.0930     0.2113 C.ar    
  14 C14            8.3312    -2.4269     0.2454 C.ar    
  15 C15            8.3703    -1.0450     0.1958 C.ar    
  16 C16            7.1979    -0.3213     0.1057 C.ar    
  17 Br17           7.2528     1.5677     0.0381 Br      
  18 O18            4.7027     0.8734    -0.5451 O.2     
  19 C19           -3.5404    -0.3494     1.8677 C.3     
  20 C20           -4.4575     0.7095     2.4830 C.3     
  21 C21           -5.8233     0.0888     2.7835 C.3     
  22 O22           -1.9901     1.4297     1.8276 O.2     
  23 C23            3.5872    -2.0384     1.1554 C.3     
  24 H24           -0.9163     1.9586     0.0715 H       
  25 H25            1.1664    -1.6214     1.1321 H       
  26 H26            3.3161     1.7450    -0.3939 H       
  27 H27            1.2116     3.0033    -0.5863 H       
  28 H28           -1.3571    -1.4397     0.8885 H       
  29 H29            4.9942    -2.9041     0.1010 H       
  30 H30            7.0959    -4.1720     0.2510 H       
  31 H31            9.2514    -2.9885     0.3113 H       
  32 H32            9.3199    -0.5314     0.2235 H       
  33 H33           -3.9825    -0.7199     0.9429 H       
  34 H34           -3.4179    -1.1753     2.5683 H       
  35 H35           -4.0154     1.0801     3.4078 H       
  36 H36           -4.5801     1.5355     1.7824 H       
  37 H37           -6.2654    -0.2817     1.8587 H       
  38 H38           -5.7008    -0.7372     3.4841 H       
  39 H39           -6.4767     0.8432     3.2219 H       
  40 H40            3.2910    -2.8108     0.4457 H       
  41 H41            4.5922    -2.2477     1.5217 H       
  42 H42            2.8899    -2.0281     1.9932 H       
@<TRIPOS>BOND
   1    1    2 ar
   2    1    6 ar
   3    1   24 1
   4    2    3 ar
   5    2    7 1
   6    3    4 ar
   7    3   25 1
   8    4    5 ar
   9    4    9 1
  10    5    6 ar
  11    5   26 1
  12    6   27 1
  13    7    8 am
  14    7   28 1
  15    8   19 1
  16    8   22 2
  17    9   10 am
  18    9   23 1
  19   10   11 1
  20   10   18 2
  21   11   12 ar
  22   11   16 ar
  23   12   13 ar
  24   12   29 1
  25   13   14 ar
  26   13   30 1
  27   14   15 ar
  28   14   31 1
  29   15   16 ar
  30   15   32 1
  31   16   17 1
  32   19   20 1
  33   19   33 1
  34   19   34 1
  35   20   21 1
  36   20   35 1
  37   20   36 1
  38   21   37 1
  39   21   38 1
  40   21   39 1
  41   23   40 1
  42   23   41 1
  43   23   42 1

#	End of record

