#	Name: ASD06610039
#	Creating user name:	WinNT
#	Creation time:	15. 06. 2019 21:07

#	Modifying user name:	WinNT
#	Modification time:	15. 06. 2019 21:07

#	Program:	/corina/corina34_cracker 3.40 0067  02.08.2006

@<TRIPOS>MOLECULE
ASD06610039
 284  284    0    0    0
SMALL
NO_CHARGES


@<TRIPOS>ATOM
   1 C1            -3.6649   -10.1525     0.7764 C.2     
   2 O2            -4.0386   -11.2767     1.0360 O.2     
   3 N3            -1.4357   -11.1113     0.7598 N.am    
   4 C4            -2.1969    -9.8721     0.5833 C.3     
   5 C5            -1.9631    -9.3265    -0.8269 C.3     
   6 C6            -0.5168    -8.9312    -0.9792 C.ar    
   7 C7             0.4077    -9.8534    -1.4327 C.ar    
   8 C8             1.7343    -9.4908    -1.5723 C.ar    
   9 C9             2.1363    -8.2059    -1.2589 C.ar    
  10 C10            1.2116    -7.2834    -0.8063 C.ar    
  11 C11           -0.1158    -7.6448    -0.6708 C.ar    
  12 C12           -6.7988    -8.4013     0.0870 C.2     
  13 O13           -6.2373    -7.5265    -0.5379 O.2     
  14 N14           -4.5631    -9.1550     0.6552 N.am    
  15 C15           -5.9908    -9.4287     0.8371 C.3     
  16 C16           -6.3372    -9.3623     2.3258 C.3     
  17 C17           -5.6118   -10.4860     3.0689 C.3     
  18 C18           -5.9583   -10.4196     4.5576 C.3     
  19 N19           -5.2637   -11.4955     5.2691 N.pl3   
  20 C20           -5.4233   -11.6364     6.6273 C.2     
  21 N21           -6.1926   -10.8127     7.2821 N.2     
  22 N22           -4.7714   -12.6461     7.2950 N.pl3   
  23 C23          -10.2923    -7.3275     0.0145 C.2     
  24 O24          -10.5784    -8.0039     0.9797 O.2     
  25 N25           -8.1453    -8.4545     0.1106 N.am    
  26 C26           -8.9307    -7.4557    -0.6185 C.3     
  27 C27           -9.0853    -7.8935    -2.0764 C.3     
  28 O28           -9.8557    -9.0957    -2.1336 O.3     
  29 C29          -13.4999    -5.8314    -0.8998 C.2     
  30 O30          -13.1319    -5.5983    -2.0317 O.2     
  31 N31          -11.1921    -6.4613    -0.4920 N.am    
  32 C32          -12.5157    -6.3367     0.1234 C.3     
  33 C33          -12.4441    -5.3517     1.2921 C.3     
  34 O34          -12.1329    -4.0477     0.7975 O.3     
  35 C35          -16.8840    -4.4498    -0.8526 C.2     
  36 O36          -16.8950    -4.3709     0.3576 O.2     
  37 N37          -14.7890    -5.6385    -0.5572 N.am    
  38 C38          -15.7457    -5.1472    -1.5519 C.3     
  39 C39          -16.2901    -6.3259    -2.3615 C.3     
  40 C40          -15.1546    -6.9574    -3.1694 C.3     
  41 C41          -15.6989    -8.1360    -3.9790 C.3     
  42 N42          -14.6116    -8.7407    -4.7526 N.pl3   
  43 C43          -14.8632    -9.8236    -5.5615 C.2     
  44 N44          -16.0690   -10.3121    -5.6402 N.2     
  45 N45          -13.8428   -10.3910    -6.2874 N.pl3   
  46 C46          -20.2231    -3.2758    -1.7666 C.2     
  47 O47          -20.1775    -3.8172    -2.8508 O.2     
  48 N48          -17.8898    -3.9138    -1.5720 N.am    
  49 C49          -18.9963    -3.2359    -0.8922 C.3     
  50 C50          -18.6119    -1.7804    -0.6189 C.3     
  51 C51          -17.4436    -1.7381     0.3681 C.3     
  52 C52          -17.0650    -0.3045     0.6373 C.2     
  53 O53          -17.6677     0.5915     0.0952 O.2     
  54 O54          -16.0582    -0.0230     1.4792 O.3     
  55 C55          -23.4700    -1.5980    -1.8398 C.2     
  56 O56          -23.1515    -0.8221    -0.9638 O.2     
  57 N57          -21.3708    -2.7098    -1.3436 N.am    
  58 C58          -22.5633    -2.7486    -2.1936 C.3     
  59 C59          -23.3045    -4.0687    -1.9726 C.3     
  60 C60          -22.4301    -5.2304    -2.4487 C.3     
  61 C61          -23.1712    -6.5505    -2.2276 C.3     
  62 C62          -22.2968    -7.7123    -2.7038 C.3     
  63 N63          -23.0084    -8.9798    -2.4915 N.3     
  64 C64          -26.9347    -0.6573    -2.5282 C.2     
  65 O65          -27.1846    -1.7312    -3.0334 O.2     
  66 N66          -24.6350    -1.4314    -2.4968 N.am    
  67 C67          -25.5164    -0.3130    -2.1528 C.3     
  68 C68          -25.0758     0.9373    -2.9167 C.3     
  69 C69          -23.6832     1.3593    -2.4442 C.3     
  70 C70          -23.2425     2.6096    -3.2081 C.3     
  71 N71          -21.9090     3.0137    -2.7556 N.pl3   
  72 C72          -21.3028     4.1192    -3.3039 C.2     
  73 N73          -20.1164     4.4787    -2.9013 N.2     
  74 N74          -21.9480     4.8454    -4.2768 N.pl3   
  75 C75          -30.0833     1.1617    -2.9038 C.2     
  76 O76          -29.5403     2.2390    -2.7795 O.2     
  77 N77          -27.9254     0.2282    -2.3026 N.am    
  78 C78          -29.3042    -0.1065    -2.6676 C.3     
  79 C79          -29.9539    -0.9003    -1.5324 C.3     
  80 C80          -29.2392    -2.2439    -1.3755 C.3     
  81 C81          -29.8889    -3.0377    -0.2403 C.3     
  82 N82          -29.2045    -4.3243    -0.0901 N.pl3   
  83 C83          -29.6164    -5.2135     0.8742 C.2     
  84 N84          -30.6157    -4.9118     1.6548 N.2     
  85 N85          -28.9741    -6.4209     1.0152 N.pl3   
  86 C86          -33.6069     2.0710    -3.2508 C.2     
  87 O87          -33.9822     0.9644    -2.9257 O.2     
  88 N88          -31.3835     1.0987    -3.2532 N.am    
  89 C89          -32.1408     2.3315    -3.4828 C.3     
  90 C90          -31.9278     2.8000    -4.9236 C.3     
  91 O91          -32.4855     1.8406    -5.8239 O.3     
  92 C92          -36.7434     3.8078    -3.9643 C.2     
  93 O93          -36.1898     4.6449    -4.6452 O.2     
  94 N94          -34.5011     3.0676    -3.4047 N.am    
  95 C95          -35.9263     2.8143    -3.1792 C.3     
  96 C96          -36.2406     2.9599    -1.6889 C.3     
  97 C97          -39.0947     5.9591    -3.6480 C.2     
  98 O98          -38.6297     5.9288    -2.5282 O.2     
  99 N99          -38.0894     3.7659    -3.9098 N.am    
 100 C100         -38.8822     4.7972    -4.5838 C.3     
 101 C101         -40.2375     4.2146    -4.9895 C.3     
 102 C102         -40.0334     3.1482    -6.0346 C.2     
 103 O103         -38.9148     2.8243    -6.3568 O.2     
 104 O104         -41.0942     2.5582    -6.6075 O.3     
 105 C105         -41.4796     8.6575    -3.3993 C.2     
 106 O106         -42.1380     8.1962    -4.3074 O.2     
 107 N107         -39.8014     7.0320    -4.0553 N.am    
 108 C108         -40.1053     8.1104    -3.1114 C.3     
 109 C109         -39.0700     9.2268    -3.2622 C.3     
 110 C110         -38.9965     9.6597    -4.7278 C.3     
 111 C111         -40.3070    10.3426    -5.1242 C.3     
 112 C112         -37.6998     8.7160    -2.8120 C.3     
 113 C113         -43.4814    11.5471    -2.3960 C.2     
 114 O114         -42.5219    12.1241    -1.9418 O.2     
 115 N115         -41.9770     9.6595    -2.6476 N.am    
 116 C116         -43.3530    10.1175    -2.8553 C.3     
 117 C117         -44.3108     9.2357    -2.0517 C.3     
 118 O118         -44.6616    12.1793    -2.4916 O.3     
 119 C119          -0.1419   -11.0600     1.1339 C.2     
 120 O120           0.3922    -9.9879     1.3243 O.2     
 121 C121          16.2244   -19.0385     5.5697 C.3     
 122 C122          15.4295   -17.7443     5.3853 C.3     
 123 C123          13.9982   -18.0808     4.9619 C.3     
 124 C124          13.2033   -16.7866     4.7775 C.3     
 125 C125          11.7720   -17.1231     4.3542 C.3     
 126 C126          10.9771   -15.8289     4.1698 C.3     
 127 C127           9.5459   -16.1655     3.7464 C.3     
 128 C128           8.7509   -14.8713     3.5620 C.3     
 129 C129           7.3197   -15.2078     3.1387 C.3     
 130 C130           6.5247   -13.9136     2.9543 C.3     
 131 C131           5.0935   -14.2501     2.5310 C.3     
 132 C132           4.2985   -12.9559     2.3466 C.3     
 133 C133           2.8673   -13.2924     1.9232 C.3     
 134 C134           2.0723   -11.9982     1.7388 C.3     
 135 C135           0.6411   -12.3347     1.3155 C.3     
 136 H136          -1.8629   -11.9688     0.6076 H       
 137 H137          -1.8679    -9.1360     1.3168 H       
 138 H138          -2.2086   -10.0955    -1.5593 H       
 139 H139          -2.5970    -8.4548    -0.9889 H       
 140 H140           0.0936   -10.8573    -1.6775 H       
 141 H141           2.4568   -10.2115    -1.9260 H       
 142 H142           3.1729    -7.9228    -1.3674 H       
 143 H143           1.5257    -6.2796    -0.5611 H       
 144 H144          -0.8389    -6.9230    -0.3207 H       
 145 H145          -4.2643    -8.2558     0.4476 H       
 146 H146          -6.2218   -10.4228     0.4542 H       
 147 H147          -6.0246    -8.3991     2.7290 H       
 148 H148          -7.4135    -9.4777     2.4539 H       
 149 H149          -5.9245   -11.4492     2.6657 H       
 150 H150          -4.5355   -10.3705     2.9408 H       
 151 H151          -5.6456    -9.4564     4.9609 H       
 152 H152          -7.0345   -10.5350     4.6857 H       
 153 H153          -4.6911   -12.1085     4.7819 H       
 154 H154          -6.3052   -10.9122     8.2403 H       
 155 H155          -4.1989   -13.2590     6.8078 H       
 156 H156          -4.8840   -12.7455     8.2533 H       
 157 H157          -8.5943    -9.1541     0.6104 H       
 158 H158          -8.4202    -6.4934    -0.5803 H       
 159 H159          -9.5924    -7.1099    -2.6393 H       
 160 H160          -8.1006    -8.0721    -2.5085 H       
 161 H161          -9.9940    -9.4319    -3.0297 H       
 162 H162         -10.9633    -5.9204    -1.2639 H       
 163 H163         -12.8397    -7.3111     0.4889 H       
 164 H164         -13.4056    -5.3259     1.8049 H       
 165 H165         -11.6691    -5.6706     1.9890 H       
 166 H166         -12.0714    -3.3706     1.4852 H       
 167 H167         -15.0833    -5.8249     0.3481 H       
 168 H168         -15.2465    -4.4465    -2.2211 H       
 169 H169         -16.7107    -7.0688    -1.6838 H       
 170 H170         -17.0663    -5.9727    -3.0405 H       
 171 H171         -14.7340    -6.2145    -3.8471 H       
 172 H172         -14.3784    -7.3106    -2.4905 H       
 173 H173         -16.1195    -8.8789    -3.3013 H       
 174 H174         -16.4751    -7.7829    -4.6579 H       
 175 H175         -13.7143    -8.3771    -4.6940 H       
 176 H176         -16.2464   -11.0761    -6.2109 H       
 177 H177         -12.9454   -10.0274    -6.2289 H       
 178 H178         -14.0203   -11.1550    -6.8582 H       
 179 H179         -17.8810    -3.9770    -2.5399 H       
 180 H180         -19.2062    -3.7395     0.0514 H       
 181 H181         -18.3164    -1.3013    -1.5523 H       
 182 H182         -19.4658    -1.2527    -0.1941 H       
 183 H183         -17.7391    -2.2172     1.3015 H       
 184 H184         -16.5898    -2.2658    -0.0567 H       
 185 H185         -15.8521     0.9112     1.6202 H       
 186 H186         -21.4072    -2.2767    -0.4764 H       
 187 H187         -22.2668    -2.6691    -3.2395 H       
 188 H188         -23.5229    -4.1895    -0.9115 H       
 189 H189         -24.2370    -4.0608    -2.5369 H       
 190 H190         -22.2116    -5.1096    -3.5097 H       
 191 H191         -21.4976    -5.2383    -1.8844 H       
 192 H192         -23.3897    -6.6713    -1.1666 H       
 193 H193         -24.1037    -6.5426    -2.7920 H       
 194 H194         -22.0784    -7.5915    -3.7648 H       
 195 H195         -21.3643    -7.7202    -2.1394 H       
 196 H196         -22.4512    -9.7630    -2.7983 H       
 197 H197         -23.2791    -9.0850    -1.5252 H       
 198 H198         -24.8898    -2.0520    -3.1974 H       
 199 H199         -25.4604    -0.1225    -1.0810 H       
 200 H200         -25.0467     0.7193    -3.9843 H       
 201 H201         -25.7832     1.7453    -2.7301 H       
 202 H202         -23.7123     1.5773    -1.3766 H       
 203 H203         -22.9758     0.5513    -2.6308 H       
 204 H204         -23.2134     2.3916    -4.2757 H       
 205 H205         -23.9499     3.4176    -3.0215 H       
 206 H206         -21.4539     2.5013    -2.0692 H       
 207 H207         -19.6887     5.2587    -3.2882 H       
 208 H208         -22.8309     4.5778    -4.5764 H       
 209 H209         -21.5203     5.6253    -4.6636 H       
 210 H210         -27.7256     1.0871    -1.8986 H       
 211 H211         -29.3036    -0.7073    -3.5771 H       
 212 H212         -29.8751    -0.3361    -0.6031 H       
 213 H213         -31.0048    -1.0727    -1.7648 H       
 214 H214         -29.3180    -2.8081    -2.3048 H       
 215 H215         -28.1883    -2.0715    -1.1432 H       
 216 H216         -29.8101    -2.4736     0.6890 H       
 217 H217         -30.9398    -3.2101    -0.4727 H       
 218 H218         -28.4609    -4.5488    -0.6710 H       
 219 H219         -30.9062    -5.5392     2.3351 H       
 220 H220         -28.2304    -6.6454     0.4343 H       
 221 H221         -29.2647    -7.0482     1.6956 H       
 222 H222         -31.8177     0.2370    -3.3526 H       
 223 H223         -31.7957     3.1034    -2.7949 H       
 224 H224         -32.4183     3.7626    -5.0689 H       
 225 H225         -30.8603     2.9032    -5.1181 H       
 226 H226         -32.3866     2.0731    -6.7573 H       
 227 H227         -34.2009     3.9526    -3.6647 H       
 228 H228         -36.1717     1.8036    -3.5052 H       
 229 H229         -35.9951     3.9707    -1.3628 H       
 230 H230         -37.3010     2.7715    -1.5211 H       
 231 H231         -35.6496     2.2414    -1.1210 H       
 232 H232         -38.5332     3.0530    -3.4243 H       
 233 H233         -38.3528     5.1391    -5.4732 H       
 234 H234         -40.7220     3.7789    -4.1157 H       
 235 H235         -40.8663     5.0065    -5.3965 H       
 236 H236         -40.9133     1.8799    -7.2725 H       
 237 H237         -40.1089     7.0901    -4.9734 H       
 238 H238         -40.0748     7.7217    -2.0936 H       
 239 H239         -39.3609    10.0777    -2.6462 H       
 240 H240         -38.1691    10.3569    -4.8597 H       
 241 H241         -38.8380     8.7844    -5.3577 H       
 242 H242         -41.0885     9.5913    -5.2376 H       
 243 H243         -40.5955    11.0528    -4.3492 H       
 244 H244         -40.1707    10.8704    -6.0681 H       
 245 H245         -37.4311     7.8350    -3.3949 H       
 246 H246         -36.9531     9.4950    -2.9657 H       
 247 H247         -37.7392     8.4540    -1.7547 H       
 248 H248         -41.4240    10.0775    -1.9691 H       
 249 H249         -43.6016    10.0525    -3.9146 H       
 250 H250         -45.3346     9.5764    -2.2062 H       
 251 H251         -44.2180     8.2017    -2.3839 H       
 252 H252         -44.0623     9.3007    -0.9924 H       
 253 H253         -44.6950    13.0955    -2.1842 H       
 254 H254          17.2441   -18.7988     5.8712 H       
 255 H255          15.7518   -19.6487     6.3394 H       
 256 H256          16.2437   -19.5901     4.6297 H       
 257 H257          15.4102   -17.1927     6.3252 H       
 258 H258          15.9021   -17.1341     4.6155 H       
 259 H259          14.0175   -18.6324     4.0220 H       
 260 H260          13.5256   -18.6910     5.7316 H       
 261 H261          13.1840   -16.2350     5.7174 H       
 262 H262          13.6759   -16.1765     4.0078 H       
 263 H263          11.7913   -17.6747     3.4143 H       
 264 H264          11.2994   -17.7333     5.1239 H       
 265 H265          10.9578   -15.2773     5.1097 H       
 266 H266          11.4497   -15.2188     3.4001 H       
 267 H267           9.5652   -16.7171     2.8065 H       
 268 H268           9.0732   -16.7756     4.5162 H       
 269 H269           8.7316   -14.3197     4.5020 H       
 270 H270           9.2235   -14.2611     2.7923 H       
 271 H271           7.3390   -15.7594     2.1988 H       
 272 H272           6.8471   -15.8179     3.9084 H       
 273 H273           6.5054   -13.3620     3.8942 H       
 274 H274           6.9973   -13.3034     2.1846 H       
 275 H275           5.1128   -14.8017     1.5910 H       
 276 H276           4.6209   -14.8603     3.3007 H       
 277 H277           4.2792   -12.4043     3.2865 H       
 278 H278           4.7711   -12.3458     1.5769 H       
 279 H279           2.8866   -13.8440     0.9833 H       
 280 H280           2.3947   -13.9026     2.6929 H       
 281 H281           2.0530   -11.4466     2.6788 H       
 282 H282           2.5450   -11.3881     0.9691 H       
 283 H283           0.1685   -12.9449     2.0852 H       
 284 H284           0.6604   -12.8863     0.3756 H       
@<TRIPOS>BOND
   1    1    2 2
   2    1    4 1
   3    1   14 am
   4    3  119 am
   5    3    4 1
   6    3  136 1
   7    4    5 1
   8    4  137 1
   9    5    6 1
  10    5  138 1
  11    5  139 1
  12    6    7 ar
  13    6   11 ar
  14    7    8 ar
  15    7  140 1
  16    8    9 ar
  17    8  141 1
  18    9   10 ar
  19    9  142 1
  20   10   11 ar
  21   10  143 1
  22   11  144 1
  23   12   13 2
  24   12   15 1
  25   12   25 am
  26   14   15 1
  27   14  145 1
  28   15   16 1
  29   15  146 1
  30   16   17 1
  31   16  147 1
  32   16  148 1
  33   17   18 1
  34   17  149 1
  35   17  150 1
  36   18   19 1
  37   18  151 1
  38   18  152 1
  39   19   20 1
  40   19  153 1
  41   20   21 2
  42   20   22 1
  43   21  154 1
  44   22  155 1
  45   22  156 1
  46   23   24 2
  47   23   26 1
  48   23   31 am
  49   25   26 1
  50   25  157 1
  51   26   27 1
  52   26  158 1
  53   27   28 1
  54   27  159 1
  55   27  160 1
  56   28  161 1
  57   29   30 2
  58   29   32 1
  59   29   37 am
  60   31   32 1
  61   31  162 1
  62   32   33 1
  63   32  163 1
  64   33   34 1
  65   33  164 1
  66   33  165 1
  67   34  166 1
  68   35   36 2
  69   35   38 1
  70   35   48 am
  71   37   38 1
  72   37  167 1
  73   38   39 1
  74   38  168 1
  75   39   40 1
  76   39  169 1
  77   39  170 1
  78   40   41 1
  79   40  171 1
  80   40  172 1
  81   41   42 1
  82   41  173 1
  83   41  174 1
  84   42   43 1
  85   42  175 1
  86   43   44 2
  87   43   45 1
  88   44  176 1
  89   45  177 1
  90   45  178 1
  91   46   47 2
  92   46   49 1
  93   46   57 am
  94   48   49 1
  95   48  179 1
  96   49   50 1
  97   49  180 1
  98   50   51 1
  99   50  181 1
 100   50  182 1
 101   51   52 1
 102   51  183 1
 103   51  184 1
 104   52   53 2
 105   52   54 1
 106   54  185 1
 107   55   56 2
 108   55   58 1
 109   55   66 am
 110   57   58 1
 111   57  186 1
 112   58   59 1
 113   58  187 1
 114   59   60 1
 115   59  188 1
 116   59  189 1
 117   60   61 1
 118   60  190 1
 119   60  191 1
 120   61   62 1
 121   61  192 1
 122   61  193 1
 123   62   63 1
 124   62  194 1
 125   62  195 1
 126   63  196 1
 127   63  197 1
 128   64   65 2
 129   64   67 1
 130   64   77 am
 131   66   67 1
 132   66  198 1
 133   67   68 1
 134   67  199 1
 135   68   69 1
 136   68  200 1
 137   68  201 1
 138   69   70 1
 139   69  202 1
 140   69  203 1
 141   70   71 1
 142   70  204 1
 143   70  205 1
 144   71   72 1
 145   71  206 1
 146   72   73 2
 147   72   74 1
 148   73  207 1
 149   74  208 1
 150   74  209 1
 151   75   76 2
 152   75   78 1
 153   75   88 am
 154   77   78 1
 155   77  210 1
 156   78   79 1
 157   78  211 1
 158   79   80 1
 159   79  212 1
 160   79  213 1
 161   80   81 1
 162   80  214 1
 163   80  215 1
 164   81   82 1
 165   81  216 1
 166   81  217 1
 167   82   83 1
 168   82  218 1
 169   83   84 2
 170   83   85 1
 171   84  219 1
 172   85  220 1
 173   85  221 1
 174   86   87 2
 175   86   89 1
 176   86   94 am
 177   88   89 1
 178   88  222 1
 179   89   90 1
 180   89  223 1
 181   90   91 1
 182   90  224 1
 183   90  225 1
 184   91  226 1
 185   92   93 2
 186   92   95 1
 187   92   99 am
 188   94   95 1
 189   94  227 1
 190   95   96 1
 191   95  228 1
 192   96  229 1
 193   96  230 1
 194   96  231 1
 195   97   98 2
 196   97  100 1
 197   97  107 am
 198   99  100 1
 199   99  232 1
 200  100  101 1
 201  100  233 1
 202  101  102 1
 203  101  234 1
 204  101  235 1
 205  102  103 2
 206  102  104 1
 207  104  236 1
 208  105  106 2
 209  105  108 1
 210  105  115 am
 211  107  108 1
 212  107  237 1
 213  108  109 1
 214  108  238 1
 215  109  110 1
 216  109  112 1
 217  109  239 1
 218  110  111 1
 219  110  240 1
 220  110  241 1
 221  111  242 1
 222  111  243 1
 223  111  244 1
 224  112  245 1
 225  112  246 1
 226  112  247 1
 227  113  114 2
 228  113  116 1
 229  113  118 1
 230  115  116 1
 231  115  248 1
 232  116  117 1
 233  116  249 1
 234  117  250 1
 235  117  251 1
 236  117  252 1
 237  118  253 1
 238  119  120 2
 239  119  135 1
 240  121  122 1
 241  121  254 1
 242  121  255 1
 243  121  256 1
 244  122  123 1
 245  122  257 1
 246  122  258 1
 247  123  124 1
 248  123  259 1
 249  123  260 1
 250  124  125 1
 251  124  261 1
 252  124  262 1
 253  125  126 1
 254  125  263 1
 255  125  264 1
 256  126  127 1
 257  126  265 1
 258  126  266 1
 259  127  128 1
 260  127  267 1
 261  127  268 1
 262  128  129 1
 263  128  269 1
 264  128  270 1
 265  129  130 1
 266  129  271 1
 267  129  272 1
 268  130  131 1
 269  130  273 1
 270  130  274 1
 271  131  132 1
 272  131  275 1
 273  131  276 1
 274  132  133 1
 275  132  277 1
 276  132  278 1
 277  133  134 1
 278  133  279 1
 279  133  280 1
 280  134  135 1
 281  134  281 1
 282  134  282 1
 283  135  283 1
 284  135  284 1

#	End of record

