#	Name: ASD01209047
#	Creating user name:	WinNT
#	Creation time:	15. 06. 2019 19:10

#	Modifying user name:	WinNT
#	Modification time:	15. 06. 2019 19:10

#	Program:	/corina/corina34_cracker 3.40 0067  02.08.2006

@<TRIPOS>MOLECULE
ASD01209047
  60   64    0    0    0
SMALL
NO_CHARGES


@<TRIPOS>ATOM
   1 C1            -2.1054     1.3312    -0.8954 C.3     
   2 C2            -2.0284    -0.1866    -1.0869 C.3     
   3 C3            -1.6857    -0.8539     0.2465 C.3     
   4 C4            -1.4250    -2.3443     0.0188 C.3     
   5 C5            -0.8805    -2.9579     1.2830 C.2     
   6 N6             0.3552    -2.6330     1.7117 N.am    
   7 C7             0.8955    -3.2695     2.8286 C.ar    
   8 N8            -2.6784    -3.0091    -0.3462 N.pl3   
   9 C9            -2.8501    -3.8516    -1.4133 C.ar    
  10 C10           -4.1974    -4.2617    -1.3934 C.ar    
  11 C11           -4.8090    -3.6045    -0.2429 C.2     
  12 N12           -3.8902    -2.8904     0.3422 N.2     
  13 C13           -6.5152    -6.6274    -0.8399 C.3     
  14 O14           -1.5543    -3.7440     1.9145 O.2     
  15 C15           -2.0059    -4.3247    -2.4146 C.ar    
  16 C16           -2.4898    -5.1788    -3.3648 C.ar    
  17 C17           -3.8184    -5.5844    -3.3468 C.ar    
  18 C18           -4.6688    -5.1379    -2.3770 C.ar    
  19 C19           -7.8509    -7.3300    -0.5887 C.3     
  20 C20           -6.6171    -8.1480    -0.9753 C.3     
  21 C21           -3.3852    -0.6972    -1.5817 C.3     
  22 C22           -3.7559     0.0335    -2.8749 C.3     
  23 O23           -3.7797     1.4420    -2.6346 O.3     
  24 C24           -2.5256     1.9836    -2.2151 C.3     
  25 C25            0.0619    -3.9287     3.7299 C.ar    
  26 C26            0.6482    -4.5459     4.8245 C.ar    
  27 C27            2.0272    -4.4693     4.9550 C.ar    
  28 N28            2.7399    -3.8235     4.0530 N.ar    
  29 N29            2.2039    -3.2548     3.0348 N.ar    
  30 C30            2.7106    -5.1237     6.1279 C.3     
  31 S31           -6.3517    -5.6598    -2.3655 S.o2    
  32 O32           -6.4652    -6.5017    -3.5046 O.2     
  33 O33           -7.0928    -4.4510    -2.2712 O.2     
  34 H34           -2.8394     1.5643    -0.1240 H       
  35 H35           -1.1283     1.7107    -0.5964 H       
  36 H36           -1.2585    -0.4228    -1.8214 H       
  37 H37           -0.7939    -0.3891     0.6668 H       
  38 H38           -2.5192    -0.7324     0.9384 H       
  39 H39           -0.7006    -2.4675    -0.7862 H       
  40 H40            0.8688    -1.9565     1.2433 H       
  41 H41           -5.8384    -3.6973     0.0702 H       
  42 H42           -5.9831    -6.2334     0.0260 H       
  43 H43           -0.9710    -4.0168    -2.4402 H       
  44 H44           -1.8315    -5.5429    -4.1397 H       
  45 H45           -4.1816    -6.2602    -4.1070 H       
  46 H46           -8.1973    -7.3986     0.4425 H       
  47 H47           -8.6314    -7.2108    -1.3401 H       
  48 H48           -6.5859    -8.5669    -1.9811 H       
  49 H49           -6.1518    -8.7547    -0.1984 H       
  50 H50           -3.3234    -1.7684    -1.7735 H       
  51 H51           -4.1450    -0.5051    -0.8241 H       
  52 H52           -3.0173    -0.1915    -3.6442 H       
  53 H53           -4.7402    -0.2950    -3.2086 H       
  54 H54           -2.6235     3.0599    -2.0736 H       
  55 H55           -1.7708     1.7840    -2.9758 H       
  56 H56           -1.0074    -3.9578     3.5808 H       
  57 H57            0.0490    -5.0704     5.5540 H       
  58 H58            2.9748    -6.1489     5.8688 H       
  59 H59            3.6141    -4.5679     6.3785 H       
  60 H60            2.0371    -5.1277     6.9849 H       
@<TRIPOS>BOND
   1    1    2 1
   2    1   24 1
   3    1   34 1
   4    1   35 1
   5    2    3 1
   6    2   21 1
   7    2   36 1
   8    3    4 1
   9    3   37 1
  10    3   38 1
  11    4    5 1
  12    4    8 1
  13    4   39 1
  14    5    6 am
  15    5   14 2
  16    6    7 1
  17    6   40 1
  18    7   25 ar
  19    7   29 ar
  20    8    9 1
  21    8   12 1
  22    9   10 ar
  23    9   15 ar
  24   10   11 1
  25   10   18 ar
  26   11   12 2
  27   11   41 1
  28   13   19 1
  29   13   31 1
  30   13   20 1
  31   13   42 1
  32   15   16 ar
  33   15   43 1
  34   16   17 ar
  35   16   44 1
  36   17   18 ar
  37   17   45 1
  38   18   31 1
  39   19   20 1
  40   19   46 1
  41   19   47 1
  42   20   48 1
  43   20   49 1
  44   21   22 1
  45   21   50 1
  46   21   51 1
  47   22   23 1
  48   22   52 1
  49   22   53 1
  50   23   24 1
  51   24   54 1
  52   24   55 1
  53   25   26 ar
  54   25   56 1
  55   26   27 ar
  56   26   57 1
  57   27   28 ar
  58   27   30 1
  59   28   29 ar
  60   30   58 1
  61   30   59 1
  62   30   60 1
  63   31   32 2
  64   31   33 2

#	End of record

