#	Name: ASD08070329
#	Creating user name:	WinNT
#	Creation time:	15. 06. 2019 21:14

#	Modifying user name:	WinNT
#	Modification time:	15. 06. 2019 21:14

#	Program:	/corina/corina34_cracker 3.40 0067  02.08.2006

@<TRIPOS>MOLECULE
ASD08070329
  17   18    0    0    0
SMALL
NO_CHARGES


@<TRIPOS>ATOM
   1 S1            -0.0172     1.4168     0.0098 S.o2    
   2 O2             0.0021    -0.0041     0.0020 O.2     
   3 O3             1.1484     2.2295     0.0031 O.2     
   4 O4            -2.9626     2.9261    -1.3850 O.2     
   5 N5            -0.9843     1.9137    -1.2599 N.am    
   6 C6            -1.0160     1.9287     1.3801 C.ar    
   7 C7            -2.1418     2.5042     0.7768 C.ar    
   8 C8            -2.0692     2.4678    -0.6999 C.2     
   9 C9            -0.8784     1.8594     2.7378 C.ar    
  10 C10           -3.1404     3.0162     1.6221 C.ar    
  11 C11           -1.8749     2.3698     3.5574 C.ar    
  12 C12           -2.9979     2.9442     2.9893 C.ar    
  13 H13           -0.7985     1.8206    -2.2073 H       
  14 H14            0.0023     1.4088     3.1713 H       
  15 H15           -4.0245     3.4681     1.1971 H       
  16 H16           -1.7743     2.3193     4.6315 H       
  17 H17           -3.7733     3.3418     3.6273 H       
@<TRIPOS>BOND
   1    1    2 2
   2    1    3 2
   3    1    5 am
   4    1    6 1
   5    4    8 2
   6    5    8 am
   7    5   13 1
   8    6    7 ar
   9    6    9 ar
  10    7    8 1
  11    7   10 ar
  12    9   11 ar
  13    9   14 1
  14   10   12 ar
  15   10   15 1
  16   11   12 ar
  17   11   16 1
  18   12   17 1

#	End of record

