#	Name: ASD01814336
#	Creating user name:	WinNT
#	Creation time:	15. 06. 2019 19:32

#	Modifying user name:	WinNT
#	Modification time:	15. 06. 2019 19:32

#	Program:	/corina/corina34_cracker 3.40 0067  02.08.2006

@<TRIPOS>MOLECULE
ASD01814336
  65   70    0    0    0
SMALL
NO_CHARGES


@<TRIPOS>ATOM
   1 C1            -0.0168     1.3869     0.0097 C.ar    
   2 C2             0.0021    -0.0041     0.0020 C.ar    
   3 C3             1.1801    -0.6897    -0.0129 C.ar    
   4 C4             2.3948     0.0129    -0.0207 C.ar    
   5 C5             2.3717     1.4290    -0.0129 C.ar    
   6 C6             1.1455     2.1015     0.0024 C.ar    
   7 C7             3.6293    -0.6694    -0.0365 C.ar    
   8 C8             4.8031     0.0063    -0.0446 C.ar    
   9 C9             4.8359     1.4095    -0.0374 C.ar    
  10 C10            3.6406     2.1511    -0.0211 C.ar    
  11 C11            6.1026     2.1526    -0.0470 C.2     
  12 N12            6.0328     3.5041    -0.0399 N.am    
  13 C13            4.8302     4.1313    -0.0241 C.2     
  14 N14            3.6961     3.4935    -0.0158 N.2     
  15 C15            3.6424    -2.1763    -0.0442 C.3     
  16 O16            7.1745     1.5748    -0.0604 O.2     
  17 C17            7.2655     4.2957    -0.0490 C.3     
  18 C18            7.3178     5.1723     1.2039 C.3     
  19 C19            8.6052     5.9990     1.1945 C.3     
  20 C20            8.6317     6.8873    -0.0509 C.3     
  21 C21            8.5794     6.0107    -1.3038 C.3     
  22 C22            7.2920     5.1840    -1.2944 C.3     
  23 O23            7.2930     4.3426     2.3671 O.3     
  24 C24            3.5087    -2.6726    -1.4608 C.ar    
  25 C25            4.6324    -2.8913    -2.2319 C.ar    
  26 N26            4.5272    -3.3262    -3.4734 N.ar    
  27 C27            3.3491    -3.5689    -4.0265 C.ar    
  28 C28            2.1748    -3.3703    -3.3071 C.ar    
  29 C29            2.2537    -2.9201    -2.0018 C.ar    
  30 N30            3.2847    -4.0258    -5.3377 N.3     
  31 C31            4.6301    -4.1666    -5.9132 C.3     
  32 C32            4.5157    -4.7272    -7.3333 C.3     
  33 O33            3.6803    -3.8680    -8.1137 O.3     
  34 C34            2.3621    -3.7088    -7.5823 C.3     
  35 C35            2.4546    -3.1379    -6.1648 C.3     
  36 H36           -0.9630     1.9076     0.0169 H       
  37 H37           -0.9305    -0.5488     0.0083 H       
  38 H38            1.1786    -1.7697    -0.0183 H       
  39 H39            1.1188     3.1811     0.0081 H       
  40 H40            5.7317    -0.5451    -0.0563 H       
  41 H41            4.8132     5.2111    -0.0182 H       
  42 H42            4.5813    -2.5336     0.3789 H       
  43 H43            2.8098    -2.5499     0.5518 H       
  44 H44            8.1264     3.6273    -0.0610 H       
  45 H45            6.4569     5.8406     1.2159 H       
  46 H46            8.6425     6.6235     2.0871 H       
  47 H47            9.4662     5.3306     1.1825 H       
  48 H48            7.7708     7.5557    -0.0389 H       
  49 H49            9.5489     7.4763    -0.0577 H       
  50 H50            8.5983     6.6436    -2.1911 H       
  51 H51            9.4403     5.3423    -1.3159 H       
  52 H52            7.2547     4.5595    -2.1870 H       
  53 H53            6.4311     5.8523    -1.2824 H       
  54 H54            7.3237     4.8324     3.2003 H       
  55 H55            5.6104    -2.7037    -1.8138 H       
  56 H56            1.2149    -3.5686    -3.7606 H       
  57 H57            1.3593    -2.7568    -1.4190 H       
  58 H58            5.1164    -3.1916    -5.9449 H       
  59 H59            5.2191    -4.8480    -5.2993 H       
  60 H60            5.5065    -4.7798    -7.7847 H       
  61 H61            4.0784    -5.7250    -7.2966 H       
  62 H62            1.7952    -3.0248    -8.2139 H       
  63 H63            1.8621    -4.6769    -7.5529 H       
  64 H64            1.4556    -3.0683    -5.7345 H       
  65 H65            2.9061    -2.1464    -6.2005 H       
@<TRIPOS>BOND
   1    1    2 ar
   2    1    6 ar
   3    1   36 1
   4    2    3 ar
   5    2   37 1
   6    3    4 ar
   7    3   38 1
   8    4    5 ar
   9    4    7 ar
  10    5    6 ar
  11    5   10 ar
  12    6   39 1
  13    7    8 ar
  14    7   15 1
  15    8    9 ar
  16    8   40 1
  17    9   10 ar
  18    9   11 1
  19   10   14 1
  20   11   12 am
  21   11   16 2
  22   12   13 1
  23   12   17 1
  24   13   14 2
  25   13   41 1
  26   15   24 1
  27   15   42 1
  28   15   43 1
  29   17   18 1
  30   17   22 1
  31   17   44 1
  32   18   19 1
  33   18   23 1
  34   18   45 1
  35   19   20 1
  36   19   46 1
  37   19   47 1
  38   20   21 1
  39   20   48 1
  40   20   49 1
  41   21   22 1
  42   21   50 1
  43   21   51 1
  44   22   52 1
  45   22   53 1
  46   23   54 1
  47   24   25 ar
  48   24   29 ar
  49   25   26 ar
  50   25   55 1
  51   26   27 ar
  52   27   28 ar
  53   27   30 1
  54   28   29 ar
  55   28   56 1
  56   29   57 1
  57   30   31 1
  58   30   35 1
  59   31   32 1
  60   31   58 1
  61   31   59 1
  62   32   33 1
  63   32   60 1
  64   32   61 1
  65   33   34 1
  66   34   35 1
  67   34   62 1
  68   34   63 1
  69   35   64 1
  70   35   65 1

#	End of record

