#	Name: ASD08170157
#	Creating user name:	WinNT
#	Creation time:	15. 06. 2019 21:17

#	Modifying user name:	WinNT
#	Modification time:	15. 06. 2019 21:17

#	Program:	/corina/corina34_cracker 3.40 0067  02.08.2006

@<TRIPOS>MOLECULE
ASD08170157
  77   80    0    0    0
SMALL
NO_CHARGES


@<TRIPOS>ATOM
   1 Cl1            0.0000     0.0000     0.0000 Cl      
   2 H2             0.0000     1.3700     0.0000 H       
   3 Cl3            5.0000     6.3700     5.0000 Cl      
   4 H4             5.0000     7.7400     5.0000 H       
   5 C5            14.3095    24.2821    14.4022 C.3     
   6 C6            17.4821    27.0576    14.3868 C.3     
   7 C7            17.6339    28.5800    14.3935 C.3     
   8 C8            19.0974    28.9390    14.3815 C.2     
   9 C9            14.3300    22.7753    14.3939 C.2     
  10 S10           20.1215    29.1792    15.7975 S.3     
  11 C11           21.4442    29.5108    14.7607 C.2     
  12 N12           21.0406    29.4212    13.5293 N.2     
  13 N13           19.8307    29.1211    13.3294 N.2     
  14 S14           14.3305    21.7426    12.9638 S.3     
  15 N15           14.3560    22.0059    15.4355 N.2     
  16 N16           14.3702    20.7622    15.2189 N.2     
  17 C17           14.3595    20.3654    13.9821 C.2     
  18 N18           14.3718    19.0418    13.5553 N.am    
  19 C19           14.3973    18.0425    14.4593 C.2     
  20 O20           14.4096    18.2975    15.6450 O.2     
  21 N21           22.7359    29.8245    15.1696 N.am    
  22 C22           23.6933    30.0657    14.2521 C.2     
  23 C23           25.0930    30.4056    14.6952 C.3     
  24 O24           23.4284    30.0093    13.0699 O.2     
  25 C25           14.4105    16.6082    13.9969 C.3     
  26 C26           14.4388    15.6944    15.1949 C.2     
  27 C27           15.7449    24.8117    14.3913 C.3     
  28 C28           15.5289    15.1503    15.7586 C.2     
  29 S29           15.7203    26.6255    14.4013 S.3     
  30 C30           25.9631    30.6276    13.4849 C.2     
  31 C31           26.1068    31.8760    12.7321 C.ar    
  32 C32           26.7579    29.7203    12.8957 C.2     
  33 N33           27.3943    30.2841    11.8236 N.pl3   
  34 C34           27.0178    31.6023    11.6958 C.ar    
  35 C35           27.3544    32.6122    10.8000 C.ar    
  36 C36           26.7942    33.8632    10.9372 C.ar    
  37 C37           25.8955    34.1281    11.9617 C.ar    
  38 C38           25.5541    33.1523    12.8550 C.ar    
  39 C39           28.3388    29.5897    10.9449 C.3     
  40 N40           15.1647    14.3767    16.8268 N.pl3   
  41 C41           13.7967    14.4049    16.9804 C.ar    
  42 C42           13.2826    15.2364    15.9689 C.ar    
  43 C43           12.9219    13.8107    17.8845 C.ar    
  44 C44           11.5676    14.0373    17.7757 C.ar    
  45 C45           11.0646    14.8538    16.7718 C.ar    
  46 C46           11.9062    15.4530    15.8777 C.ar    
  47 C47           16.0921    13.6291    17.6796 C.3     
  48 H48           13.7824    24.6432    13.5191 H       
  49 H49           13.7994    24.6337    15.2990 H       
  50 H50           17.9488    26.6499    13.4901 H       
  51 H51           17.9658    26.6403    15.2700 H       
  52 H52           17.1501    28.9973    13.5103 H       
  53 H53           17.1671    28.9878    15.2902 H       
  54 H54           14.3619    18.8378    12.6071 H       
  55 H55           22.9479    29.8696    16.1151 H       
  56 H56           25.0727    31.3127    15.2993 H       
  57 H57           25.4964    29.5839    15.2869 H       
  58 H58           13.5153    16.4080    13.4082 H       
  59 H59           15.2949    16.4321    13.3846 H       
  60 H60           16.2721    24.4506    15.2744 H       
  61 H61           16.2551    24.4602    13.4945 H       
  62 H62           16.5430    15.3007    15.4190 H       
  63 H63           26.8775    28.6971    13.2199 H       
  64 H64           28.0529    32.4161    10.0000 H       
  65 H65           27.0572    34.6458    10.2411 H       
  66 H66           25.4656    35.1144    12.0554 H       
  67 H67           24.8542    33.3657    13.6494 H       
  68 H68           27.7966    29.1339    10.1165 H       
  69 H69           29.0646    30.3035    10.5552 H       
  70 H70           28.8579    28.8151    11.5094 H       
  71 H71           13.3034    13.1737    18.6687 H       
  72 H72           10.8901    13.5749    18.4783 H       
  73 H73           10.0000    15.0209    16.7003 H       
  74 H74           11.5078    16.0868    15.0993 H       
  75 H75           16.4088    14.2586    18.5112 H       
  76 H76           15.5939    12.7400    18.0661 H       
  77 H77           16.9636    13.3326    17.0960 H       
@<TRIPOS>BOND
   1    1    2 1
   2    3    4 1
   3    5    9 1
   4    5   27 1
   5    5   48 1
   6    5   49 1
   7    6    7 1
   8    6   29 1
   9    6   50 1
  10    6   51 1
  11    7    8 1
  12    7   52 1
  13    7   53 1
  14    8   10 1
  15    8   13 2
  16    9   14 1
  17    9   15 2
  18   10   11 1
  19   11   12 2
  20   11   21 1
  21   12   13 1
  22   14   17 1
  23   15   16 1
  24   16   17 2
  25   17   18 1
  26   18   19 am
  27   18   54 1
  28   19   20 2
  29   19   25 1
  30   21   22 am
  31   21   55 1
  32   22   23 1
  33   22   24 2
  34   23   30 1
  35   23   56 1
  36   23   57 1
  37   25   26 1
  38   25   58 1
  39   25   59 1
  40   26   28 2
  41   26   42 1
  42   27   29 1
  43   27   60 1
  44   27   61 1
  45   28   40 1
  46   28   62 1
  47   30   31 1
  48   30   32 2
  49   31   34 ar
  50   31   38 ar
  51   32   33 1
  52   32   63 1
  53   33   34 1
  54   33   39 1
  55   34   35 ar
  56   35   36 ar
  57   35   64 1
  58   36   37 ar
  59   36   65 1
  60   37   38 ar
  61   37   66 1
  62   38   67 1
  63   39   68 1
  64   39   69 1
  65   39   70 1
  66   40   41 1
  67   40   47 1
  68   41   42 ar
  69   41   43 ar
  70   42   46 ar
  71   43   44 ar
  72   43   71 1
  73   44   45 ar
  74   44   72 1
  75   45   46 ar
  76   45   73 1
  77   46   74 1
  78   47   75 1
  79   47   76 1
  80   47   77 1

#	End of record

