#	Name: ASD01708025
#	Creating user name:	WinNT
#	Creation time:	15. 06. 2019 19:22

#	Modifying user name:	WinNT
#	Modification time:	15. 06. 2019 19:22

#	Program:	/corina/corina34_cracker 3.40 0067  02.08.2006

@<TRIPOS>MOLECULE
ASD01708025
  66   69    0    0    0
SMALL
NO_CHARGES


@<TRIPOS>ATOM
   1 C1            -0.0251     1.3652    -0.0014 C.ar    
   2 C2            -0.0020    -0.0181    -0.0125 C.ar    
   3 C3             1.1560     2.0858    -0.0023 C.ar    
   4 C4             2.3712     1.4287    -0.0143 C.ar    
   5 C5             2.4049     0.0278    -0.0256 C.ar    
   6 C6             1.2033    -0.6931    -0.0241 C.ar    
   7 C7             3.6924    -0.6807    -0.0389 C.2     
   8 C8             3.9267    -1.6715     0.8474 C.2     
   9 C9             5.2079    -2.3766     0.8342 C.2     
  10 N10            5.4821    -3.2940     1.7827 N.am    
  11 O11            6.0266    -2.1350    -0.0335 O.2     
  12 C12            6.7115    -4.1026     1.7337 C.3     
  13 C13            4.5707    -3.5229     2.9089 C.3     
  14 C14            5.3609    -3.6237     4.1901 C.ar    
  15 C15            6.7347    -3.7340     4.2009 C.ar    
  16 C16            7.5614    -3.7382     2.9498 C.3     
  17 C17            4.6539    -3.6031     5.3865 C.ar    
  18 C18            5.3099    -3.6990     6.5944 C.ar    
  19 C19            6.7023    -3.8195     6.6146 C.ar    
  20 C20            7.4067    -3.8362     5.4118 C.ar    
  21 Cl21           9.1361    -3.9862     5.4277 Cl      
  22 Cl22           4.4134    -3.6700     8.0807 Cl      
  23 C23            7.4215    -3.9283     7.9000 C.2     
  24 N24            7.8495    -2.8158     8.5290 N.am    
  25 O25            7.6273    -5.0214     8.3908 O.2     
  26 C26            8.5629    -2.9237     9.8040 C.3     
  27 C27            7.5666    -3.0036    10.9318 C.2     
  28 O28            7.9950    -3.1083    12.1996 O.3     
  29 O29            6.3822    -2.9735    10.6949 O.2     
  30 C30            9.4531    -1.6943     9.9960 C.3     
  31 C31           10.5266    -1.6812     8.9384 C.ar    
  32 C32           10.3014    -1.0432     7.7327 C.ar    
  33 C33           11.2860    -1.0313     6.7628 C.ar    
  34 S34           10.9988    -0.2186     5.2259 S.o2    
  35 C35           12.4963    -1.6566     6.9985 C.ar    
  36 O36           11.8546    -0.8882     4.3102 O.2     
  37 F37            3.5232     2.1344    -0.0156 F       
  38 F38            1.2234    -2.0439    -0.0345 F       
  39 C39           11.7383    -2.3023     9.1760 C.ar    
  40 C40           12.7215    -2.2941     8.2040 C.ar    
  41 O41            9.5870    -0.2540     5.0692 O.2     
  42 C42           11.5664     1.4823     5.5004 C.3     
  43 H43           -0.9712     1.8859     0.0035 H       
  44 H44           -0.9291    -0.5719    -0.0117 H       
  45 H45            1.1279     3.1654     0.0061 H       
  46 H46            4.4511    -0.4087    -0.7578 H       
  47 H47            3.1680    -1.9435     1.5663 H       
  48 H48            6.4576    -5.1622     1.7652 H       
  49 H49            7.2621    -3.8816     0.8193 H       
  50 H50            3.8675    -2.6932     2.9808 H       
  51 H51            4.0211    -4.4503     2.7479 H       
  52 H52            8.3628    -4.4698     3.0523 H       
  53 H53            7.9962    -2.7494     2.8043 H       
  54 H54            3.5780    -3.5104     5.3692 H       
  55 H55            7.6853    -1.9437     8.1374 H       
  56 H56            9.1801    -3.8222     9.8001 H       
  57 H57            7.3186    -3.1564    12.8890 H       
  58 H58            8.8486    -0.7912     9.9113 H       
  59 H59            9.9153    -1.7308    10.9825 H       
  60 H60            9.3561    -0.5544     7.5487 H       
  61 H61           13.2656    -1.6473     6.2406 H       
  62 H62           11.9158    -2.7969    10.1195 H       
  63 H63           13.6683    -2.7793     8.3896 H       
  64 H64           12.6237     1.4743     5.7651 H       
  65 H65           11.4242     2.0642     4.5897 H       
  66 H66           10.9922     1.9306     6.3112 H       
@<TRIPOS>BOND
   1    1    2 ar
   2    1    3 ar
   3    1   43 1
   4    2    6 ar
   5    2   44 1
   6    3    4 ar
   7    3   45 1
   8    4    5 ar
   9    4   37 1
  10    5    6 ar
  11    5    7 1
  12    6   38 1
  13    7    8 2
  14    7   46 1
  15    8    9 1
  16    8   47 1
  17    9   10 am
  18    9   11 2
  19   10   12 1
  20   10   13 1
  21   12   16 1
  22   12   48 1
  23   12   49 1
  24   13   14 1
  25   13   50 1
  26   13   51 1
  27   14   15 ar
  28   14   17 ar
  29   15   16 1
  30   15   20 ar
  31   16   52 1
  32   16   53 1
  33   17   18 ar
  34   17   54 1
  35   18   19 ar
  36   18   22 1
  37   19   20 ar
  38   19   23 1
  39   20   21 1
  40   23   24 am
  41   23   25 2
  42   24   26 1
  43   24   55 1
  44   26   27 1
  45   26   30 1
  46   26   56 1
  47   27   28 1
  48   27   29 2
  49   28   57 1
  50   30   31 1
  51   30   58 1
  52   30   59 1
  53   31   32 ar
  54   31   39 ar
  55   32   33 ar
  56   32   60 1
  57   33   34 1
  58   33   35 ar
  59   34   41 2
  60   34   42 1
  61   34   36 2
  62   35   40 ar
  63   35   61 1
  64   39   40 ar
  65   39   62 1
  66   40   63 1
  67   42   64 1
  68   42   65 1
  69   42   66 1

#	End of record

