#	Name: ASD01900344
#	Creating user name:	WinNT
#	Creation time:	15. 06. 2019 19:51

#	Modifying user name:	WinNT
#	Modification time:	15. 06. 2019 19:51

#	Program:	/corina/corina34_cracker 3.40 0067  02.08.2006

@<TRIPOS>MOLECULE
ASD01900344
  46   49    0    0    0
SMALL
NO_CHARGES


@<TRIPOS>ATOM
   1 C1            -0.0168     1.3891     0.0097 C.ar    
   2 C2             0.0021    -0.0041     0.0020 C.ar    
   3 C3             1.2224    -0.6606    -0.0132 C.ar    
   4 C4             2.3820     0.0992    -0.0202 C.ar    
   5 C5             2.2884     1.4815    -0.0119 C.ar    
   6 N6             1.1169     2.0792     0.0026 N.ar    
   7 C7            -1.3131     2.1060     0.0197 C.2     
   8 O8            -2.3544     1.4790     0.0212 O.2     
   9 N9            -1.3378     3.4535     0.0271 N.am    
  10 N10           -4.0866     5.7298     0.0525 N.am    
  11 C11           -2.7427     5.4762     0.0448 C.2     
  12 C12           -2.5683     4.1341     0.0367 C.2     
  13 C13           -3.8517     3.5436     0.0395 C.2     
  14 C14           -4.7569     4.5428     0.0492 C.2     
  15 S15           -4.7846     7.2314     0.0702 S.o2    
  16 O16           -6.0849     7.0631     0.6180 O.2     
  17 O17           -3.8183     8.1166     0.6197 O.2     
  18 O18           -3.1881     9.4944    -4.2015 O.3     
  19 C19           -4.1875     8.8059    -3.5846 C.ar    
  20 C20           -5.3663     8.4897    -4.2499 C.ar    
  21 N21           -5.5823     8.8536    -5.5829 N.3     
  22 C22           -4.7015     9.9485    -6.0062 C.3     
  23 C23           -3.2585     9.5894    -5.6280 C.3     
  24 C24           -6.3650     7.7899    -3.5807 C.ar    
  25 C25           -6.1853     7.4085    -2.2656 C.ar    
  26 C26           -5.0109     7.7211    -1.6072 C.ar    
  27 C27           -4.0142     8.4182    -2.2638 C.ar    
  28 C28           -6.9926     9.1931    -5.8141 C.3     
  29 H29           -0.9212    -0.5644     0.0082 H       
  30 H30            1.2690    -1.7395    -0.0191 H       
  31 H31            3.3489    -0.3818    -0.0317 H       
  32 H32            3.1898     2.0763    -0.0170 H       
  33 H33           -0.5068     3.9539     0.0259 H       
  34 H34           -1.9574     6.2177     0.0448 H       
  35 H35           -4.0681     2.4856     0.0351 H       
  36 H36           -5.8302     4.4231     0.0537 H       
  37 H37           -4.7748    10.0806    -7.0857 H       
  38 H38           -4.9938    10.8693    -5.5015 H       
  39 H39           -2.5807    10.3671    -5.9798 H       
  40 H40           -2.9873     8.6330    -6.0751 H       
  41 H41           -7.2843     7.5440    -4.0914 H       
  42 H42           -6.9640     6.8657    -1.7505 H       
  43 H43           -3.0973     8.6610    -1.7474 H       
  44 H44           -7.2749    10.0287    -5.1736 H       
  45 H45           -7.1327     9.4723    -6.8584 H       
  46 H46           -7.6169     8.3303    -5.5818 H       
@<TRIPOS>BOND
   1    1    2 ar
   2    1    6 ar
   3    1    7 1
   4    2    3 ar
   5    2   29 1
   6    3    4 ar
   7    3   30 1
   8    4    5 ar
   9    4   31 1
  10    5    6 ar
  11    5   32 1
  12    7    8 2
  13    7    9 am
  14    9   12 1
  15    9   33 1
  16   10   11 1
  17   10   14 1
  18   10   15 am
  19   11   12 2
  20   11   34 1
  21   12   13 1
  22   13   14 2
  23   13   35 1
  24   14   36 1
  25   15   16 2
  26   15   17 2
  27   15   26 1
  28   18   19 1
  29   18   23 1
  30   19   20 ar
  31   19   27 ar
  32   20   21 1
  33   20   24 ar
  34   21   22 1
  35   21   28 1
  36   22   23 1
  37   22   37 1
  38   22   38 1
  39   23   39 1
  40   23   40 1
  41   24   25 ar
  42   24   41 1
  43   25   26 ar
  44   25   42 1
  45   26   27 ar
  46   27   43 1
  47   28   44 1
  48   28   45 1
  49   28   46 1

#	End of record

