#	Name: ASD09116004
#	Creating user name:	WinNT
#	Creation time:	15. 06. 2019 21:20

#	Modifying user name:	WinNT
#	Modification time:	15. 06. 2019 21:20

#	Program:	/corina/corina34_cracker 3.40 0067  02.08.2006

@<TRIPOS>MOLECULE
ASD09116004
  63   69    0    0    0
SMALL
NO_CHARGES


@<TRIPOS>ATOM
   1 C1            -0.2412     1.6023     0.2690 C.ar    
   2 C2            -0.2612     0.2251     0.1819 C.ar    
   3 C3             0.9318    -0.4778     0.0230 C.ar    
   4 C4             2.1390     0.2154    -0.0470 C.ar    
   5 C5             2.1469     1.5926     0.0413 C.ar    
   6 C6             0.9599     2.2850     0.1990 C.ar    
   7 C7             0.9169    -1.9578    -0.0708 C.ar    
   8 C8             0.2312    -2.7426     0.8659 C.ar    
   9 C9             0.2448    -4.1242     0.7378 C.ar    
  10 N10            0.8964    -4.7215    -0.2565 N.ar    
  11 C11            1.5430    -4.0216    -1.1431 C.ar    
  12 C12            1.5761    -2.6247    -1.0929 C.ar    
  13 C13            2.3209    -4.5856    -2.3181 C.3     
  14 C14            1.7222    -3.9334    -3.5813 C.3     
  15 C15            1.7329    -2.4115    -3.4210 C.3     
  16 N16            2.3154    -2.0326    -2.1229 N.3     
  17 N17           -0.4405    -4.9053     1.6739 N.pl3   
  18 N18           -0.7535    -4.5518     2.9963 N.2     
  19 C19           -1.3980    -5.5662     3.5213 C.2     
  20 N20           -1.5070    -6.5349     2.6048 N.2     
  21 C21           -0.9382    -6.1490     1.4826 C.2     
  22 N22           -1.8899    -5.6260     4.8257 N.pl3   
  23 C23           -2.6599    -6.7190     5.2328 C.ar    
  24 C24           -2.6675    -7.1252     6.5631 C.ar    
  25 C25           -3.4373    -7.4178     4.3178 C.ar    
  26 N26           -4.1627    -8.4436     4.7047 N.ar    
  27 C27           -4.1937    -8.8608     5.9640 C.ar    
  28 C28           -3.4477    -8.2169     6.9261 C.ar    
  29 C29           -5.0781   -10.0385     6.2852 C.3     
  30 C30           -4.6803   -10.6598     7.6223 C.3     
  31 C31           -4.6208    -9.5476     8.6760 C.3     
  32 C32           -3.4254    -8.6508     8.3671 C.3     
  33 N33           -0.8562    -6.8871     0.3168 N.pl3   
  34 C34            3.7091    -2.5150    -2.0612 C.3     
  35 C35            3.7575    -4.0403    -2.1831 C.3     
  36 H36           -1.1654     2.1483     0.3877 H       
  37 H37           -1.1994    -0.3069     0.2371 H       
  38 H38            3.0664    -0.3242    -0.1698 H       
  39 H39            3.0817     2.1308    -0.0128 H       
  40 H40            0.9708     3.3628     0.2677 H       
  41 H41           -0.3028    -2.2763     1.6806 H       
  42 H42            2.2820    -5.6742    -2.3563 H       
  43 H43            2.3174    -4.2115    -4.4511 H       
  44 H44            0.6969    -4.2775    -3.7171 H       
  45 H45            2.3228    -1.9694    -4.2239 H       
  46 H46            0.7110    -2.0367    -3.4778 H       
  47 H47           -1.6974    -4.9089     5.4499 H       
  48 H48           -2.0774    -6.6019     7.3009 H       
  49 H49           -3.4461    -7.1158     3.2809 H       
  50 H50           -6.1148    -9.7058     6.3378 H       
  51 H51           -4.9808   -10.7864     5.4983 H       
  52 H52           -5.4215   -11.4031     7.9158 H       
  53 H53           -3.7014   -11.1304     7.5308 H       
  54 H54           -5.5367    -8.9578     8.6393 H       
  55 H55           -4.5056    -9.9865     9.6670 H       
  56 H56           -2.5042    -9.2005     8.5604 H       
  57 H57           -3.4602    -7.7713     9.0099 H       
  58 H58           -1.2398    -7.7773     0.2783 H       
  59 H59           -0.4151    -6.5150    -0.4629 H       
  60 H60            4.2794    -2.0726    -2.8781 H       
  61 H61            4.1516    -2.2158    -1.1110 H       
  62 H62            4.2244    -4.4625    -1.2932 H       
  63 H63            4.3361    -4.3180    -3.0641 H       
@<TRIPOS>BOND
   1    1    2 ar
   2    1    6 ar
   3    1   36 1
   4    2    3 ar
   5    2   37 1
   6    3    4 ar
   7    3    7 1
   8    4    5 ar
   9    4   38 1
  10    5    6 ar
  11    5   39 1
  12    6   40 1
  13    7    8 ar
  14    7   12 ar
  15    8    9 ar
  16    8   41 1
  17    9   10 ar
  18    9   17 1
  19   10   11 ar
  20   11   12 ar
  21   11   13 1
  22   12   16 1
  23   13   14 1
  24   13   35 1
  25   13   42 1
  26   14   15 1
  27   14   43 1
  28   14   44 1
  29   15   16 1
  30   15   45 1
  31   15   46 1
  32   16   34 1
  33   17   18 1
  34   17   21 1
  35   18   19 2
  36   19   20 1
  37   19   22 1
  38   20   21 2
  39   21   33 1
  40   22   23 1
  41   22   47 1
  42   23   24 ar
  43   23   25 ar
  44   24   28 ar
  45   24   48 1
  46   25   26 ar
  47   25   49 1
  48   26   27 ar
  49   27   28 ar
  50   27   29 1
  51   28   32 1
  52   29   30 1
  53   29   50 1
  54   29   51 1
  55   30   31 1
  56   30   52 1
  57   30   53 1
  58   31   32 1
  59   31   54 1
  60   31   55 1
  61   32   56 1
  62   32   57 1
  63   33   58 1
  64   33   59 1
  65   34   35 1
  66   34   60 1
  67   34   61 1
  68   35   62 1
  69   35   63 1

#	End of record

