#	Name: ASD01903306
#	Creating user name:	WinNT
#	Creation time:	15. 06. 2019 19:54

#	Modifying user name:	WinNT
#	Modification time:	15. 06. 2019 19:54

#	Program:	/corina/corina34_cracker 3.40 0067  02.08.2006

@<TRIPOS>MOLECULE
ASD01903306
  30   33    0    0    0
SMALL
NO_CHARGES


@<TRIPOS>ATOM
   1 N1            -0.0111     0.9658     0.0074 N.pl3   
   2 H2             0.0456    -0.0025     0.0035 H       
   3 C3             1.1474     1.7285    -0.0089 C.2     
   4 C4            -1.2546     1.5898     0.0234 C.ar    
   5 N5            -1.3256     2.9085     0.1245 N.ar    
   6 C6            -2.4861     3.5398     0.1428 C.ar    
   7 C7            -3.6757     2.8380     0.0568 C.ar    
   8 C8            -3.6421     1.4550    -0.0503 C.ar    
   9 C9            -2.4109     0.8235    -0.0726 C.ar    
  10 S10            2.7862     1.0917     0.0954 S.3     
  11 C11            3.4310     2.7220     0.0037 C.2     
  12 C12            2.3838     3.5916    -0.1091 C.2     
  13 N13            1.1923     3.0213    -0.1089 N.2     
  14 C14            4.8753     3.1451     0.0516 C.3     
  15 C15            5.1137     4.4147    -0.7672 C.3     
  16 C16            4.0098     5.4114    -0.5430 C.2     
  17 C17            2.7179     5.0421    -0.2442 C.2     
  18 N18            4.0337     6.7504    -0.5828 N.pl3   
  19 N19            2.7367     7.2212    -0.3212 N.2     
  20 C20            1.9487     6.1898    -0.1197 C.2     
  21 F21           -2.5117     4.8865     0.2473 F       
  22 H22           -4.6204     3.3613     0.0732 H       
  23 H23           -4.5565     0.8844    -0.1185 H       
  24 H24           -2.3492    -0.2516    -0.1551 H       
  25 H25            5.1580     3.3309     1.0878 H       
  26 H26            5.4952     2.3421    -0.3471 H       
  27 H27            6.0638     4.8592    -0.4709 H       
  28 H28            5.1542     4.1565    -1.8254 H       
  29 H29            4.8129     7.3001    -0.7610 H       
  30 H30            0.8925     6.2283     0.1027 H       
@<TRIPOS>BOND
   1    1    2 1
   2    1    3 1
   3    1    4 1
   4    3   10 1
   5    3   13 2
   6    4    5 ar
   7    4    9 ar
   8    5    6 ar
   9    6    7 ar
  10    6   21 1
  11    7    8 ar
  12    7   22 1
  13    8    9 ar
  14    8   23 1
  15    9   24 1
  16   10   11 1
  17   11   12 2
  18   11   14 1
  19   12   13 1
  20   12   17 1
  21   14   15 1
  22   14   25 1
  23   14   26 1
  24   15   16 1
  25   15   27 1
  26   15   28 1
  27   16   17 2
  28   16   18 1
  29   17   20 1
  30   18   19 1
  31   18   29 1
  32   19   20 2
  33   20   30 1

#	End of record

