#	Name: ASD01880990
#	Creating user name:	WinNT
#	Creation time:	15. 06. 2019 19:41

#	Modifying user name:	WinNT
#	Modification time:	15. 06. 2019 19:41

#	Program:	/corina/corina34_cracker 3.40 0067  02.08.2006

@<TRIPOS>MOLECULE
ASD01880990
  45   48    0    0    0
SMALL
NO_CHARGES


@<TRIPOS>ATOM
   1 N1            -0.0322     1.2637    -0.1614 N.ar    
   2 C2             0.0465    -0.0498    -0.2000 C.ar    
   3 N3             1.1925    -0.6839    -0.0490 N.ar    
   4 C4             2.3208    -0.0178     0.1495 C.ar    
   5 C5             2.2879     1.3667     0.1979 C.ar    
   6 C6             1.0571     2.0052     0.0341 C.ar    
   7 C7             3.5478     2.1625     0.4221 C.3     
   8 O8             4.2294     2.3358    -0.8219 O.3     
   9 C9             5.3917     3.0360    -0.7953 C.ar    
  10 C10            6.1062     3.2416    -1.9719 C.ar    
  11 C11            7.2814     3.9501    -1.9449 C.ar    
  12 C12            7.7680     4.4687    -0.7400 C.ar    
  13 C13            7.0463     4.2595     0.4400 C.ar    
  14 C14            5.8637     3.5513     0.4052 C.ar    
  15 C15            8.2745     4.3442    -3.0097 C.3     
  16 N16            9.3276     5.1038    -2.3262 N.am    
  17 C17            9.0310     5.1730    -1.0171 C.2     
  18 O18            9.7092     5.7374    -0.1805 O.2     
  19 Cl19           3.8209    -0.8688     0.3469 Cl      
  20 Cl20           7.6354     4.8953     1.9442 Cl      
  21 C21            0.9640     3.4848     0.0764 C.ar    
  22 C22            1.8940     4.2641    -0.6094 C.ar    
  23 C23            1.8022     5.6405    -0.5668 C.ar    
  24 C24            0.7900     6.2468     0.1551 C.ar    
  25 C25           -0.1358     5.4784     0.8377 C.ar    
  26 C26           -0.0572     4.1011     0.7975 C.ar    
  27 C27           10.1868     7.1166    -3.4180 C.3     
  28 C28           10.5079     5.6907    -2.9656 C.3     
  29 H29           -0.8538    -0.6246    -0.3597 H       
  30 H30            3.2926     3.1382     0.8355 H       
  31 H31            4.1945     1.6302     1.1196 H       
  32 H32            5.7364     2.8437    -2.9054 H       
  33 H33            5.3062     3.3900     1.3160 H       
  34 H34            8.6970     3.4542    -3.4759 H       
  35 H35            7.7904     4.9678    -3.7613 H       
  36 H36            2.6852     3.7918    -1.1728 H       
  37 H37            2.5223     6.2454    -1.0979 H       
  38 H38            0.7224     7.3242     0.1863 H       
  39 H39           -0.9240     5.9570     1.3998 H       
  40 H40           -0.7807     3.5021     1.3305 H       
  41 H41           11.0649     7.5532    -3.8937 H       
  42 H42            9.3612     7.0948    -4.1294 H       
  43 H43            9.9055     7.7175    -2.5532 H       
  44 H44           11.3334     5.7125    -2.2542 H       
  45 H45           10.7892     5.0898    -3.8304 H       
@<TRIPOS>BOND
   1    1    2 ar
   2    1    6 ar
   3    2    3 ar
   4    2   29 1
   5    3    4 ar
   6    4    5 ar
   7    4   19 1
   8    5    6 ar
   9    5    7 1
  10    6   21 1
  11    7    8 1
  12    7   30 1
  13    7   31 1
  14    8    9 1
  15    9   10 ar
  16    9   14 ar
  17   10   11 ar
  18   10   32 1
  19   11   12 ar
  20   11   15 1
  21   12   13 ar
  22   12   17 1
  23   13   14 ar
  24   13   20 1
  25   14   33 1
  26   15   16 1
  27   15   34 1
  28   15   35 1
  29   16   17 am
  30   16   28 1
  31   17   18 2
  32   21   22 ar
  33   21   26 ar
  34   22   23 ar
  35   22   36 1
  36   23   24 ar
  37   23   37 1
  38   24   25 ar
  39   24   38 1
  40   25   26 ar
  41   25   39 1
  42   26   40 1
  43   27   28 1
  44   27   41 1
  45   27   42 1
  46   27   43 1
  47   28   44 1
  48   28   45 1

#	End of record

