#	Name: ASD04880685
#	Creating user name:	WinNT
#	Creation time:	15. 06. 2019 20:53

#	Modifying user name:	WinNT
#	Modification time:	15. 06. 2019 20:53

#	Program:	/corina/corina34_cracker 3.40 0067  02.08.2006

@<TRIPOS>MOLECULE
ASD04880685
  48   50    0    0    0
SMALL
NO_CHARGES


@<TRIPOS>ATOM
   1 C1            -0.0166     1.3747     0.0096 C.ar    
   2 C2             0.0021    -0.0041     0.0020 C.ar    
   3 C3             1.2109    -0.6847    -0.0127 C.ar    
   4 C4             2.4119     0.0214    -0.0204 C.ar    
   5 C5             2.4012     1.4037    -0.0133 C.ar    
   6 C6             1.1839     2.0895     0.0020 C.ar    
   7 O7             1.2236    -2.0439    -0.0192 O.3     
   8 C8            -0.0435    -2.7046    -0.0103 C.3     
   9 N9             2.2095     4.3196     0.0037 N.2     
  10 N10            1.9243     5.6834     0.0131 N.am    
  11 C11            0.4639     5.8640     0.0280 C.3     
  12 C12           -0.0789     4.4212     0.0262 C.3     
  13 C13            1.1663     3.5636     0.0101 C.2     
  14 C14            2.8369     6.6752     0.0095 C.2     
  15 C15            4.3074     6.3460    -0.0063 C.3     
  16 O16            2.4745     7.8329     0.0190 O.2     
  17 C17            4.6541     5.6570    -1.3010 C.ar    
  18 O18            5.0666     7.5510     0.1102 O.3     
  19 C19            4.6811     4.2763    -1.3632 C.ar    
  20 C20            4.9990     3.6438    -2.5503 C.ar    
  21 C21            5.2901     4.3929    -3.6765 C.ar    
  22 C22            5.2629     5.7747    -3.6136 C.ar    
  23 C23            4.9393     6.4060    -2.4273 C.ar    
  24 O24            3.5948    -0.6493    -0.0344 O.3     
  25 C25            4.7871     0.1384    -0.0416 C.3     
  26 C26            6.3269     7.3832     0.7625 C.3     
  27 Cl27           5.6900     3.5993    -5.1678 Cl      
  28 H28           -0.9591     1.9020     0.0169 H       
  29 H29           -0.9265    -0.5555     0.0079 H       
  30 H30            3.3315     1.9522    -0.0189 H       
  31 H31            0.1094    -3.7838    -0.0168 H       
  32 H32           -0.5947    -2.4212     0.8864 H       
  33 H33           -0.6116    -2.4128    -0.8935 H       
  34 H34            0.1517     6.3902     0.9301 H       
  35 H35            0.1345     6.3989    -0.8628 H       
  36 H36           -0.6624     4.2311     0.9270 H       
  37 H37           -0.6796     4.2398    -0.8650 H       
  38 H38            4.5412     5.6870     0.8299 H       
  39 H39            4.4542     3.6917    -0.4839 H       
  40 H40            5.0205     2.5651    -2.5987 H       
  41 H41            5.4900     6.3600    -4.4924 H       
  42 H42            4.9137     7.4846    -2.3792 H       
  43 H43            5.6567    -0.5188    -0.0527 H       
  44 H44            4.7989     0.7716    -0.9287 H       
  45 H45            4.8152     0.7632     0.8511 H       
  46 H46            6.9346     6.6732     0.2015 H       
  47 H47            6.8414     8.3429     0.8111 H       
  48 H48            6.1660     7.0056     1.7722 H       
@<TRIPOS>BOND
   1    1    2 ar
   2    1    6 ar
   3    1   28 1
   4    2    3 ar
   5    2   29 1
   6    3    4 ar
   7    3    7 1
   8    4    5 ar
   9    4   24 1
  10    5    6 ar
  11    5   30 1
  12    6   13 1
  13    7    8 1
  14    8   31 1
  15    8   32 1
  16    8   33 1
  17    9   10 1
  18    9   13 2
  19   10   11 1
  20   10   14 am
  21   11   12 1
  22   11   34 1
  23   11   35 1
  24   12   13 1
  25   12   36 1
  26   12   37 1
  27   14   15 1
  28   14   16 2
  29   15   17 1
  30   15   18 1
  31   15   38 1
  32   17   19 ar
  33   17   23 ar
  34   18   26 1
  35   19   20 ar
  36   19   39 1
  37   20   21 ar
  38   20   40 1
  39   21   22 ar
  40   21   27 1
  41   22   23 ar
  42   22   41 1
  43   23   42 1
  44   24   25 1
  45   25   43 1
  46   25   44 1
  47   25   45 1
  48   26   46 1
  49   26   47 1
  50   26   48 1

#	End of record

