#	Name: ASD06600012
#	Creating user name:	WinNT
#	Creation time:	15. 06. 2019 21:06

#	Modifying user name:	WinNT
#	Modification time:	15. 06. 2019 21:06

#	Program:	/corina/corina34_cracker 3.40 0067  02.08.2006

@<TRIPOS>MOLECULE
ASD06600012
 243  246    0    0    0
SMALL
NO_CHARGES


@<TRIPOS>ATOM
   1 C1            -0.3263     4.0758     0.8299 C.2     
   2 O2             0.0525     2.9369     0.6558 O.2     
   3 N3             2.0111     4.6109     1.2029 N.am    
   4 C4             0.6781     5.1855     1.0051 C.3     
   5 C5             0.6840     6.0698    -0.2434 C.3     
   6 C6             1.6171     7.2616    -0.0198 C.3     
   7 C7             1.1745     5.2560    -1.4425 C.3     
   8 C8            -3.8986     3.9160     0.0707 C.2     
   9 O9            -3.9874     5.1211    -0.0330 O.2     
  10 N10           -1.6456     4.3498     0.8612 N.am    
  11 C11           -2.6199     3.2949     0.5708 C.3     
  12 C12           -2.9044     2.4984     1.8458 C.3     
  13 C13           -1.6533     1.7777     2.2775 C.2     
  14 C14           -1.0669     1.8652     3.4867 C.2     
  15 N15            0.0351     1.0540     3.4521 N.pl3   
  16 C16            0.0838     0.4987     2.2221 C.2     
  17 N17           -0.9319     0.9322     1.5267 N.2     
  18 C18           -7.3391     2.8055    -0.4703 C.2     
  19 O19           -7.1416     1.7426     0.0794 O.2     
  20 N20           -4.9436     3.1323    -0.2614 N.am    
  21 C21           -6.1867     3.7361    -0.7476 C.3     
  22 C22           -6.0797     3.9806    -2.2542 C.3     
  23 C23          -10.8224     2.5226    -1.5425 C.2     
  24 O24          -10.7447     3.4652    -2.3016 O.2     
  25 N25           -8.5894     3.1545    -0.8331 N.am    
  26 C26           -9.7097     2.2498    -0.5634 C.3     
  27 C27          -10.2173     2.4774     0.8619 C.3     
  28 C28           -9.1401     2.0506     1.8611 C.3     
  29 C29          -10.5367     3.9606     1.0588 C.3     
  30 C30          -14.2919     1.4254    -1.8913 C.2     
  31 O31          -14.2458     0.7702    -0.8718 O.2     
  32 N32          -11.9039     1.7190    -1.5745 N.am    
  33 C33          -13.0361     2.0487    -2.4438 C.3     
  34 C34          -12.7738     1.5067    -3.8504 C.3     
  35 C35          -11.5894     2.2194    -4.4506 C.2     
  36 C36          -10.4823     1.6350    -4.9469 C.2     
  37 N37           -9.6667     2.6419    -5.3879 N.pl3   
  38 C38          -10.3042     3.8074    -5.1456 C.2     
  39 N39          -11.4557     3.5468    -4.5895 N.2     
  40 C40          -17.6781     0.7825    -3.1094 C.2     
  41 O41          -17.3926     1.1088    -4.2420 O.2     
  42 N42          -15.4663     1.5960    -2.5302 N.am    
  43 C43          -16.6872     0.9900    -1.9931 C.3     
  44 C44          -17.2945     1.9162    -0.9375 C.3     
  45 C45          -21.2413     0.0080    -3.3681 C.2     
  46 O46          -21.4148     0.1453    -2.1756 O.2     
  47 N47          -18.8815     0.2345    -2.8490 N.am    
  48 C48          -19.8449     0.0328    -3.9341 C.3     
  49 C49          -19.5544    -1.2966    -4.6335 C.3     
  50 C50          -18.2067    -1.2274    -5.3044 C.ar    
  51 C51          -17.0713    -1.6076    -4.6131 C.ar    
  52 C52          -15.8347    -1.5446    -5.2258 C.ar    
  53 C53          -15.7328    -1.0998    -6.5359 C.ar    
  54 O54          -14.5176    -1.0373    -7.1410 O.3     
  55 C55          -16.8737    -0.7192    -7.2275 C.ar    
  56 C56          -18.1085    -0.7890    -6.6120 C.ar    
  57 C57          -24.5559    -0.9740    -4.5564 C.2     
  58 O58          -24.1082    -1.4638    -5.5715 O.2     
  59 N59          -22.2974    -0.1667    -4.1870 N.am    
  60 C60          -23.6549    -0.1907    -3.6367 C.3     
  61 C61          -24.1783     1.2411    -3.5076 C.3     
  62 C62          -23.3380     2.0005    -2.4790 C.3     
  63 C63          -23.8615     3.4324    -2.3499 C.3     
  64 N64          -23.0569     4.1595    -1.3649 N.pl3   
  65 C65          -23.3426     5.4736    -1.0792 C.2     
  66 N66          -24.3293     6.0726    -1.6847 N.2     
  67 N67          -22.5875     6.1560    -0.1549 N.pl3   
  68 C68          -28.1596    -1.4352    -4.9610 C.2     
  69 O69          -28.4177    -0.5602    -4.1618 O.2     
  70 N70          -25.8592    -1.1301    -4.2508 N.am    
  71 C71          -26.7351    -1.8915    -5.1448 C.3     
  72 C72          -26.6302    -3.3816    -4.8142 C.3     
  73 C73          -25.2353    -3.8660    -5.1151 C.2     
  74 C74          -24.4120    -4.4926    -4.2531 C.2     
  75 N75          -23.2529    -4.7553    -4.9323 N.pl3   
  76 C76          -23.4084    -4.2796    -6.1866 C.2     
  77 N77          -24.5983    -3.7537    -6.2901 N.2     
  78 C78          -31.4698    -2.6654    -5.9055 C.2     
  79 O79          -31.0256    -3.7225    -6.3007 O.2     
  80 N80          -29.1467    -1.9995    -5.6846 N.am    
  81 C81          -30.5314    -1.5560    -5.5059 C.3     
  82 C82          -30.7908    -0.3285    -6.3815 C.3     
  83 C83          -29.9266     0.8367    -5.8952 C.3     
  84 C84          -30.1860     2.0642    -6.7709 C.3     
  85 N85          -29.3585     3.1799    -6.3053 N.pl3   
  86 C86          -29.4221     4.3960    -6.9433 C.2     
  87 N87          -30.2186     4.5564    -7.9625 N.2     
  88 N88          -28.6456     5.4430    -6.5063 N.pl3   
  89 C89          -33.9451    -3.5129    -7.7007 C.2     
  90 O90          -33.4028    -2.6645    -8.3686 O.2     
  91 N91          -32.8027    -2.4829    -5.8237 N.am    
  92 C92          -33.7149    -3.5614    -6.2122 C.3     
  93 C93          -35.0492    -3.3879    -5.4839 C.3     
  94 C94          -34.8350    -3.5613    -3.9789 C.3     
  95 C95          -36.1693    -3.3878    -3.2505 C.3     
  96 N96          -35.9642    -3.5539    -1.8095 N.pl3   
  97 C97          -37.0283    -3.4409    -0.9462 C.2     
  98 N98          -38.2195    -3.1861    -1.4099 N.2     
  99 N99          -36.8358    -3.5967     0.4061 N.pl3   
 100 O100         -34.7526    -4.4122    -8.2846 O.3     
 101 C101           2.9559     5.3113     1.8612 C.2     
 102 O102           2.7026     6.4172     2.2898 O.2     
 103 C103          20.1898     7.4647     8.9000 C.3     
 104 C104          18.7976     8.0648     8.6934 C.3     
 105 C105          17.9237     7.0726     7.9235 C.3     
 106 C106          16.5315     7.6727     7.7169 C.3     
 107 C107          15.6576     6.6806     6.9470 C.3     
 108 C108          14.2654     7.2806     6.7405 C.3     
 109 C109          13.3915     6.2885     5.9705 C.3     
 110 C110          11.9994     6.8886     5.7640 C.3     
 111 C111          11.1254     5.8964     4.9940 C.3     
 112 C112           9.7333     6.4965     4.7875 C.3     
 113 C113           8.8593     5.5043     4.0176 C.3     
 114 C114           7.4672     6.1044     3.8110 C.3     
 115 C115           6.5933     5.1123     3.0411 C.3     
 116 C116           5.2011     5.7124     2.8345 C.3     
 117 C117           4.3272     4.7202     2.0646 C.3     
 118 H118           2.2137     3.7264     0.8601 H       
 119 H119           0.4085     5.7857     1.8742 H       
 120 H120          -0.3260     6.4307    -0.4378 H       
 121 H121           2.6459     6.9089     0.0527 H       
 122 H122           1.5287     7.9543    -0.8568 H       
 123 H123           1.3415     7.7706     0.9038 H       
 124 H124           0.5097     4.4070    -1.6018 H       
 125 H125           1.1787     5.8860    -2.3320 H       
 126 H126           2.1845     4.8951    -1.2481 H       
 127 H127          -1.9500     5.2454     1.0760 H       
 128 H128          -2.2172     2.6283    -0.1918 H       
 129 H129          -3.2228     3.1787     2.6357 H       
 130 H130          -3.6936     1.7720     1.6519 H       
 131 H131          -1.4016     2.4611     4.3229 H       
 132 H132           0.6636     0.9058     4.1758 H       
 133 H133           0.8364    -0.1929     1.8730 H       
 134 H134          -4.8726     2.1685    -0.1785 H       
 135 H135          -6.3542     4.6842    -0.2366 H       
 136 H136          -5.9122     3.0324    -2.7651 H       
 137 H137          -7.0046     4.4298    -2.6159 H       
 138 H138          -5.2461     4.6536    -2.4547 H       
 139 H139          -8.7474     4.0046    -1.2727 H       
 140 H140          -9.3768     1.2174    -0.6701 H       
 141 H141         -11.1188     1.8868     1.0251 H       
 142 H142          -8.2387     2.6411     1.6978 H       
 143 H143          -9.5018     2.2127     2.8765 H       
 144 H144          -8.9126     0.9939     1.7208 H       
 145 H145         -11.3668     4.2427     0.4111 H       
 146 H146         -10.8107     4.1383     2.0987 H       
 147 H147          -9.6602     4.5576     0.8069 H       
 148 H148         -11.9327     0.9223    -1.0219 H       
 149 H149         -13.1569     3.1311    -2.4882 H       
 150 H150         -12.5652     0.4383    -3.7950 H       
 151 H151         -13.6524     1.6735    -4.4736 H       
 152 H152         -10.2773     0.5754    -4.9886 H       
 153 H153          -8.7938     2.5377    -5.7979 H       
 154 H154          -9.9257     4.7920    -5.3774 H       
 155 H155         -15.5032     2.1200    -3.3456 H       
 156 H156         -16.4461     0.0293    -1.5380 H       
 157 H157         -18.2029     1.4653    -0.5379 H       
 158 H158         -16.5778     2.0662    -0.1301 H       
 159 H159         -17.5356     2.8769    -1.3926 H       
 160 H160         -19.1099    -0.0265    -1.9430 H       
 161 H161         -19.7585     0.8478    -4.6527 H       
 162 H162         -19.5532    -2.1013    -3.8982 H       
 163 H163         -20.3233    -1.4892    -5.3817 H       
 164 H164         -17.1511    -1.9539    -3.5933 H       
 165 H165         -14.9480    -1.8411    -4.6852 H       
 166 H166         -14.2672    -1.8477    -7.6053 H       
 167 H167         -16.7970    -0.3722    -8.2473 H       
 168 H168         -18.9975    -0.4971    -7.1514 H       
 169 H169         -22.1586    -0.2765    -5.1407 H       
 170 H170         -23.6403    -0.6623    -2.6541 H       
 171 H171         -24.1097     1.7415    -4.4735 H       
 172 H172         -25.2185     1.2198    -3.1825 H       
 173 H173         -23.4067     1.5001    -1.5131 H       
 174 H174         -22.2979     2.0219    -2.8040 H       
 175 H175         -23.7929     3.9328    -3.3158 H       
 176 H176         -24.9017     3.4110    -2.0248 H       
 177 H177         -22.3226     3.7138    -0.9144 H       
 178 H178         -24.5309     6.9997    -1.4831 H       
 179 H179         -21.8532     5.7103     0.2957 H       
 180 H180         -22.7891     7.0832     0.0467 H       
 181 H181         -26.2173    -0.7383    -3.4389 H       
 182 H182         -26.4313    -1.7264    -6.1785 H       
 183 H183         -26.8482    -3.5356    -3.7574 H       
 184 H184         -27.3465    -3.9390    -5.4179 H       
 185 H185         -24.6251    -4.7400    -3.2237 H       
 186 H186         -22.4667    -5.2000    -4.5787 H       
 187 H187         -22.6717    -4.3299    -6.9747 H       
 188 H188         -28.9402    -2.6994    -6.3237 H       
 189 H189         -30.6982    -1.2981    -4.4601 H       
 190 H190         -30.5389    -0.5605    -7.4163 H       
 191 H191         -31.8432    -0.0519    -6.3170 H       
 192 H192         -30.1785     1.0688    -4.8605 H       
 193 H193         -28.8743     0.5602    -5.9597 H       
 194 H194         -29.9341     1.8322    -7.8057 H       
 195 H195         -31.2384     2.3408    -6.7064 H       
 196 H196         -28.7658     3.0606    -5.5468 H       
 197 H197         -30.2634     5.4144    -8.4127 H       
 198 H198         -28.0528     5.3237    -5.7479 H       
 199 H199         -28.6904     6.3010    -6.9565 H       
 200 H200         -33.1579    -1.6374    -5.5077 H       
 201 H201         -33.2765    -4.5225    -5.9435 H       
 202 H202         -35.4445    -2.3917    -5.6822 H       
 203 H203         -35.7569    -4.1370    -5.8388 H       
 204 H204         -34.4396    -4.5575    -3.7805 H       
 205 H205         -34.1272    -2.8122    -3.6239 H       
 206 H206         -36.5647    -2.3916    -3.4489 H       
 207 H207         -36.8771    -4.1369    -3.6055 H       
 208 H208         -35.0778    -3.7435    -1.4644 H       
 209 H209         -38.9702    -3.1063    -0.8008 H       
 210 H210         -35.9493    -3.7864     0.7512 H       
 211 H211         -37.5865    -3.5170     1.0152 H       
 212 H212         -34.8694    -4.3410    -9.2419 H       
 213 H213          20.1055     6.5381     9.4677 H       
 214 H214          20.6434     7.2570     7.9308 H       
 215 H215          20.8124     8.1715     9.4485 H       
 216 H216          18.3441     8.2725     9.6626 H       
 217 H217          18.8820     8.9914     8.1257 H       
 218 H218          18.3773     6.8649     6.9543 H       
 219 H219          17.8394     6.1460     8.4912 H       
 220 H220          16.0780     7.8804     8.6861 H       
 221 H221          16.6159     8.5993     7.1492 H       
 222 H222          16.1112     6.4729     5.9778 H       
 223 H223          15.5733     5.7539     7.5148 H       
 224 H224          13.8119     7.4883     7.7096 H       
 225 H225          14.3498     8.2073     6.1727 H       
 226 H226          13.8451     6.0808     5.0014 H       
 227 H227          13.3072     5.3619     6.5383 H       
 228 H228          11.5458     7.0963     6.7331 H       
 229 H229          12.0837     7.8152     5.1962 H       
 230 H230          11.5790     5.6887     4.0249 H       
 231 H231          11.0411     4.9698     5.5618 H       
 232 H232           9.2797     6.7042     5.7567 H       
 233 H233           9.8176     7.4231     4.2197 H       
 234 H234           9.3129     5.2966     3.0484 H       
 235 H235           8.7750     4.5777     4.5853 H       
 236 H236           7.0136     6.3121     4.7802 H       
 237 H237           7.5515     7.0310     3.2433 H       
 238 H238           7.0468     4.9046     2.0719 H       
 239 H239           6.5089     4.1857     3.6088 H       
 240 H240           4.7475     5.9201     3.8037 H       
 241 H241           5.2854     6.6390     2.2668 H       
 242 H242           4.2428     3.7936     2.6324 H       
 243 H243           4.7807     4.5125     1.0954 H       
@<TRIPOS>BOND
   1    1    2 2
   2    1    4 1
   3    1   10 am
   4    3  101 am
   5    3    4 1
   6    3  118 1
   7    4    5 1
   8    4  119 1
   9    5    6 1
  10    5    7 1
  11    5  120 1
  12    6  121 1
  13    6  122 1
  14    6  123 1
  15    7  124 1
  16    7  125 1
  17    7  126 1
  18    8    9 2
  19    8   11 1
  20    8   20 am
  21   10   11 1
  22   10  127 1
  23   11   12 1
  24   11  128 1
  25   12   13 1
  26   12  129 1
  27   12  130 1
  28   13   14 2
  29   13   17 1
  30   14   15 1
  31   14  131 1
  32   15   16 1
  33   15  132 1
  34   16   17 2
  35   16  133 1
  36   18   19 2
  37   18   21 1
  38   18   25 am
  39   20   21 1
  40   20  134 1
  41   21   22 1
  42   21  135 1
  43   22  136 1
  44   22  137 1
  45   22  138 1
  46   23   24 2
  47   23   26 1
  48   23   32 am
  49   25   26 1
  50   25  139 1
  51   26   27 1
  52   26  140 1
  53   27   28 1
  54   27   29 1
  55   27  141 1
  56   28  142 1
  57   28  143 1
  58   28  144 1
  59   29  145 1
  60   29  146 1
  61   29  147 1
  62   30   31 2
  63   30   33 1
  64   30   42 am
  65   32   33 1
  66   32  148 1
  67   33   34 1
  68   33  149 1
  69   34   35 1
  70   34  150 1
  71   34  151 1
  72   35   36 2
  73   35   39 1
  74   36   37 1
  75   36  152 1
  76   37   38 1
  77   37  153 1
  78   38   39 2
  79   38  154 1
  80   40   41 2
  81   40   43 1
  82   40   47 am
  83   42   43 1
  84   42  155 1
  85   43   44 1
  86   43  156 1
  87   44  157 1
  88   44  158 1
  89   44  159 1
  90   45   46 2
  91   45   48 1
  92   45   59 am
  93   47   48 1
  94   47  160 1
  95   48   49 1
  96   48  161 1
  97   49   50 1
  98   49  162 1
  99   49  163 1
 100   50   51 ar
 101   50   56 ar
 102   51   52 ar
 103   51  164 1
 104   52   53 ar
 105   52  165 1
 106   53   54 1
 107   53   55 ar
 108   54  166 1
 109   55   56 ar
 110   55  167 1
 111   56  168 1
 112   57   58 2
 113   57   60 1
 114   57   70 am
 115   59   60 1
 116   59  169 1
 117   60   61 1
 118   60  170 1
 119   61   62 1
 120   61  171 1
 121   61  172 1
 122   62   63 1
 123   62  173 1
 124   62  174 1
 125   63   64 1
 126   63  175 1
 127   63  176 1
 128   64   65 1
 129   64  177 1
 130   65   66 2
 131   65   67 1
 132   66  178 1
 133   67  179 1
 134   67  180 1
 135   68   69 2
 136   68   71 1
 137   68   80 am
 138   70   71 1
 139   70  181 1
 140   71   72 1
 141   71  182 1
 142   72   73 1
 143   72  183 1
 144   72  184 1
 145   73   74 2
 146   73   77 1
 147   74   75 1
 148   74  185 1
 149   75   76 1
 150   75  186 1
 151   76   77 2
 152   76  187 1
 153   78   79 2
 154   78   81 1
 155   78   91 am
 156   80   81 1
 157   80  188 1
 158   81   82 1
 159   81  189 1
 160   82   83 1
 161   82  190 1
 162   82  191 1
 163   83   84 1
 164   83  192 1
 165   83  193 1
 166   84   85 1
 167   84  194 1
 168   84  195 1
 169   85   86 1
 170   85  196 1
 171   86   87 2
 172   86   88 1
 173   87  197 1
 174   88  198 1
 175   88  199 1
 176   89   90 2
 177   89   92 1
 178   89  100 1
 179   91   92 1
 180   91  200 1
 181   92   93 1
 182   92  201 1
 183   93   94 1
 184   93  202 1
 185   93  203 1
 186   94   95 1
 187   94  204 1
 188   94  205 1
 189   95   96 1
 190   95  206 1
 191   95  207 1
 192   96   97 1
 193   96  208 1
 194   97   98 2
 195   97   99 1
 196   98  209 1
 197   99  210 1
 198   99  211 1
 199  100  212 1
 200  101  102 2
 201  101  117 1
 202  103  104 1
 203  103  213 1
 204  103  214 1
 205  103  215 1
 206  104  105 1
 207  104  216 1
 208  104  217 1
 209  105  106 1
 210  105  218 1
 211  105  219 1
 212  106  107 1
 213  106  220 1
 214  106  221 1
 215  107  108 1
 216  107  222 1
 217  107  223 1
 218  108  109 1
 219  108  224 1
 220  108  225 1
 221  109  110 1
 222  109  226 1
 223  109  227 1
 224  110  111 1
 225  110  228 1
 226  110  229 1
 227  111  112 1
 228  111  230 1
 229  111  231 1
 230  112  113 1
 231  112  232 1
 232  112  233 1
 233  113  114 1
 234  113  234 1
 235  113  235 1
 236  114  115 1
 237  114  236 1
 238  114  237 1
 239  115  116 1
 240  115  238 1
 241  115  239 1
 242  116  117 1
 243  116  240 1
 244  116  241 1
 245  117  242 1
 246  117  243 1

#	End of record

