#	Name: ASD01940486
#	Creating user name:	WinNT
#	Creation time:	15. 06. 2019 20:12

#	Modifying user name:	WinNT
#	Modification time:	15. 06. 2019 20:12

#	Program:	/corina/corina34_cracker 3.40 0067  02.08.2006

@<TRIPOS>MOLECULE
ASD01940486
  29   31    0    0    0
SMALL
NO_CHARGES


@<TRIPOS>ATOM
   1 S1             2.0596     2.3948     2.8777 S.3     
   2 N2             2.5614     0.8663     3.4143 N.2     
   3 C3             3.0929     0.2412     2.4199 C.2     
   4 C4             3.1580     0.8814     1.1716 C.ar    
   5 C5             2.6015     2.1728     1.2113 C.ar    
   6 C6             2.5656     2.9789     0.0760 C.ar    
   7 C7             3.0942     2.4927    -1.1277 C.ar    
   8 C8             3.6503     1.2022    -1.1670 C.ar    
   9 C9             3.6837     0.4205    -0.0625 C.ar    
  10 C10            3.0670     3.3253    -2.3391 C.2     
  11 O11            2.5026     4.4019    -2.3241 O.2     
  12 O12            3.6679     2.8949    -3.4665 O.3     
  13 N13            2.0120     4.2494     0.1359 N.pl3   
  14 C14            0.6747     4.4473    -0.2238 C.ar    
  15 C15            0.0837     5.6951    -0.0515 C.ar    
  16 C16           -1.2381     5.8866    -0.4081 C.ar    
  17 C17           -1.9724     4.8385    -0.9352 C.ar    
  18 C18           -1.3867     3.5972    -1.1068 C.ar    
  19 C19           -0.0640     3.4008    -0.7586 C.ar    
  20 F20            0.8004     6.7178     0.4638 F       
  21 Br21          -3.7804     5.1038    -1.4213 Br      
  22 H22            3.4822    -0.7584     2.5450 H       
  23 H23            4.0575     0.8278    -2.0946 H       
  24 H24            4.1173    -0.5669    -0.1214 H       
  25 H25            3.6235     3.4770    -4.2374 H       
  26 H26            2.5522     5.0006     0.4271 H       
  27 H27           -1.6982     6.8546    -0.2750 H       
  28 H28           -1.9628     2.7814    -1.5180 H       
  29 H29            0.3934     2.4324    -0.8979 H       
@<TRIPOS>BOND
   1    1    2 1
   2    1    5 1
   3    2    3 2
   4    3    4 1
   5    3   22 1
   6    4    5 ar
   7    4    9 ar
   8    5    6 ar
   9    6    7 ar
  10    6   13 1
  11    7    8 ar
  12    7   10 1
  13    8    9 ar
  14    8   23 1
  15    9   24 1
  16   10   11 2
  17   10   12 1
  18   12   25 1
  19   13   14 1
  20   13   26 1
  21   14   15 ar
  22   14   19 ar
  23   15   16 ar
  24   15   20 1
  25   16   17 ar
  26   16   27 1
  27   17   18 ar
  28   17   21 1
  29   18   19 ar
  30   18   28 1
  31   19   29 1

#	End of record

