#	Name: ASD01816523
#	Creating user name:	WinNT
#	Creation time:	15. 06. 2019 19:35

#	Modifying user name:	WinNT
#	Modification time:	15. 06. 2019 19:35

#	Program:	/corina/corina34_cracker 3.40 0067  02.08.2006

@<TRIPOS>MOLECULE
ASD01816523
  51   56    0    0    0
SMALL
NO_CHARGES


@<TRIPOS>ATOM
   1 C1            -0.0167     1.3813     0.0096 C.ar    
   2 C2             0.0021    -0.0041     0.0020 C.ar    
   3 C3             1.1984    -0.6909    -0.0131 C.ar    
   4 C4             2.4015     0.0059    -0.0209 C.ar    
   5 C5             2.3790     1.4106    -0.0132 C.ar    
   6 C6             1.1663     2.0916     0.0022 C.ar    
   7 N7             3.6053    -0.6772    -0.0356 N.pl3   
   8 C8             4.7970    -0.0586    -0.0437 C.2     
   9 C9             4.9000     1.3103    -0.0378 C.2     
  10 C10            3.6670     2.1301    -0.0217 C.2     
  11 C11            5.9971     2.2729    -0.0436 C.2     
  12 N12            5.4245     3.4961    -0.0323 N.am    
  13 N13            4.0323     3.3799    -0.0193 N.2     
  14 C14            6.1264     4.7082    -0.0328 C.ar    
  15 O15            7.1914     2.0229    -0.0556 O.2     
  16 C16            3.5779    -2.1419    -0.0422 C.3     
  17 C17            3.5549    -2.6375    -1.4652 C.ar    
  18 C18            4.7288    -2.6902    -2.1979 C.ar    
  19 C19            4.7094    -3.1450    -3.5045 C.ar    
  20 C20            3.5123    -3.5485    -4.0790 C.ar    
  21 C21            2.3374    -3.4945    -3.3406 C.ar    
  22 C22            2.3627    -3.0443    -2.0352 C.ar    
  23 N23            3.4890    -4.0093    -5.4027 N.pl3   
  24 C24            2.3967    -4.4302    -6.0797 C.2     
  25 C25            2.7956    -4.7904    -7.3216 C.2     
  26 C26            4.1768    -4.5833    -7.4074 C.2     
  27 N27            4.5921    -4.1096    -6.2603 N.2     
  28 C28            6.5546     5.2637    -1.2306 C.ar    
  29 C29            7.2468     6.4595    -1.2280 C.ar    
  30 C30            7.5142     7.1036    -0.0343 C.ar    
  31 C31            7.0902     6.5541     1.1621 C.ar    
  32 C32            6.3911     5.3611     1.1668 C.ar    
  33 F33            5.9768     4.8242     2.3352 F       
  34 F34            5.8933    -2.2970    -1.6370 F       
  35 H35           -0.9602     1.9068     0.0170 H       
  36 H36           -0.9289    -0.5516     0.0083 H       
  37 H37            1.2004    -1.7709    -0.0186 H       
  38 H38            1.1506     3.1715     0.0077 H       
  39 H39            5.6983    -0.6536    -0.0548 H       
  40 H40            4.4658    -2.5242     0.4614 H       
  41 H41            2.6862    -2.4910     0.4786 H       
  42 H42            5.6245    -3.1856    -4.0767 H       
  43 H43            1.4047    -3.8080    -3.7858 H       
  44 H44            1.4487    -3.0025    -1.4613 H       
  45 H45            1.3873    -4.4714    -5.6979 H       
  46 H46            2.1602    -5.1707    -8.1077 H       
  47 H47            4.7932    -4.7769    -8.2728 H       
  48 H48            6.3472     4.7614    -2.1639 H       
  49 H49            7.5799     6.8916    -2.1600 H       
  50 H50            8.0558     8.0380    -0.0359 H       
  51 H51            7.3010     7.0596     2.0929 H       
@<TRIPOS>BOND
   1    1    2 ar
   2    1    6 ar
   3    1   35 1
   4    2    3 ar
   5    2   36 1
   6    3    4 ar
   7    3   37 1
   8    4    5 ar
   9    4    7 1
  10    5    6 ar
  11    5   10 1
  12    6   38 1
  13    7    8 1
  14    7   16 1
  15    8    9 2
  16    8   39 1
  17    9   10 1
  18    9   11 1
  19   10   13 2
  20   11   12 am
  21   11   15 2
  22   12   13 1
  23   12   14 1
  24   14   28 ar
  25   14   32 ar
  26   16   17 1
  27   16   40 1
  28   16   41 1
  29   17   18 ar
  30   17   22 ar
  31   18   19 ar
  32   18   34 1
  33   19   20 ar
  34   19   42 1
  35   20   21 ar
  36   20   23 1
  37   21   22 ar
  38   21   43 1
  39   22   44 1
  40   23   24 1
  41   23   27 1
  42   24   25 2
  43   24   45 1
  44   25   26 1
  45   25   46 1
  46   26   27 2
  47   26   47 1
  48   28   29 ar
  49   28   48 1
  50   29   30 ar
  51   29   49 1
  52   30   31 ar
  53   30   50 1
  54   31   32 ar
  55   31   51 1
  56   32   33 1

#	End of record

