#	Name: ASD01209111
#	Creating user name:	WinNT
#	Creation time:	15. 06. 2019 19:11

#	Modifying user name:	WinNT
#	Modification time:	15. 06. 2019 19:11

#	Program:	/corina/corina34_cracker 3.40 0067  02.08.2006

@<TRIPOS>MOLECULE
ASD01209111
  70   71    0    0    0
SMALL
NO_CHARGES


@<TRIPOS>ATOM
   1 C1            -0.4529     2.4167     1.9804 C.ar    
   2 C2             0.7887     1.8183     2.1390 C.ar    
   3 C3             1.0186     0.5450     1.6384 C.ar    
   4 C4             0.0084    -0.1346     0.9782 C.ar    
   5 C5            -1.2421     0.4634     0.8168 C.ar    
   6 C6            -1.4704     1.7423     1.3260 C.ar    
   7 O7            -0.6727     3.6643     2.4727 O.3     
   8 C8            -2.0000     4.1817     2.3599 C.3     
   9 C9            -2.2251     5.2471     3.4346 C.3     
  10 O10            2.2370    -0.0362     1.7958 O.3     
  11 C11            3.2722     0.7701     2.3618 C.3     
  12 C12            3.1755     0.7267     3.8881 C.3     
  13 C13           -2.3233    -0.2580     0.1129 C.2     
  14 N14           -3.5303     0.3213    -0.0420 N.am    
  15 O15           -2.1239    -1.3735    -0.3263 O.2     
  16 C16           -4.5406    -0.3528    -0.6997 C.2     
  17 S17           -4.3968    -1.9744    -1.3881 S.3     
  18 C18           -6.1048    -2.0546    -2.0177 C.3     
  19 C19           -6.6963    -0.6975    -1.6053 C.3     
  20 N20           -5.7236     0.1037    -0.8963 N.2     
  21 C21           -7.1532     0.0522    -2.8583 C.3     
  22 P22           -7.9904     1.5965    -2.3710 P.3     
  23 O23           -9.0933     1.2855    -1.4344 O.2     
  24 C24           -2.1881     4.8059     0.9757 C.3     
  25 C25            4.6354     0.2327     1.9216 C.3     
  26 O26           -6.9344     2.5752    -1.6506 O.3     
  27 C27           -7.3093     3.8133    -1.0435 C.3     
  28 C28           -7.0913     3.7265     0.4685 C.3     
  29 C29           -6.4528     4.9432    -1.6183 C.3     
  30 O30           -8.5861     2.3202    -3.6801 O.3     
  31 C31           -9.3903     3.4998    -3.6193 C.3     
  32 C32           -8.7902     4.5736    -4.5291 C.3     
  33 C33          -10.8109     3.1731    -4.0842 C.3     
  34 H34            1.5787     2.3454     2.6533 H       
  35 H35            0.1883    -1.1256     0.5885 H       
  36 H36           -2.4367     2.2088     1.2033 H       
  37 H37           -2.7179     3.3727     2.4942 H       
  38 H38           -1.5071     6.0561     3.3003 H       
  39 H39           -3.2375     5.6417     3.3486 H       
  40 H40           -2.0911     4.8024     4.4207 H       
  41 H41            3.1594     1.7989     2.0197 H       
  42 H42            2.2043     1.1095     4.2017 H       
  43 H43            3.2882    -0.3021     4.2302 H       
  44 H44            3.9651     1.3417     4.3198 H       
  45 H45           -3.6895     1.2116     0.3086 H       
  46 H46           -6.1102    -2.1629    -3.1023 H       
  47 H47           -6.6507    -2.8715    -1.5459 H       
  48 H48           -7.5568    -0.8648    -0.9575 H       
  49 H49           -6.2872     0.2879    -3.4768 H       
  50 H50           -7.8443    -0.5729    -3.4239 H       
  51 H51           -2.0277     4.0469     0.2100 H       
  52 H52           -3.2005     5.2005     0.8897 H       
  53 H53           -1.4701     5.6149     0.8413 H       
  54 H54            4.7043     0.2637     0.8342 H       
  55 H55            5.4250     0.8478     2.3533 H       
  56 H56            4.7481    -0.7960     2.2637 H       
  57 H57           -8.3609     4.0144    -1.2480 H       
  58 H58           -6.0398     3.5254     0.6730 H       
  59 H59           -7.3774     4.6709     0.9315 H       
  60 H60           -7.7016     2.9216     0.8780 H       
  61 H61           -6.6730     5.0625    -2.6791 H       
  62 H62           -6.6772     5.8721    -1.0939 H       
  63 H63           -5.3978     4.7001    -1.4913 H       
  64 H64           -9.4192     3.8674    -2.5935 H       
  65 H65           -9.3464     5.5034    -4.4095 H       
  66 H66           -7.7469     4.7370    -4.2591 H       
  67 H67           -8.8499     4.2455    -5.5668 H       
  68 H68          -11.2384     2.4081    -3.4360 H       
  69 H69          -11.4243     4.0729    -4.0378 H       
  70 H70          -10.7820     2.8056    -5.1099 H       
@<TRIPOS>BOND
   1    1    2 ar
   2    1    7 1
   3    1    6 ar
   4    2    3 ar
   5    2   34 1
   6    3    4 ar
   7    3   10 1
   8    4    5 ar
   9    4   35 1
  10    5    6 ar
  11    5   13 1
  12    6   36 1
  13    7    8 1
  14    8    9 1
  15    8   24 1
  16    8   37 1
  17    9   38 1
  18    9   39 1
  19    9   40 1
  20   10   11 1
  21   11   12 1
  22   11   25 1
  23   11   41 1
  24   12   42 1
  25   12   43 1
  26   12   44 1
  27   13   14 am
  28   13   15 2
  29   14   16 1
  30   14   45 1
  31   16   17 1
  32   16   20 2
  33   17   18 1
  34   18   19 1
  35   18   46 1
  36   18   47 1
  37   19   20 1
  38   19   21 1
  39   19   48 1
  40   21   22 1
  41   21   49 1
  42   21   50 1
  43   22   23 2
  44   22   26 1
  45   22   30 1
  46   24   51 1
  47   24   52 1
  48   24   53 1
  49   25   54 1
  50   25   55 1
  51   25   56 1
  52   26   27 1
  53   27   28 1
  54   27   29 1
  55   27   57 1
  56   28   58 1
  57   28   59 1
  58   28   60 1
  59   29   61 1
  60   29   62 1
  61   29   63 1
  62   30   31 1
  63   31   32 1
  64   31   33 1
  65   31   64 1
  66   32   65 1
  67   32   66 1
  68   32   67 1
  69   33   68 1
  70   33   69 1
  71   33   70 1

#	End of record

