#	Name: ASD01100026
#	Creating user name:	WinNT
#	Creation time:	15. 06. 2019 18:58

#	Modifying user name:	WinNT
#	Modification time:	15. 06. 2019 18:58

#	Program:	/corina/corina34_cracker 3.40 0067  02.08.2006

@<TRIPOS>MOLECULE
ASD01100026
  34   35    0    0    0
SMALL
NO_CHARGES


@<TRIPOS>ATOM
   1 C1             0.1628     1.2937    -0.9229 C.ar    
   2 C2             0.2409    -0.0858    -0.9936 C.ar    
   3 C3             1.4420    -0.7240    -0.7404 C.ar    
   4 C4             2.5631     0.0168    -0.4168 C.ar    
   5 C5             2.4845     1.3951    -0.3462 C.ar    
   6 C6             1.2846     2.0334    -0.5992 C.ar    
   7 C7             3.7071     2.2022     0.0071 C.3     
   8 C8             3.4381     3.0038     1.2822 C.3     
   9 C9             3.2229     2.0425     2.4530 C.3     
  10 C10            4.6361     3.9081     1.5784 C.3     
  11 Cl11          -1.1678    -1.0156    -1.3995 Cl      
  12 C12            4.0286     3.1473    -1.1219 C.2     
  13 N13            5.1811     3.8460    -1.1083 N.am    
  14 O14            3.2504     3.2791    -2.0426 O.2     
  15 C15            5.4408     4.7742    -2.1050 C.2     
  16 N16            6.5189     5.5113    -2.2005 N.2     
  17 C17            6.4125     6.2890    -3.2942 C.2     
  18 C18            5.2359     6.0155    -3.8785 C.2     
  19 O19            4.6319     5.0632    -3.1360 O.3     
  20 H20           -0.7735     1.7927    -1.1248 H       
  21 H21            1.5035    -1.8009    -0.7951 H       
  22 H22            3.5007    -0.4814    -0.2187 H       
  23 H23            1.2237     3.1103    -0.5439 H       
  24 H24            4.5505     1.5314     0.1707 H       
  25 H25            2.5462     3.6154     1.1456 H       
  26 H26            4.1147     1.4310     2.5896 H       
  27 H27            3.0312     2.6136     3.3614 H       
  28 H28            2.3694     1.3983     2.2419 H       
  29 H29            4.8524     4.5226     0.7045 H       
  30 H30            4.4044     4.5519     2.4269 H       
  31 H31            5.5052     3.2941     1.8149 H       
  32 H32            5.8288     3.6994    -0.4013 H       
  33 H33            7.1435     7.0051    -3.6396 H       
  34 H34            4.8464     6.4697    -4.7776 H       
@<TRIPOS>BOND
   1    1    2 ar
   2    1    6 ar
   3    1   20 1
   4    2    3 ar
   5    2   11 1
   6    3    4 ar
   7    3   21 1
   8    4    5 ar
   9    4   22 1
  10    5    6 ar
  11    5    7 1
  12    6   23 1
  13    7    8 1
  14    7   12 1
  15    7   24 1
  16    8    9 1
  17    8   10 1
  18    8   25 1
  19    9   26 1
  20    9   27 1
  21    9   28 1
  22   10   29 1
  23   10   30 1
  24   10   31 1
  25   12   13 am
  26   12   14 2
  27   13   15 1
  28   13   32 1
  29   15   16 2
  30   15   19 1
  31   16   17 1
  32   17   18 2
  33   17   33 1
  34   18   19 1
  35   18   34 1

#	End of record

