#	Name: ASD05390004
#	Creating user name:	WinNT
#	Creation time:	15. 06. 2019 20:59

#	Modifying user name:	WinNT
#	Modification time:	15. 06. 2019 20:59

#	Program:	/corina/corina34_cracker 3.40 0067  02.08.2006

@<TRIPOS>MOLECULE
ASD05390004
  19   19    0    0    0
SMALL
NO_CHARGES


@<TRIPOS>ATOM
   1 C1            -0.0187     1.5258     0.0104 C.3     
   2 C2             0.0021    -0.0041     0.0020 C.3     
   3 C3            -1.4145    -0.5387     0.0633 C.2     
   4 C4            -2.1600    -0.4323     1.3747 C.3     
   5 C5            -1.3270    -1.0917     2.4774 C.3     
   6 C6             0.0406    -0.4090     2.5665 C.3     
   7 C7             0.7333    -0.5160     1.2265 C.2     
   8 O8            -1.9334    -1.0352    -0.9075 O.2     
   9 O9             1.8379    -0.9953     1.1350 O.2     
  10 H10            1.0039     1.9031     0.0027 H       
  11 H11           -0.5459     1.8868    -0.8726 H       
  12 H12           -0.5289     1.8773     0.9072 H       
  13 H13            0.4958    -0.3627    -0.9012 H       
  14 H14           -2.3214     0.6179     1.6183 H       
  15 H15           -3.1214    -0.9388     1.2898 H       
  16 H16           -1.8448    -0.9929     3.4314 H       
  17 H17           -1.1904    -2.1481     2.2463 H       
  18 H18           -0.0924     0.6415     2.8254 H       
  19 H19            0.6438    -0.8993     3.3306 H       
@<TRIPOS>BOND
   1    1    2 1
   2    1   10 1
   3    1   11 1
   4    1   12 1
   5    2    7 1
   6    2    3 1
   7    2   13 1
   8    3    4 1
   9    3    8 2
  10    4   14 1
  11    4   15 1
  12    4    5 1
  13    5   16 1
  14    5   17 1
  15    5    6 1
  16    6   18 1
  17    6   19 1
  18    6    7 1
  19    7    9 2

#	End of record

