#	Name: ASD09116462
#	Creating user name:	WinNT
#	Creation time:	15. 06. 2019 21:21

#	Modifying user name:	WinNT
#	Modification time:	15. 06. 2019 21:21

#	Program:	/corina/corina34_cracker 3.40 0067  02.08.2006

@<TRIPOS>MOLECULE
ASD09116462
  68   74    0    0    0
SMALL
NO_CHARGES


@<TRIPOS>ATOM
   1 N1             0.3994     0.8233    -0.3690 N.2     
   2 N2             0.5246    -0.5609    -0.1692 N.pl3   
   3 C3             1.6025     1.3352    -0.2664 C.2     
   4 N4             2.4747     0.3522    -0.0139 N.2     
   5 C5             1.8396    -0.7985     0.0478 C.2     
   6 N6             2.4136    -2.0319     0.2908 N.pl3   
   7 C7            -0.5034    -1.5052    -0.1902 C.ar    
   8 N8             1.9216     2.6868    -0.3992 N.pl3   
   9 C9             3.2270     3.1237    -0.1572 C.ar    
  10 C10            3.7470     4.2168    -0.8433 C.ar    
  11 C11            4.0275     2.4779     0.7771 C.ar    
  12 N12            5.2551     2.8912     1.0056 N.ar    
  13 C13            5.7836     3.9262     0.3693 C.ar    
  14 C14            5.0487     4.6165    -0.5707 C.ar    
  15 N15           -0.2354    -2.7699    -0.4792 N.ar    
  16 N16           -1.1461    -3.6761    -0.5212 N.ar    
  17 C17           -2.4161    -3.3953    -0.2771 C.ar    
  18 C18           -2.7901    -2.0908     0.0577 C.ar    
  19 C19           -1.8142    -1.1175     0.0993 C.ar    
  20 C20           -3.4751    -4.4262    -0.3779 C.ar    
  21 C21           -4.6240    -4.1429    -1.1181 C.ar    
  22 C22           -4.7322    -2.8263    -1.8374 C.3     
  23 C23           -5.0678    -1.6914    -0.8737 C.3     
  24 C24           -4.2218    -1.7893     0.3930 C.3     
  25 C25           -3.3403    -5.6577     0.2535 C.ar    
  26 C26           -4.3562    -6.5891     0.1593 C.ar    
  27 C27           -5.5020    -6.2966    -0.5579 C.ar    
  28 C28           -5.6364    -5.0751    -1.1950 C.ar    
  29 C29            7.1963     4.3288     0.7122 C.3     
  30 C30            7.7626     5.2311    -0.3842 C.3     
  31 N31            6.8006     6.3138    -0.6440 N.3     
  32 C32            5.6142     5.7895    -1.3251 C.3     
  33 C33            7.4213     7.3941    -1.4221 C.3     
  34 C34            6.3988     8.5157    -1.6758 C.3     
  35 C35            6.9700     9.7895    -1.0193 C.3     
  36 C36            8.4966     9.5345    -0.9601 C.3     
  37 C37            8.5782     8.0255    -0.6204 C.3     
  38 H38            3.3703    -2.1017     0.4345 H       
  39 H39            1.8597    -2.8277     0.3177 H       
  40 H40            1.2375     3.3233    -0.6595 H       
  41 H41            3.1504     4.7435    -1.5734 H       
  42 H42            3.6383     1.6297     1.3206 H       
  43 H43           -2.0552    -0.0924     0.3389 H       
  44 H44           -3.7834    -2.6088    -2.3278 H       
  45 H45           -5.5150    -2.8960    -2.5927 H       
  46 H46           -4.8734    -0.7365    -1.3621 H       
  47 H47           -6.1229    -1.7482    -0.6058 H       
  48 H48           -4.6163    -2.5834     1.0270 H       
  49 H49           -4.2722    -0.8432     0.9318 H       
  50 H50           -2.4458    -5.8850     0.8144 H       
  51 H51           -4.2554    -7.5477     0.6464 H       
  52 H52           -6.2965    -7.0254    -0.6213 H       
  53 H53           -6.5343    -4.8525    -1.7524 H       
  54 H54            7.1994     4.8662     1.6605 H       
  55 H55            7.8154     3.4361     0.8018 H       
  56 H56            8.7112     5.6555    -0.0552 H       
  57 H57            7.9145     4.6503    -1.2940 H       
  58 H58            5.8879     5.4701    -2.3307 H       
  59 H59            4.8609     6.5744    -1.3922 H       
  60 H60            7.7920     7.0053    -2.3706 H       
  61 H61            6.2739     8.6718    -2.7473 H       
  62 H62            5.4420     8.2584    -1.2214 H       
  63 H63            6.7528    10.6646    -1.6318 H       
  64 H64            6.5651     9.9155    -0.0151 H       
  65 H65            8.9600     9.7387    -1.9253 H       
  66 H66            8.9580    10.1328    -0.1745 H       
  67 H67            8.4330     7.8667     0.4482 H       
  68 H68            9.5346     7.6133    -0.9418 H       
@<TRIPOS>BOND
   1    1    2 1
   2    1    3 2
   3    2    7 1
   4    2    5 1
   5    3    4 1
   6    3    8 1
   7    4    5 2
   8    5    6 1
   9    6   38 1
  10    6   39 1
  11    7   15 ar
  12    7   19 ar
  13    8    9 1
  14    8   40 1
  15    9   10 ar
  16    9   11 ar
  17   10   14 ar
  18   10   41 1
  19   11   12 ar
  20   11   42 1
  21   12   13 ar
  22   13   14 ar
  23   13   29 1
  24   14   32 1
  25   15   16 ar
  26   16   17 ar
  27   17   18 ar
  28   17   20 1
  29   18   19 ar
  30   18   24 1
  31   19   43 1
  32   20   21 ar
  33   20   25 ar
  34   21   22 1
  35   21   28 ar
  36   22   23 1
  37   22   44 1
  38   22   45 1
  39   23   24 1
  40   23   46 1
  41   23   47 1
  42   24   48 1
  43   24   49 1
  44   25   26 ar
  45   25   50 1
  46   26   27 ar
  47   26   51 1
  48   27   28 ar
  49   27   52 1
  50   28   53 1
  51   29   30 1
  52   29   54 1
  53   29   55 1
  54   30   31 1
  55   30   56 1
  56   30   57 1
  57   31   32 1
  58   31   33 1
  59   32   58 1
  60   32   59 1
  61   33   34 1
  62   33   37 1
  63   33   60 1
  64   34   35 1
  65   34   61 1
  66   34   62 1
  67   35   36 1
  68   35   63 1
  69   35   64 1
  70   36   37 1
  71   36   65 1
  72   36   66 1
  73   37   67 1
  74   37   68 1

#	End of record

