#	Name: ASD05790124
#	Creating user name:	WinNT
#	Creation time:	15. 06. 2019 21:03

#	Modifying user name:	WinNT
#	Modification time:	15. 06. 2019 21:03

#	Program:	/corina/corina34_cracker 3.40 0067  02.08.2006

@<TRIPOS>MOLECULE
ASD05790124
 103  110    0    0    0
SMALL
NO_CHARGES


@<TRIPOS>ATOM
   1 C1             1.4976    -1.2803     0.8087 C.3     
   2 C2             1.6325    -2.8028     0.8817 C.3     
   3 C3             2.1279    -3.1981     2.2749 C.3     
   4 C4             3.4200    -2.4567     2.5646 C.2     
   5 C5             3.4394    -0.9604     2.3554 C.3     
   6 C6             2.8762    -0.6389     0.9678 C.3     
   7 C7             4.4455    -3.1511     2.9731 C.2     
   8 C8             5.7843    -2.5470     3.3274 C.3     
   9 C9             5.5202    -1.0986     3.7126 C.3     
  10 C10            4.8515    -0.4421     2.4718 C.3     
  11 C11            6.7696    -0.2271     3.8588 C.3     
  12 C12            6.2192     1.1845     3.6418 C.2     
  13 C13            5.0072     1.0551     2.7372 C.3     
  14 C14            2.5731    -0.2882     3.4223 C.3     
  15 C15            7.8327     2.2108     5.1812 C.3     
  16 C16            6.6973     2.2500     4.2048 C.2     
  17 O17            7.3834     2.7562     6.4504 O.3     
  18 C18            8.5142     3.4319     6.9781 C.3     
  19 C19            9.0469     4.2182     5.7454 C.3     
  20 C20            8.9725     3.1324     4.6698 C.3     
  21 C21            8.3206     4.4266     8.0992 C.3     
  22 C22            9.7130     4.9505     8.4917 C.3     
  23 C23           10.4354     5.5709     7.2978 C.3     
  24 N24           10.3770     4.6795     6.1196 N.am    
  25 C25            6.0854     3.5840     3.8623 C.3     
  26 C26           10.2926     2.3637     4.5849 C.3     
  27 C27            9.5590     6.0074     9.5871 C.3     
  28 C28            7.3133    -0.2620     5.2892 C.3     
  29 C29            8.3900     0.8164     5.4132 C.3     
  30 O30            0.3401    -3.4167     0.6342 O.3     
  31 C31           -4.0139    -8.3614    -0.2362 C.ar    
  32 C32           -4.6881    -8.0971    -1.4137 C.ar    
  33 C33           -4.0861    -7.3375    -2.3993 C.ar    
  34 C34           -2.8099    -6.8420    -2.2074 C.ar    
  35 C35           -2.1357    -7.1064    -1.0299 C.ar    
  36 C36           -2.7377    -7.8660    -0.0443 C.ar    
  37 C37           -0.7444    -6.5663    -0.8207 C.3     
  38 O38           -0.8221    -5.2568    -0.1981 O.3     
  39 C39            0.3417    -4.6326     0.0585 C.2     
  40 O40            1.3935    -5.1667    -0.2294 O.2     
  41 C41           16.9524     5.3257     6.8603 C.ar    
  42 C42           17.3789     4.2414     7.6043 C.ar    
  43 C43           16.6574     3.0625     7.5841 C.ar    
  44 C44           15.5094     2.9678     6.8199 C.ar    
  45 C45           15.0829     4.0520     6.0759 C.ar    
  46 C46           15.8044     5.2309     6.0961 C.ar    
  47 C47           13.8314     3.9487     5.2428 C.3     
  48 O48           12.6857     4.3525     6.0382 O.3     
  49 C49           11.4814     4.3173     5.4373 C.2     
  50 O50           11.3902     3.9590     4.2798 O.2     
  51 H51            1.0749    -0.9987    -0.1557 H       
  52 H52            0.8417    -0.9348     1.6078 H       
  53 H53            2.3470    -3.1415     0.1314 H       
  54 H54            1.3781    -2.9295     3.0189 H       
  55 H55            2.3084    -4.2726     2.3070 H       
  56 H56            3.5484    -1.0302     0.2041 H       
  57 H57            2.7888     0.4416     0.8535 H       
  58 H58            4.3308    -4.2211     3.0639 H       
  59 H59            6.2245    -3.0825     4.1685 H       
  60 H60            6.4519    -2.5884     2.4667 H       
  61 H61            4.8774    -1.0365     4.5907 H       
  62 H62            5.4121    -0.7036     1.5743 H       
  63 H63            7.5284    -0.4841     3.1196 H       
  64 H64            5.1764     1.5881     1.8016 H       
  65 H65            4.1201     1.4433     3.2378 H       
  66 H66            3.0359    -0.4175     4.4006 H       
  67 H67            2.4835     0.7753     3.2005 H       
  68 H68            1.5826    -0.7433     3.4258 H       
  69 H69            9.2604     2.6987     7.2843 H       
  70 H70            8.3920     5.0542     5.5000 H       
  71 H71            8.7141     3.5646     3.7031 H       
  72 H72            7.6961     5.2525     7.7585 H       
  73 H73            7.8544     3.9362     8.9538 H       
  74 H74           10.3088     4.1234     8.8779 H       
  75 H75            9.9651     6.5225     7.0501 H       
  76 H76           11.4782     5.7464     7.5623 H       
  77 H77            6.6063     4.0137     3.0068 H       
  78 H78            5.0324     3.4481     3.6158 H       
  79 H79            6.1749     4.2549     4.7167 H       
  80 H80           10.9392     2.6598     5.4109 H       
  81 H81           10.0944     1.2935     4.6442 H       
  82 H82           10.7847     2.5902     3.6390 H       
  83 H83            9.0761     5.5617    10.4568 H       
  84 H84           10.5422     6.3832     9.8703 H       
  85 H85            8.9489     6.8304     9.2148 H       
  86 H86            6.5071    -0.0604     5.9945 H       
  87 H87            7.7470    -1.2407     5.4945 H       
  88 H88            9.1725     0.6214     4.6799 H       
  89 H89            8.8238     0.7703     6.4121 H       
  90 H90           -4.4859    -8.9512     0.5356 H       
  91 H91           -5.6850    -8.4845    -1.5638 H       
  92 H92           -4.6125    -7.1316    -3.3196 H       
  93 H93           -2.3393    -6.2491    -2.9777 H       
  94 H94           -2.2111    -8.0723     0.8758 H       
  95 H95           -0.1853    -7.2431    -0.1746 H       
  96 H96           -0.2390    -6.4819    -1.7827 H       
  97 H97           17.5137     6.2482     6.8796 H       
  98 H98           18.2760     4.3153     8.2010 H       
  99 H99           16.9910     2.2152     8.1647 H       
 100 H100          14.9460     2.0465     6.8035 H       
 101 H101          15.4710     6.0781     5.5151 H       
 102 H102          13.9185     4.6010     4.3739 H       
 103 H103          13.6991     2.9186     4.9119 H       
@<TRIPOS>BOND
   1    1    2 1
   2    1    6 1
   3    1   51 1
   4    1   52 1
   5    2    3 1
   6    2   30 1
   7    2   53 1
   8    3    4 1
   9    3   54 1
  10    3   55 1
  11    4    5 1
  12    4    7 2
  13    5    6 1
  14    5   14 1
  15    5   10 1
  16    6   56 1
  17    6   57 1
  18    7    8 1
  19    7   58 1
  20    8    9 1
  21    8   59 1
  22    8   60 1
  23    9   10 1
  24    9   11 1
  25    9   61 1
  26   10   13 1
  27   10   62 1
  28   11   12 1
  29   11   28 1
  30   11   63 1
  31   12   13 1
  32   12   16 2
  33   13   64 1
  34   13   65 1
  35   14   66 1
  36   14   67 1
  37   14   68 1
  38   15   16 1
  39   15   17 1
  40   15   29 1
  41   15   20 1
  42   16   25 1
  43   17   18 1
  44   18   19 1
  45   18   21 1
  46   18   69 1
  47   19   20 1
  48   19   24 1
  49   19   70 1
  50   20   26 1
  51   20   71 1
  52   21   22 1
  53   21   72 1
  54   21   73 1
  55   22   23 1
  56   22   27 1
  57   22   74 1
  58   23   24 1
  59   23   75 1
  60   23   76 1
  61   24   49 am
  62   25   77 1
  63   25   78 1
  64   25   79 1
  65   26   80 1
  66   26   81 1
  67   26   82 1
  68   27   83 1
  69   27   84 1
  70   27   85 1
  71   28   29 1
  72   28   86 1
  73   28   87 1
  74   29   88 1
  75   29   89 1
  76   30   39 1
  77   31   32 ar
  78   31   36 ar
  79   31   90 1
  80   32   33 ar
  81   32   91 1
  82   33   34 ar
  83   33   92 1
  84   34   35 ar
  85   34   93 1
  86   35   36 ar
  87   35   37 1
  88   36   94 1
  89   37   38 1
  90   37   95 1
  91   37   96 1
  92   38   39 1
  93   39   40 2
  94   41   42 ar
  95   41   46 ar
  96   41   97 1
  97   42   43 ar
  98   42   98 1
  99   43   44 ar
 100   43   99 1
 101   44   45 ar
 102   44  100 1
 103   45   46 ar
 104   45   47 1
 105   46  101 1
 106   47   48 1
 107   47  102 1
 108   47  103 1
 109   48   49 1
 110   49   50 2

#	End of record

