#	Name: ASD01150917
#	Creating user name:	WinNT
#	Creation time:	15. 06. 2019 19:05

#	Modifying user name:	WinNT
#	Modification time:	15. 06. 2019 19:05

#	Program:	/corina/corina34_cracker 3.40 0067  02.08.2006

@<TRIPOS>MOLECULE
ASD01150917
  66   69    0    0    0
SMALL
NO_CHARGES


@<TRIPOS>ATOM
   1 C1            -0.0184     1.5028     0.0103 C.3     
   2 C2             0.0021    -0.0041     0.0020 C.2     
   3 N3            -1.1558    -0.6938     0.0094 N.am    
   4 O4             1.0604    -0.5961    -0.0113 O.2     
   5 C5            -1.1370    -2.0846     0.0017 C.2     
   6 N6            -0.0479    -2.8568    -0.0124 N.2     
   7 C7            -0.3960    -4.1274    -0.0155 C.2     
   8 N8            -1.7505    -4.2227    -0.0034 N.pl3   
   9 C9            -2.2477    -2.9185     0.0134 C.2     
  10 C10           -3.6019    -2.5272     0.0301 C.2     
  11 O11           -4.5753    -3.4633     0.0308 O.3     
  12 O12           -3.8940    -1.3450     0.0438 O.2     
  13 C13           -5.9254    -2.9954     0.0481 C.3     
  14 C14           -6.8797    -4.1913     0.0462 C.3     
  15 S15            0.7212    -5.4899    -0.0338 S.3     
  16 C16            2.2988    -4.6026    -0.0440 C.3     
  17 C17           -2.5388    -5.4575    -0.0027 C.3     
  18 C18           -2.7963    -5.8883     1.4183 C.ar    
  19 C19           -3.9235    -5.4417     2.0824 C.ar    
  20 C20           -4.1596    -5.8369     3.3859 C.ar    
  21 C21           -3.2689    -6.6789     4.0250 C.ar    
  22 C22           -2.1423    -7.1262     3.3606 C.ar    
  23 C23           -1.9084    -6.7345     2.0557 C.ar    
  24 C24            1.3954     2.0244    -0.0004 C.ar    
  25 C25            2.0315     2.2697    -1.2033 C.ar    
  26 C26            3.3275     2.7479    -1.2158 C.ar    
  27 C27            3.9908     2.9819    -0.0200 C.ar    
  28 C28            3.3504     2.7350     1.1856 C.ar    
  29 C29            2.0524     2.2622     1.1928 C.ar    
  30 O30            5.2659     3.4519    -0.0297 O.3     
  31 C31            5.8867     3.6697     1.2389 C.3     
  32 C32            7.2866     4.1873     1.0308 C.ar    
  33 C33            7.5147     5.5480     0.9452 C.ar    
  34 C34            8.7988     6.0229     0.7543 C.ar    
  35 C35            9.8549     5.1371     0.6495 C.ar    
  36 C36            9.6269     3.7764     0.7361 C.ar    
  37 C37            8.3433     3.3017     0.9313 C.ar    
  38 H38           -0.5455     1.8639    -0.8728 H       
  39 H39           -0.5286     1.8543     0.9071 H       
  40 H40           -2.0023    -0.2203     0.0200 H       
  41 H41           -6.0918    -2.3992     0.9452 H       
  42 H42           -6.1089    -2.3827    -0.8346 H       
  43 H43           -6.7133    -4.7875    -0.8510 H       
  44 H44           -6.6962    -4.8040     0.9288 H       
  45 H45           -7.9095    -3.8343     0.0594 H       
  46 H46            3.1192    -5.3202    -0.0559 H       
  47 H47            2.3551    -3.9718    -0.9312 H       
  48 H48            2.3722    -3.9816     0.8487 H       
  49 H49           -3.4891    -5.2822    -0.5071 H       
  50 H50           -1.9889    -6.2400    -0.5256 H       
  51 H51           -4.6193    -4.7839     1.5831 H       
  52 H52           -5.0399    -5.4874     3.9050 H       
  53 H53           -3.4531    -6.9870     5.0436 H       
  54 H54           -1.4462    -7.7838     3.8601 H       
  55 H55           -1.0281    -7.0840     1.5365 H       
  56 H56            1.5148     2.0870    -2.1339 H       
  57 H57            3.8240     2.9390    -2.1557 H       
  58 H58            3.8647     2.9164     2.1178 H       
  59 H59            1.5534     2.0698     2.1311 H       
  60 H60            5.3094     4.4005     1.8052 H       
  61 H61            5.9249     2.7304     1.7907 H       
  62 H62            6.6897     6.2401     1.0270 H       
  63 H63            8.9770     7.0860     0.6866 H       
  64 H64           10.8580     5.5080     0.4997 H       
  65 H65           10.4519     3.0843     0.6539 H       
  66 H66            8.1652     2.2387     0.9990 H       
@<TRIPOS>BOND
   1    1    2 1
   2    1   24 1
   3    1   38 1
   4    1   39 1
   5    2    3 am
   6    2    4 2
   7    3    5 1
   8    3   40 1
   9    5    6 1
  10    5    9 2
  11    6    7 2
  12    7    8 1
  13    7   15 1
  14    8    9 1
  15    8   17 1
  16    9   10 1
  17   10   11 1
  18   10   12 2
  19   11   13 1
  20   13   14 1
  21   13   41 1
  22   13   42 1
  23   14   43 1
  24   14   44 1
  25   14   45 1
  26   15   16 1
  27   16   46 1
  28   16   47 1
  29   16   48 1
  30   17   18 1
  31   17   49 1
  32   17   50 1
  33   18   19 ar
  34   18   23 ar
  35   19   20 ar
  36   19   51 1
  37   20   21 ar
  38   20   52 1
  39   21   22 ar
  40   21   53 1
  41   22   23 ar
  42   22   54 1
  43   23   55 1
  44   24   25 ar
  45   24   29 ar
  46   25   26 ar
  47   25   56 1
  48   26   27 ar
  49   26   57 1
  50   27   28 ar
  51   27   30 1
  52   28   29 ar
  53   28   58 1
  54   29   59 1
  55   30   31 1
  56   31   32 1
  57   31   60 1
  58   31   61 1
  59   32   33 ar
  60   32   37 ar
  61   33   34 ar
  62   33   62 1
  63   34   35 ar
  64   34   63 1
  65   35   36 ar
  66   35   64 1
  67   36   37 ar
  68   36   65 1
  69   37   66 1

#	End of record

