#	Name: ASD01810701
#	Creating user name:	WinNT
#	Creation time:	15. 06. 2019 19:25

#	Modifying user name:	WinNT
#	Modification time:	15. 06. 2019 19:25

#	Program:	/corina/corina34_cracker 3.40 0067  02.08.2006

@<TRIPOS>MOLECULE
ASD01810701
  20   20    0    0    0
SMALL
NO_CHARGES


@<TRIPOS>ATOM
   1 C1            -0.0187     1.5267     0.0104 C.3     
   2 C2             0.0021    -0.0041     0.0020 C.3     
   3 C3             0.7722    -0.4897    -1.2298 C.3     
   4 C4             2.1813     0.1106    -1.2068 C.3     
   5 C5             2.0763     1.6370    -1.1517 C.3     
   6 O6             1.3225     2.0200     0.0003 O.3     
   7 O7             0.6460    -0.4794     1.1858 O.3     
   8 C8             0.8660    -2.0167    -1.2056 C.3     
   9 H9            -0.5456     1.8879    -0.8727 H       
  10 H10           -0.5286     1.8784     0.9073 H       
  11 H11           -1.0196    -0.3820    -0.0348 H       
  12 H12            0.2540    -0.1692    -2.1336 H       
  13 H13            2.7164    -0.2496    -0.3283 H       
  14 H14            2.7180    -0.1853    -2.1082 H       
  15 H15            3.0756     2.0681    -1.0920 H       
  16 H16            1.5768     1.9997    -2.0501 H       
  17 H17            0.2136    -0.2049     2.0061 H       
  18 H18           -0.1373    -2.4425    -1.2140 H       
  19 H19            1.4142    -2.3609    -2.0825 H       
  20 H20            1.3880    -2.3343    -0.3030 H       
@<TRIPOS>BOND
   1    1    2 1
   2    1    6 1
   3    1    9 1
   4    1   10 1
   5    2    3 1
   6    2    7 1
   7    2   11 1
   8    3    4 1
   9    3    8 1
  10    3   12 1
  11    4    5 1
  12    4   13 1
  13    4   14 1
  14    5    6 1
  15    5   15 1
  16    5   16 1
  17    7   17 1
  18    8   18 1
  19    8   19 1
  20    8   20 1

#	End of record

