#	Name: ASD01880843
#	Creating user name:	WinNT
#	Creation time:	15. 06. 2019 19:41

#	Modifying user name:	WinNT
#	Modification time:	15. 06. 2019 19:41

#	Program:	/corina/corina34_cracker 3.40 0067  02.08.2006

@<TRIPOS>MOLECULE
ASD01880843
  53   55    0    0    0
SMALL
NO_CHARGES


@<TRIPOS>ATOM
   1 N1            -0.0158     1.3136     0.0093 N.ar    
   2 C2             0.0021    -0.0041     0.0020 C.ar    
   3 N3             1.1319    -0.6827    -0.0124 N.ar    
   4 C4             2.2989    -0.0581    -0.0202 C.ar    
   5 C5             2.3222     1.3269    -0.0130 C.ar    
   6 C6             1.1127     2.0071     0.0022 C.ar    
   7 C7             3.6294     2.0768    -0.0210 C.3     
   8 O8             4.0302     2.3210    -1.3707 O.3     
   9 C9             5.1956     2.9914    -1.5556 C.ar    
  10 C10            5.6445     3.2627    -2.8444 C.ar    
  11 C11            6.8233     3.9413    -3.0301 C.ar    
  12 C12            7.5780     4.3630    -1.9304 C.ar    
  13 C13            7.1223     4.0884    -0.6380 C.ar    
  14 C14            5.9366     3.4115    -0.4574 C.ar    
  15 C15            7.5762     4.3864    -4.2590 C.3     
  16 N16            8.7800     5.0724    -3.7759 N.am    
  17 C17            8.7770     5.0566    -2.4320 C.2     
  18 O18            9.6409     5.5456    -1.7299 O.2     
  19 Cl19           1.0791     3.7428     0.0113 Cl      
  20 C20            7.5683     5.9845     0.8966 C.3     
  21 C21            7.9251     4.5361     0.5562 C.3     
  22 C22            4.0068    -1.1018    -1.4840 C.3     
  23 C23            3.5850    -0.8433    -0.0362 C.3     
  24 C24            9.4574     7.1357    -4.9008 C.3     
  25 C25            9.8150     5.6749    -4.6196 C.3     
  26 C26           -1.7608    -1.0016    -1.4284 C.3     
  27 C27           -1.3044    -0.7552     0.0110 C.3     
  28 H28            3.5065     3.0268     0.4991 H       
  29 H29            4.3921     1.4829     0.4827 H       
  30 H30            5.0666     2.9394    -3.6976 H       
  31 H31            5.5849     3.1999     0.5415 H       
  32 H32            7.8541     3.5218    -4.8618 H       
  33 H33            6.9643     5.0717    -4.8456 H       
  34 H34            8.1489     6.3083     1.7604 H       
  35 H35            7.7966     6.6248     0.0446 H       
  36 H36            6.5052     6.0521     1.1274 H       
  37 H37            7.6968     3.8958     1.4082 H       
  38 H38            8.9882     4.4685     0.3254 H       
  39 H39            3.2281    -1.6695    -1.9935 H       
  40 H40            4.1556    -0.1503    -1.9945 H       
  41 H41            4.9370    -1.6697    -1.4956 H       
  42 H42            4.3637    -0.2756     0.4732 H       
  43 H43            3.4362    -1.7948     0.4743 H       
  44 H44            8.4972     7.1823    -5.4146 H       
  45 H45            9.3926     7.6815    -3.9595 H       
  46 H46           10.2275     7.5840    -5.5285 H       
  47 H47           10.7752     5.6283    -4.1058 H       
  48 H48            9.8798     5.1291    -5.5609 H       
  49 H49           -1.8945    -0.0462    -1.9358 H       
  50 H50           -1.0074    -1.5893    -1.9529 H       
  51 H51           -2.7058    -1.5449    -1.4219 H       
  52 H52           -1.1707    -1.7106     0.5184 H       
  53 H53           -2.0578    -0.1675     0.5355 H       
@<TRIPOS>BOND
   1    1    2 ar
   2    1    6 ar
   3    2    3 ar
   4    2   27 1
   5    3    4 ar
   6    4    5 ar
   7    4   23 1
   8    5    6 ar
   9    5    7 1
  10    6   19 1
  11    7    8 1
  12    7   28 1
  13    7   29 1
  14    8    9 1
  15    9   10 ar
  16    9   14 ar
  17   10   11 ar
  18   10   30 1
  19   11   12 ar
  20   11   15 1
  21   12   13 ar
  22   12   17 1
  23   13   14 ar
  24   13   21 1
  25   14   31 1
  26   15   16 1
  27   15   32 1
  28   15   33 1
  29   16   17 am
  30   16   25 1
  31   17   18 2
  32   20   21 1
  33   20   34 1
  34   20   35 1
  35   20   36 1
  36   21   37 1
  37   21   38 1
  38   22   23 1
  39   22   39 1
  40   22   40 1
  41   22   41 1
  42   23   42 1
  43   23   43 1
  44   24   25 1
  45   24   44 1
  46   24   45 1
  47   24   46 1
  48   25   47 1
  49   25   48 1
  50   26   27 1
  51   26   49 1
  52   26   50 1
  53   26   51 1
  54   27   52 1
  55   27   53 1

#	End of record

