#	Name: ASD01001246
#	Creating user name:	WinNT
#	Creation time:	15. 06. 2019 18:55

#	Modifying user name:	WinNT
#	Modification time:	15. 06. 2019 18:55

#	Program:	/corina/corina34_cracker 3.40 0067  02.08.2006

@<TRIPOS>MOLECULE
ASD01001246
  52   54    0    0    0
SMALL
NO_CHARGES


@<TRIPOS>ATOM
   1 C1             0.2489     0.7531    -0.8555 C.ar    
   2 C2             0.1272    -0.5861    -0.5351 C.ar    
   3 C3            -1.1027    -1.1003    -0.1695 C.ar    
   4 C4            -2.2109    -0.2753    -0.1239 C.ar    
   5 C5            -2.0891     1.0641    -0.4434 C.ar    
   6 C6            -0.8582     1.5793    -0.8048 C.ar    
   7 C7            -3.5520    -0.8361     0.2736 C.3     
   8 C8            -4.0246    -1.8034    -0.7809 C.ar    
   9 C9            -3.4254    -1.5536     1.5928 C.ar    
  10 C10           -3.3273    -1.9266    -1.9681 C.ar    
  11 C11           -3.7608    -2.8139    -2.9354 C.ar    
  12 C12           -4.8914    -3.5782    -2.7154 C.ar    
  13 C13           -5.5882    -3.4556    -1.5278 C.ar    
  14 C14           -5.1522    -2.5715    -0.5587 C.ar    
  15 C15           -3.5445    -2.9298     1.6454 C.ar    
  16 C16           -3.4284    -3.5879     2.8555 C.ar    
  17 C17           -3.1927    -2.8698     4.0129 C.ar    
  18 C18           -3.0726    -1.4937     3.9603 C.ar    
  19 C19           -3.1844    -0.8360     2.7495 C.ar    
  20 C20           -4.5623     0.3050     0.4086 C.3     
  21 C21           -5.8837    -0.2451     0.9491 C.3     
  22 C22           -6.8452     0.9135     1.2212 C.3     
  23 N23           -6.3055     1.7553     2.2973 N.3     
  24 C24           -8.1865     0.3662     1.6364 C.2     
  25 O25           -9.0446    -0.0835     0.7073 O.3     
  26 C26            1.5898     1.3137    -1.2541 C.3     
  27 O27           -8.4896     0.3323     2.8055 O.2     
  28 H28            0.9931    -1.2307    -0.5707 H       
  29 H29           -1.1979    -2.1468     0.0801 H       
  30 H30           -2.9550     1.7086    -0.4081 H       
  31 H31           -0.7630     2.6257    -1.0544 H       
  32 H32           -2.4439    -1.3295    -2.1400 H       
  33 H33           -3.2164    -2.9097    -3.8632 H       
  34 H34           -5.2305    -4.2709    -3.4714 H       
  35 H35           -6.4718    -4.0525    -1.3560 H       
  36 H36           -5.6966    -2.4757     0.3691 H       
  37 H37           -3.7286    -3.4908     0.7411 H       
  38 H38           -3.5222    -4.6630     2.8966 H       
  39 H39           -3.1027    -3.3839     4.9585 H       
  40 H40           -2.8888    -0.9327     4.8646 H       
  41 H41           -3.0906     0.2391     2.7084 H       
  42 H42           -4.1728     1.0557     1.0962 H       
  43 H43           -4.7301     0.7590    -0.5680 H       
  44 H44           -6.3248    -0.9183     0.2141 H       
  45 H45           -5.6990    -0.7892     1.8754 H       
  46 H46           -6.9605     1.5101     0.3163 H       
  47 H47           -6.8899     2.5632     2.4521 H       
  48 H48           -6.1893     1.2248     3.1477 H       
  49 H49           -9.8928    -0.4253     1.0218 H       
  50 H50            1.7113     1.2318    -2.3342 H       
  51 H51            1.6472     2.3619    -0.9605 H       
  52 H52            2.3806     0.7530    -0.7559 H       
@<TRIPOS>BOND
   1    1    2 ar
   2    1   26 1
   3    1    6 ar
   4    2    3 ar
   5    2   28 1
   6    3    4 ar
   7    3   29 1
   8    4    5 ar
   9    4    7 1
  10    5    6 ar
  11    5   30 1
  12    6   31 1
  13    7    8 1
  14    7    9 1
  15    7   20 1
  16    8   10 ar
  17    8   14 ar
  18    9   15 ar
  19    9   19 ar
  20   10   11 ar
  21   10   32 1
  22   11   12 ar
  23   11   33 1
  24   12   13 ar
  25   12   34 1
  26   13   14 ar
  27   13   35 1
  28   14   36 1
  29   15   16 ar
  30   15   37 1
  31   16   17 ar
  32   16   38 1
  33   17   18 ar
  34   17   39 1
  35   18   19 ar
  36   18   40 1
  37   19   41 1
  38   20   21 1
  39   20   42 1
  40   20   43 1
  41   21   22 1
  42   21   44 1
  43   21   45 1
  44   22   23 1
  45   22   24 1
  46   22   46 1
  47   23   47 1
  48   23   48 1
  49   24   25 1
  50   24   27 2
  51   25   49 1
  52   26   50 1
  53   26   51 1
  54   26   52 1

#	End of record

