#	Name: ASD01918147
#	Creating user name:	WinNT
#	Creation time:	15. 06. 2019 20:10

#	Modifying user name:	WinNT
#	Modification time:	15. 06. 2019 20:10

#	Program:	/corina/corina34_cracker 3.40 0067  02.08.2006

@<TRIPOS>MOLECULE
ASD01918147
  34   36    0    0    0
SMALL
NO_CHARGES


@<TRIPOS>ATOM
   1 C1            -0.0510     1.5111    -0.4617 C.ar    
   2 C2            -0.0808     0.2942    -1.1378 C.ar    
   3 C3             1.0999    -0.2415    -1.6193 C.ar    
   4 N4             2.2463     0.3819    -1.4474 N.ar    
   5 C5             2.3218     1.5441    -0.8090 C.ar    
   6 C6             1.1772     2.1460    -0.2959 C.ar    
   7 O7            -1.1919     2.0676     0.0190 O.3     
   8 C8            -2.3430     1.3527    -0.0840 C.ar    
   9 C9            -4.3289     0.7430    -1.2578 C.ar    
  10 C10           -3.1637     1.4944    -1.1979 C.ar    
  11 C11           -2.7132     0.4669     0.9182 C.ar    
  12 N12           -3.8282    -0.2294     0.8237 N.ar    
  13 C13           -4.6324    -0.1161    -0.2152 C.ar    
  14 C14            3.6367     2.2053    -0.6413 C.2     
  15 N15            4.7494     1.6274    -1.1355 N.am    
  16 O16            3.7120     3.2688    -0.0581 O.2     
  17 C17            5.9822     2.2473    -0.9783 C.2     
  18 N18            7.1092     1.7812    -1.4181 N.2     
  19 S19            6.2335     3.7397    -0.1830 S.3     
  20 C20            7.9618     3.6339    -0.5080 C.2     
  21 C21            8.1881     2.5031    -1.1797 C.2     
  22 C22            9.5638     2.0853    -1.6312 C.3     
  23 F23           -5.1565     0.8480    -2.3205 F       
  24 H24           -1.0158    -0.2261    -1.2842 H       
  25 H25            1.0810    -1.1853    -2.1439 H       
  26 H26            1.2402     3.0913     0.2226 H       
  27 H27           -2.9009     2.1725    -1.9963 H       
  28 H28           -2.0803     0.3466     1.7850 H       
  29 H29           -5.5377    -0.7037    -0.2550 H       
  30 H30            4.6893     0.7785    -1.6010 H       
  31 H31            8.7074     4.3593    -0.2178 H       
  32 H32            9.7566     2.4856    -2.6266 H       
  33 H33           10.3077     2.4710    -0.9341 H       
  34 H34            9.6221     0.9973    -1.6596 H       
@<TRIPOS>BOND
   1    1    2 ar
   2    1    6 ar
   3    1    7 1
   4    2    3 ar
   5    2   24 1
   6    3    4 ar
   7    3   25 1
   8    4    5 ar
   9    5    6 ar
  10    5   14 1
  11    6   26 1
  12    7    8 1
  13    8   11 ar
  14    8   10 ar
  15    9   10 ar
  16    9   13 ar
  17    9   23 1
  18   10   27 1
  19   11   12 ar
  20   11   28 1
  21   12   13 ar
  22   13   29 1
  23   14   15 am
  24   14   16 2
  25   15   17 1
  26   15   30 1
  27   17   19 1
  28   17   18 2
  29   18   21 1
  30   19   20 1
  31   20   21 2
  32   20   31 1
  33   21   22 1
  34   22   32 1
  35   22   33 1
  36   22   34 1

#	End of record

