#	Name: ASD03090854
#	Creating user name:	WinNT
#	Creation time:	15. 06. 2019 20:29

#	Modifying user name:	WinNT
#	Modification time:	15. 06. 2019 20:29

#	Program:	/corina/corina34_cracker 3.40 0067  02.08.2006

@<TRIPOS>MOLECULE
ASD03090854
  43   45    0    0    0
SMALL
NO_CHARGES


@<TRIPOS>ATOM
   1 N1            -0.0153     1.3320     0.0571 N.2     
   2 C2             0.0031    -0.0039     0.0706 C.2     
   3 O3             1.0668    -0.5989     0.0536 O.2     
   4 N4            -1.1544    -0.6935     0.1029 N.am    
   5 C5            -1.1341    -2.1583     0.1177 C.3     
   6 C6            -2.4207    -2.6797     0.7609 C.3     
   7 C7            -1.0327    -2.6814    -1.3165 C.3     
   8 O8            -3.5389    -2.3252    -0.0553 O.3     
   9 C9            -4.7969    -2.7674     0.4585 C.3     
  10 S10            2.7229     1.3646    -0.0035 S.3     
  11 C11            1.1278     2.0130     0.0251 C.2     
  12 N12            1.2769     3.3616     0.0079 N.pl3   
  13 C13            2.5513     3.8402    -0.0253 C.2     
  14 C14            3.5279     2.9428    -0.0376 C.2     
  15 C15            5.0107     3.2094    -0.0732 C.3     
  16 O16           -3.2352     6.5418     0.0475 O.3     
  17 C17           -4.1880     5.5034     0.3424 C.3     
  18 O18           -3.5467     4.3053    -0.1334 O.3     
  19 C19           -2.2066     4.5537    -0.0563 C.ar    
  20 C20           -2.0144     5.9293     0.0550 C.ar    
  21 C21           -1.1141     3.7035    -0.0723 C.ar    
  22 C22            0.1702     4.2224     0.0231 C.ar    
  23 C23            0.3585     5.5931     0.1339 C.ar    
  24 C24           -0.7313     6.4428     0.1494 C.ar    
  25 F25           -4.4178     5.4239     1.7201 F       
  26 F26           -5.3860     5.7259    -0.3450 F       
  27 H27           -2.0008    -0.2200     0.1165 H       
  28 H28           -0.2748    -2.5041     0.6921 H       
  29 H29           -2.3673    -3.7645     0.8527 H       
  30 H30           -2.5379    -2.2367     1.7499 H       
  31 H31           -1.8921    -2.3357    -1.8910 H       
  32 H32           -0.1161    -2.3100    -1.7748 H       
  33 H33           -1.0177    -3.7713    -1.3056 H       
  34 H34           -5.5941    -2.4592    -0.2179 H       
  35 H35           -4.7927    -3.8540     0.5440 H       
  36 H36           -4.9633    -2.3262     1.4412 H       
  37 H37            2.7571     4.9003    -0.0411 H       
  38 H38            5.5502     2.2623    -0.0758 H       
  39 H39            5.2575     3.7706    -0.9745 H       
  40 H40            5.2970     3.7882     0.8050 H       
  41 H41           -1.2609     2.6370    -0.1581 H       
  42 H42            1.3578     5.9960     0.2083 H       
  43 H43           -0.5824     7.5090     0.2357 H       
@<TRIPOS>BOND
   1    1    2 1
   2    1   11 2
   3    2    3 2
   4    2    4 am
   5    4    5 1
   6    4   27 1
   7    5    6 1
   8    5    7 1
   9    5   28 1
  10    6    8 1
  11    6   29 1
  12    6   30 1
  13    7   31 1
  14    7   32 1
  15    7   33 1
  16    8    9 1
  17    9   34 1
  18    9   35 1
  19    9   36 1
  20   10   11 1
  21   10   14 1
  22   11   12 1
  23   12   13 1
  24   12   22 1
  25   13   14 2
  26   13   37 1
  27   14   15 1
  28   15   38 1
  29   15   39 1
  30   15   40 1
  31   16   17 1
  32   16   20 1
  33   17   18 1
  34   17   25 1
  35   17   26 1
  36   18   19 1
  37   19   20 ar
  38   19   21 ar
  39   20   24 ar
  40   21   22 ar
  41   21   41 1
  42   22   23 ar
  43   23   24 ar
  44   23   42 1
  45   24   43 1

#	End of record

