#	Name: ASD03330867
#	Creating user name:	WinNT
#	Creation time:	15. 06. 2019 20:38

#	Modifying user name:	WinNT
#	Modification time:	15. 06. 2019 20:38

#	Program:	/corina/corina34_cracker 3.40 0067  02.08.2006

@<TRIPOS>MOLECULE
ASD03330867
  60   62    0    0    0
SMALL
NO_CHARGES


@<TRIPOS>ATOM
   1 C1            -0.0196     1.2417     0.1838 C.2     
   2 C2            -0.0394    -0.2322     0.4966 C.3     
   3 N3             1.1232     1.9844     0.1139 N.pl3   
   4 N4             1.3300    -0.7513     0.3279 N.3     
   5 C5             2.3054     0.0785     1.0488 C.3     
   6 C6             2.4610     1.4311     0.3415 C.3     
   7 C7             0.7637     3.2590    -0.1899 C.2     
   8 N8            -0.5451     3.3088    -0.3009 N.2     
   9 C9            -1.0558     2.0754    -0.0801 C.2     
  10 C10           -2.4817     1.7056    -0.1166 C.2     
  11 O11           -2.8180     0.5576     0.1031 O.2     
  12 N12           -3.4133     2.6394    -0.3936 N.am    
  13 C13            1.4169    -2.1549     0.7526 C.3     
  14 C14            1.6895     4.3990    -0.3655 C.ar    
  15 C15            1.4284     5.6187     0.2647 C.ar    
  16 C16            2.2987     6.6792     0.0961 C.ar    
  17 C17            3.4246     6.5340    -0.6939 C.ar    
  18 C18            3.6873     5.3287    -1.3204 C.ar    
  19 C19            2.8302     4.2599    -1.1562 C.ar    
  20 C20            4.3694     7.6942    -0.8737 C.3     
  21 F21            5.3495     7.6563     0.1238 F       
  22 F22            4.9790     7.6088    -2.1300 F       
  23 F23            3.6567     8.8945    -0.7818 F       
  24 F24            0.3285     5.7611     1.0361 F       
  25 C25           -5.5776     3.2364    -1.3146 C.2     
  26 C26           -4.8309     2.2716    -0.4299 C.3     
  27 C27           -5.4084     2.3263     0.9859 C.3     
  28 C28           -5.3320     3.7607     1.5127 C.3     
  29 O29           -5.1611     4.3650    -1.4684 O.2     
  30 N30           -6.7083     2.8450    -1.9349 N.am    
  31 C31           -7.4927     3.8120    -2.7068 C.3     
  32 C32           -6.8685     1.8699     0.9591 C.3     
  33 C33           -4.6022     1.4031     1.9016 C.3     
  34 H34           -0.3680    -0.3864     1.5244 H       
  35 H35           -0.7149    -0.7452    -0.1880 H       
  36 H36            1.9589     0.2407     2.0694 H       
  37 H37            3.2685    -0.4315     1.0711 H       
  38 H38            2.9687     1.2917    -0.6129 H       
  39 H39            3.0378     2.1099     0.9698 H       
  40 H40           -3.1451     3.5549    -0.5689 H       
  41 H41            0.7376    -2.7592     0.1515 H       
  42 H42            2.4376    -2.5128     0.6177 H       
  43 H43            1.1401    -2.2342     1.8039 H       
  44 H44            2.0990     7.6230     0.5817 H       
  45 H45            4.5680     5.2228    -1.9364 H       
  46 H46            3.0397     3.3187    -1.6426 H       
  47 H47           -4.9342     1.2613    -0.8256 H       
  48 H48           -5.9064     4.4185     0.8604 H       
  49 H49           -5.7434     3.7997     2.5214 H       
  50 H50           -4.2918     4.0859     1.5318 H       
  51 H51           -7.0028     1.9230    -1.8703 H       
  52 H52           -8.3651     3.3156    -3.1318 H       
  53 H53           -7.8178     4.6210    -2.0526 H       
  54 H54           -6.8789     4.2190    -3.5104 H       
  55 H55           -6.9172     0.8260     0.6492 H       
  56 H56           -7.3000     1.9739     1.9546 H       
  57 H57           -7.4285     2.4847     0.2544 H       
  58 H58           -3.5620     1.7282     1.9206 H       
  59 H59           -5.0136     1.4420     2.9102 H       
  60 H60           -4.6566     0.3812     1.5262 H       
@<TRIPOS>BOND
   1    1    2 1
   2    1    3 1
   3    1    9 2
   4    2    4 1
   5    2   34 1
   6    2   35 1
   7    3    6 1
   8    3    7 1
   9    4    5 1
  10    4   13 1
  11    5    6 1
  12    5   36 1
  13    5   37 1
  14    6   38 1
  15    6   39 1
  16    7    8 2
  17    7   14 1
  18    8    9 1
  19    9   10 1
  20   10   11 2
  21   10   12 am
  22   12   26 1
  23   12   40 1
  24   13   41 1
  25   13   42 1
  26   13   43 1
  27   14   15 ar
  28   14   19 ar
  29   15   16 ar
  30   15   24 1
  31   16   17 ar
  32   16   44 1
  33   17   18 ar
  34   17   20 1
  35   18   19 ar
  36   18   45 1
  37   19   46 1
  38   20   21 1
  39   20   22 1
  40   20   23 1
  41   25   29 2
  42   25   30 am
  43   25   26 1
  44   26   27 1
  45   26   47 1
  46   27   28 1
  47   27   32 1
  48   27   33 1
  49   28   48 1
  50   28   49 1
  51   28   50 1
  52   30   31 1
  53   30   51 1
  54   31   52 1
  55   31   53 1
  56   31   54 1
  57   32   55 1
  58   32   56 1
  59   32   57 1
  60   33   58 1
  61   33   59 1
  62   33   60 1

#	End of record

