#	Name: ASD01882218
#	Creating user name:	WinNT
#	Creation time:	15. 06. 2019 19:44

#	Modifying user name:	WinNT
#	Modification time:	15. 06. 2019 19:44

#	Program:	/corina/corina34_cracker 3.40 0067  02.08.2006

@<TRIPOS>MOLECULE
ASD01882218
  48   51    0    0    0
SMALL
NO_CHARGES


@<TRIPOS>ATOM
   1 C1            -0.5107     1.9614     0.7618 C.ar    
   2 C2            -0.6132     0.5980     0.9654 C.ar    
   3 C3             0.5294    -0.1710     1.0837 C.ar    
   4 C4             1.7745     0.4234     0.9980 C.ar    
   5 C5             1.8770     1.7867     0.7935 C.ar    
   6 C6             0.7343     2.5559     0.6765 C.ar    
   7 C7             3.2343     2.4348     0.7005 C.3     
   8 C8             3.3841     3.1108    -0.6643 C.3     
   9 C9             4.7775     3.7387    -0.7685 C.3     
  10 N10            4.9776     4.6384     0.3757 N.pl3   
  11 C11            4.7701     4.1131     1.7321 C.3     
  12 C12            3.3767     3.4811     1.8082 C.3     
  13 C13            5.3585     5.9684     0.1777 C.2     
  14 C14            6.5724     6.4257     0.6566 C.2     
  15 C15            4.5118     6.8551    -0.5171 C.2     
  16 C16            4.8805     8.1376    -0.7079 C.2     
  17 N17            6.0754     8.6030    -0.2354 N.pl3   
  18 C18            6.9305     7.7733     0.4414 C.2     
  19 N19            7.4355     5.5620     1.3473 N.pl3   
  20 C20            6.6760     9.8348    -0.2933 C.2     
  21 C21            7.8622     9.7308     0.3433 C.2     
  22 N22            8.0029     8.4771     0.7821 N.2     
  23 C23            6.1169    11.0727    -0.9460 C.3     
  24 C24            6.6631    11.1891    -2.3705 C.3     
  25 F25            6.2858    10.0619    -3.1082 F       
  26 F26            6.1440    12.3383    -2.9765 F       
  27 F27            8.0589    11.2737    -2.3292 F       
  28 H28           -1.4034     2.5615     0.6649 H       
  29 H29           -1.5859     0.1336     1.0324 H       
  30 H30            0.4494    -1.2361     1.2436 H       
  31 H31            2.6672    -0.1772     1.0911 H       
  32 H32            0.8144     3.6209     0.5164 H       
  33 H33            4.0079     1.6757     0.8165 H       
  34 H34            3.2593     2.3692    -1.4533 H       
  35 H35            2.6264     3.8871    -0.7709 H       
  36 H36            5.5340     2.9541    -0.7530 H       
  37 H37            4.8546     4.3052    -1.6966 H       
  38 H38            5.5259     3.3590     1.9515 H       
  39 H39            4.8423     4.9266     2.4540 H       
  40 H40            2.6191     4.2539     1.6784 H       
  41 H41            3.2467     3.0029     2.7791 H       
  42 H42            3.5638     6.5057    -0.8987 H       
  43 H43            4.2223     8.8068    -1.2421 H       
  44 H44            7.2255     4.6173     1.4134 H       
  45 H45            8.2423     5.9094     1.7587 H       
  46 H46            8.5792    10.5279     0.4735 H       
  47 H47            5.0293    11.0068    -0.9782 H       
  48 H48            6.4108    11.9509    -0.3713 H       
@<TRIPOS>BOND
   1    1    2 ar
   2    1    6 ar
   3    1   28 1
   4    2    3 ar
   5    2   29 1
   6    3    4 ar
   7    3   30 1
   8    4    5 ar
   9    4   31 1
  10    5    6 ar
  11    5    7 1
  12    6   32 1
  13    7    8 1
  14    7   12 1
  15    7   33 1
  16    8    9 1
  17    8   34 1
  18    8   35 1
  19    9   10 1
  20    9   36 1
  21    9   37 1
  22   10   11 1
  23   10   13 1
  24   11   12 1
  25   11   38 1
  26   11   39 1
  27   12   40 1
  28   12   41 1
  29   13   14 2
  30   13   15 1
  31   14   19 1
  32   14   18 1
  33   15   16 2
  34   15   42 1
  35   16   17 1
  36   16   43 1
  37   17   18 1
  38   17   20 1
  39   18   22 2
  40   19   44 1
  41   19   45 1
  42   20   21 2
  43   20   23 1
  44   21   22 1
  45   21   46 1
  46   23   24 1
  47   23   47 1
  48   23   48 1
  49   24   25 1
  50   24   26 1
  51   24   27 1

#	End of record

