#	Name: ASD02270016
#	Creating user name:	WinNT
#	Creation time:	15. 06. 2019 20:20

#	Modifying user name:	WinNT
#	Modification time:	15. 06. 2019 20:20

#	Program:	/corina/corina34_cracker 3.40 0067  02.08.2006

@<TRIPOS>MOLECULE
ASD02270016
  61   65    0    0    0
SMALL
NO_CHARGES


@<TRIPOS>ATOM
   1 C1            -0.4252     1.7298     0.6751 C.ar    
   2 C2            -0.9575     0.8131     1.5683 C.ar    
   3 C3            -0.5683     0.8385     2.8936 C.ar    
   4 C4             0.3505     1.7755     3.3333 C.ar    
   5 C5             0.8861     2.6934     2.4506 C.ar    
   6 C6             0.5023     2.6751     1.1188 C.ar    
   7 N7             0.8514     3.4462     0.0126 N.am    
   8 C8             0.1690     2.9903    -1.0548 C.2     
   9 N9            -0.6062     1.9525    -0.6879 N.am    
  10 O10            0.2441     3.4452    -2.1809 O.2     
  11 C11            1.7995     4.5630     0.0108 C.3     
  12 C12            1.6546     5.3553    -1.2914 C.3     
  13 C13            0.2437     5.9429    -1.3710 C.3     
  14 N14            0.0111     6.8189    -0.2156 N.3     
  15 C15            0.0984     6.0701     1.0446 C.3     
  16 C16            1.5049     5.4863     1.1962 C.3     
  17 C17           -1.2809     7.5087    -0.3297 C.3     
  18 C18           -2.4148     6.4851    -0.2445 C.3     
  19 N19           -3.7033     7.1730    -0.3583 N.am    
  20 C20           -4.8505     6.4674    -0.3097 C.2     
  21 O21           -4.8163     5.2630    -0.1718 O.2     
  22 C22           -6.1759     7.1751    -0.4267 C.3     
  23 C23           -0.1929     7.0092     2.2168 C.3     
  24 C24           -7.0670     7.2161     0.8163 C.3     
  25 C25           -7.4421     6.3184    -0.3645 C.3     
  26 C26           -8.6109     6.7415    -1.2165 C.ar    
  27 C27           -9.1070     5.8867    -2.1829 C.ar    
  28 C28          -10.1792     6.2747    -2.9644 C.ar    
  29 C29          -10.7556     7.5175    -2.7791 C.ar    
  30 C30          -10.2601     8.3719    -1.8120 C.ar    
  31 C31           -9.1907     7.9821    -1.0276 C.ar    
  32 H32           -1.6752     0.0808     1.2290 H       
  33 H33           -0.9829     0.1243     3.5896 H       
  34 H34            0.6497     1.7894     4.3709 H       
  35 H35            1.6025     3.4234     2.7974 H       
  36 H36           -1.1942     1.4488    -1.2721 H       
  37 H37            2.8161     4.1780     0.0917 H       
  38 H38            2.3866     6.1627    -1.3096 H       
  39 H39            1.8213     4.6929    -2.1409 H       
  40 H40            0.1417     6.5195    -2.2903 H       
  41 H41           -0.4872     5.1343    -1.3667 H       
  42 H42           -0.6319     5.2609     1.0376 H       
  43 H43            1.5647     4.9176     2.1242 H       
  44 H44            2.2345     6.2958     1.2172 H       
  45 H45           -1.3806     8.2298     0.4816 H       
  46 H46           -1.3319     8.0287    -1.2863 H       
  47 H47           -2.3151     5.7640    -1.0558 H       
  48 H48           -2.3638     5.9651     0.7121 H       
  49 H49           -3.7306     8.1363    -0.4686 H       
  50 H50           -6.1881     8.0448    -1.0836 H       
  51 H51           -1.1951     7.4243     2.1094 H       
  52 H52           -0.1282     6.4535     3.1523 H       
  53 H53            0.5369     7.8188     2.2238 H       
  54 H54           -6.6946     6.7313     1.7187 H       
  55 H55           -7.6657     8.1127     0.9770 H       
  56 H56           -7.3168     5.2430    -0.2388 H       
  57 H57           -8.6567     4.9158    -2.3277 H       
  58 H58          -10.5663     5.6072    -3.7200 H       
  59 H59          -11.5928     7.8209    -3.3902 H       
  60 H60          -10.7102     9.3429    -1.6675 H       
  61 H61           -8.8059     8.6482    -0.2695 H       
@<TRIPOS>BOND
   1    1    2 ar
   2    1    6 ar
   3    1    9 1
   4    2    3 ar
   5    2   32 1
   6    3    4 ar
   7    3   33 1
   8    4    5 ar
   9    4   34 1
  10    5    6 ar
  11    5   35 1
  12    6    7 1
  13    7    8 am
  14    7   11 1
  15    8    9 am
  16    8   10 2
  17    9   36 1
  18   11   12 1
  19   11   16 1
  20   11   37 1
  21   12   13 1
  22   12   38 1
  23   12   39 1
  24   13   14 1
  25   13   40 1
  26   13   41 1
  27   14   15 1
  28   14   17 1
  29   15   16 1
  30   15   23 1
  31   15   42 1
  32   16   43 1
  33   16   44 1
  34   17   18 1
  35   17   45 1
  36   17   46 1
  37   18   19 1
  38   18   47 1
  39   18   48 1
  40   19   20 am
  41   19   49 1
  42   20   21 2
  43   20   22 1
  44   22   24 1
  45   22   25 1
  46   22   50 1
  47   23   51 1
  48   23   52 1
  49   23   53 1
  50   24   25 1
  51   24   54 1
  52   24   55 1
  53   25   26 1
  54   25   56 1
  55   26   27 ar
  56   26   31 ar
  57   27   28 ar
  58   27   57 1
  59   28   29 ar
  60   28   58 1
  61   29   30 ar
  62   29   59 1
  63   30   31 ar
  64   30   60 1
  65   31   61 1

#	End of record

