#	Name: ASD03430729
#	Creating user name:	WinNT
#	Creation time:	15. 06. 2019 20:41

#	Modifying user name:	WinNT
#	Modification time:	15. 06. 2019 20:41

#	Program:	/corina/corina34_cracker 3.40 0067  02.08.2006

@<TRIPOS>MOLECULE
ASD03430729
  60   66    0    0    0
SMALL
NO_CHARGES


@<TRIPOS>ATOM
   1 C1             3.5175    -1.8712    -4.5454 C.ar    
   2 C2             2.7923    -2.5949    -3.6017 C.ar    
   3 C3             3.2250    -3.8387    -3.1958 C.ar    
   4 C4             4.3954    -4.3827    -3.7170 C.ar    
   5 C5             5.1113    -3.6566    -4.6618 C.ar    
   6 C6             4.6780    -2.4084    -5.0723 C.ar    
   7 O7             4.6607    -5.6024    -3.1674 O.3     
   8 C8             2.6711    -4.8547    -2.2335 C.3     
   9 C9             3.4585    -6.1279    -2.5730 C.3     
  10 C10            1.5815    -4.4301    -0.2454 C.ar    
  11 C11            2.8576    -4.4464    -0.8023 C.ar    
  12 C12            1.1921    -5.0530    -2.4013 C.2     
  13 N13            0.6312    -4.7894    -1.2042 N.am    
  14 O14            0.6152    -5.3850    -3.4153 O.2     
  15 C15            3.9586    -4.1229    -0.0410 C.ar    
  16 C16            3.8038    -3.7786     1.2900 C.ar    
  17 C17            2.5411    -3.7603     1.8539 C.ar    
  18 C18            1.4351    -4.0827     1.0954 C.ar    
  19 C19           -0.8074    -4.8703    -0.9396 C.3     
  20 C20            5.4966    -1.6570    -6.0922 C.3     
  21 C21           -1.5359    -3.8862    -1.8181 C.ar    
  22 O22            3.0536    -0.6511    -4.9255 O.3     
  23 C23            3.9590     0.2291    -5.5931 C.3     
  24 C24            4.6469    -0.5502    -6.7212 C.3     
  25 C25           -1.2950    -6.2651    -1.2359 C.ar    
  26 C26           -2.7997    -4.1859    -2.2915 C.ar    
  27 C27           -3.4679    -3.2832    -3.0974 C.ar    
  28 C28           -2.8726    -2.0807    -3.4296 C.ar    
  29 C29           -1.6092    -1.7806    -2.9555 C.ar    
  30 C30           -0.9427    -2.6814    -2.1461 C.ar    
  31 C31           -1.5936    -7.1280    -0.1980 C.ar    
  32 C32           -2.0408    -8.4074    -0.4698 C.ar    
  33 C33           -2.1900    -8.8238    -1.7795 C.ar    
  34 C34           -1.8923    -7.9606    -2.8174 C.ar    
  35 C35           -1.4492    -6.6797    -2.5456 C.ar    
  36 F36            1.6592    -2.0746    -3.0814 F       
  37 H37            6.0166    -4.0714    -5.0799 H       
  38 H38            2.9106    -6.7430    -3.2869 H       
  39 H39            3.6884    -6.6932    -1.6698 H       
  40 H40            4.9437    -4.1376    -0.4834 H       
  41 H41            4.6671    -3.5250     1.8873 H       
  42 H42            2.4204    -3.4920     2.8931 H       
  43 H43            0.4523    -4.0657     1.5427 H       
  44 H44           -0.9982    -4.6334     0.1072 H       
  45 H45            6.3657    -1.2147    -5.6052 H       
  46 H46            5.8285    -2.3455    -6.8694 H       
  47 H47            3.4098     1.0726    -6.0114 H       
  48 H48            4.7069     0.5907    -4.8875 H       
  49 H49            5.2850     0.1214    -7.2956 H       
  50 H50            3.8945    -0.9914    -7.3748 H       
  51 H51           -3.2648    -5.1254    -2.0319 H       
  52 H52           -4.4549    -3.5176    -3.4678 H       
  53 H53           -3.3944    -1.3757    -4.0599 H       
  54 H54           -1.1440    -0.8412    -3.2154 H       
  55 H55            0.0443    -2.4470    -1.7757 H       
  56 H56           -1.4770    -6.8027     0.8252 H       
  57 H57           -2.2734    -9.0818     0.3410 H       
  58 H58           -2.5387    -9.8237    -1.9919 H       
  59 H59           -2.0085    -8.2860    -3.8406 H       
  60 H60           -1.2167    -6.0053    -3.3564 H       
@<TRIPOS>BOND
   1    1    2 ar
   2    1    6 ar
   3    1   22 1
   4    2    3 ar
   5    2   36 1
   6    3    4 ar
   7    3    8 1
   8    4    5 ar
   9    4    7 1
  10    5    6 ar
  11    5   37 1
  12    6   20 1
  13    7    9 1
  14    8    9 1
  15    8   11 1
  16    8   12 1
  17    9   38 1
  18    9   39 1
  19   10   11 ar
  20   10   13 1
  21   10   18 ar
  22   11   15 ar
  23   12   13 am
  24   12   14 2
  25   13   19 1
  26   15   16 ar
  27   15   40 1
  28   16   17 ar
  29   16   41 1
  30   17   18 ar
  31   17   42 1
  32   18   43 1
  33   19   21 1
  34   19   25 1
  35   19   44 1
  36   20   24 1
  37   20   45 1
  38   20   46 1
  39   21   26 ar
  40   21   30 ar
  41   22   23 1
  42   23   24 1
  43   23   47 1
  44   23   48 1
  45   24   49 1
  46   24   50 1
  47   25   31 ar
  48   25   35 ar
  49   26   27 ar
  50   26   51 1
  51   27   28 ar
  52   27   52 1
  53   28   29 ar
  54   28   53 1
  55   29   30 ar
  56   29   54 1
  57   30   55 1
  58   31   32 ar
  59   31   56 1
  60   32   33 ar
  61   32   57 1
  62   33   34 ar
  63   33   58 1
  64   34   35 ar
  65   34   59 1
  66   35   60 1

#	End of record

