#	Name: ASD03731734
#	Creating user name:	WinNT
#	Creation time:	15. 06. 2019 20:46

#	Modifying user name:	WinNT
#	Modification time:	15. 06. 2019 20:46

#	Program:	/corina/corina34_cracker 3.40 0067  02.08.2006

@<TRIPOS>MOLECULE
ASD03731734
  37   38    0    0    0
SMALL
NO_CHARGES


@<TRIPOS>ATOM
   1 C1             0.7606     1.4149    -0.4030 C.2     
   2 C2             0.5755    -0.0459    -0.3023 C.ar    
   3 C3             1.5341    -0.9119    -0.8351 C.ar    
   4 C4             1.3581    -2.2741    -0.7387 C.ar    
   5 C5             0.2282    -2.7883    -0.1128 C.ar    
   6 C6            -0.7279    -1.9300     0.4181 C.ar    
   7 C7            -0.5560    -0.5666     0.3312 C.ar    
   8 O8             1.7482     1.8663    -0.9501 O.2     
   9 N9            -0.1677     2.2486     0.1066 N.am    
  10 S10            0.0400     3.8876    -0.0064 S.o2    
  11 O11           -1.0985     4.4310     0.6476 O.2     
  12 O12            1.3500     4.1104     0.4971 O.2     
  13 C13           -0.0245     4.2304    -1.7866 C.3     
  14 O14            0.0581    -4.1313    -0.0202 O.3     
  15 C15            0.5842    -4.7682     1.0590 C.ar    
  16 C16            0.5357    -6.1540     1.1403 C.ar    
  17 C17            1.0712    -6.8017     2.2377 C.ar    
  18 C18            1.6558    -6.0724     3.2560 C.ar    
  19 C19            1.7060    -4.6881     3.1792 C.ar    
  20 C20            1.1748    -4.0358     2.0770 C.ar    
  21 O21            2.2803    -3.9720     4.1816 O.3     
  22 C22            2.8120    -4.7098     5.2838 C.3     
  23 Cl23          -0.1983    -7.0729    -0.1366 Cl      
  24 H24            2.4118    -0.5132    -1.3221 H       
  25 H25            2.0985    -2.9440    -1.1503 H       
  26 H26           -1.6045    -2.3332     0.9034 H       
  27 H27           -1.2968     0.0995     0.7482 H       
  28 H28           -0.9575     1.8885     0.5395 H       
  29 H29           -0.9895     3.9142    -2.1827 H       
  30 H30            0.1051     5.2994    -1.9557 H       
  31 H31            0.7721     3.6835    -2.2910 H       
  32 H32            1.0325    -7.8792     2.2997 H       
  33 H33            2.0736    -6.5807     4.1124 H       
  34 H34            1.2175    -2.9586     2.0136 H       
  35 H35            2.0146    -5.2850     5.7545 H       
  36 H36            3.5872    -5.3879     4.9271 H       
  37 H37            3.2396    -4.0193     6.0108 H       
@<TRIPOS>BOND
   1    1    2 1
   2    1    8 2
   3    1    9 am
   4    2    3 ar
   5    2    7 ar
   6    3    4 ar
   7    3   24 1
   8    4    5 ar
   9    4   25 1
  10    5    6 ar
  11    5   14 1
  12    6    7 ar
  13    6   26 1
  14    7   27 1
  15    9   10 am
  16    9   28 1
  17   10   11 2
  18   10   12 2
  19   10   13 1
  20   13   29 1
  21   13   30 1
  22   13   31 1
  23   14   15 1
  24   15   16 ar
  25   15   20 ar
  26   16   17 ar
  27   16   23 1
  28   17   18 ar
  29   17   32 1
  30   18   19 ar
  31   18   33 1
  32   19   20 ar
  33   19   21 1
  34   20   34 1
  35   21   22 1
  36   22   35 1
  37   22   36 1
  38   22   37 1

#	End of record

